# generated using pymatgen
data_B4H44Pd2C49S2N12O4F29
_symmetry_space_group_name_H-M   'P 1'
_cell_length_a   13.09320000
_cell_length_b   14.04359087
_cell_length_c   22.67049481
_cell_angle_alpha   76.44751018
_cell_angle_beta   73.21555916
_cell_angle_gamma   62.21449589
_symmetry_Int_Tables_number   1
_chemical_formula_structural   B4H44Pd2C49S2N12O4F29
_chemical_formula_sum   'B8 H88 Pd4 C98 S4 N24 O8 F58'
_cell_volume   3506.24288111
_cell_formula_units_Z   2
loop_
 _symmetry_equiv_pos_site_id
 _symmetry_equiv_pos_as_xyz
  1  'x, y, z'
loop_
 _atom_site_type_symbol
 _atom_site_label
 _atom_site_symmetry_multiplicity
 _atom_site_fract_x
 _atom_site_fract_y
 _atom_site_fract_z
 _atom_site_occupancy
  B  B1  1  0.427000  0.250600  0.304200  1
  B  B2  1  0.981800  0.749400  0.695800  1
  B  B3  1  0.573000  0.749400  0.695800  1
  B  B4  1  0.018200  0.250600  0.304200  1
  B  B5  1  0.468500  0.850800  0.212200  1
  B  B6  1  0.531500  0.149200  0.787800  1
  B  B7  1  0.111800  0.758900  0.017500  1
  B  B8  1  0.888200  0.241100  0.982500  1
  C  C9  1  0.255200  0.051300  0.438300  1
  C  C10  1  0.744800  0.948700  0.561700  1
  C  C11  1  0.282800  0.064800  0.369600  1
  C  C12  1  0.717200  0.935200  0.630400  1
  C  C13  1  0.113900  0.541200  0.231000  1
  C  C14  1  0.886100  0.458800  0.769000  1
  C  C15  1  0.045900  0.659200  0.249000  1
  C  C16  1  0.954100  0.340800  0.751000  1
  C  C17  1  0.725800  0.731400  0.013000  1
  C  C18  1  0.470200  0.268600  0.987000  1
  C  C19  1  0.274200  0.268600  0.987000  1
  C  C20  1  0.529800  0.731400  0.013000  1
  C  C21  1  0.656600  0.656700  0.030100  1
  C  C22  1  0.343400  0.343300  0.969900  1
  C  C23  1  0.498400  0.771100  0.451100  1.0
  C  C24  1  0.720600  0.228900  0.548900  1.0
  C  C25  1  0.501600  0.228900  0.548900  1.0
  C  C26  1  0.279400  0.771100  0.451100  1.0
  C  C27  1  0.514500  0.802200  0.500200  1.0
  C  C28  1  0.816900  0.197800  0.499800  1.0
  C  C29  1  0.485500  0.197800  0.499800  1.0
  C  C30  1  0.183100  0.802200  0.500200  1.0
  C  C31  1  0.584100  0.856400  0.487200  1.0
  C  C32  1  0.927700  0.143600  0.512800  1.0
  C  C33  1  0.415900  0.143600  0.512800  1.0
  C  C34  1  0.072300  0.856400  0.487200  1.0
  C  C35  1  0.639700  0.876900  0.427700  1.0
  C  C36  1  0.944300  0.123100  0.572300  1.0
  C  C37  1  0.360300  0.123100  0.572300  1.0
  C  C38  1  0.055700  0.876900  0.427700  1.0
  C  C39  1  0.621600  0.845400  0.379200  1.0
  C  C40  1  0.846200  0.154600  0.620800  1.0
  C  C41  1  0.378400  0.154600  0.620800  1.0
  C  C42  1  0.153800  0.845400  0.379200  1.0
  C  C43  1  0.552500  0.791500  0.390500  1.0
  C  C44  1  0.734500  0.208500  0.609500  1.0
  C  C45  1  0.447500  0.208500  0.609500  1.0
  C  C46  1  0.265500  0.791500  0.390500  1.0
  C  C47  1  0.659400  0.967300  0.293100  1.0
  C  C48  1  0.919800  0.032700  0.706900  1.0
  C  C49  1  0.340600  0.032700  0.706900  1.0
  C  C50  1  0.080200  0.967300  0.293100  1.0
  C  C51  1  0.712400  0.979800  0.226600  1.0
  C  C52  1  0.918800  0.020200  0.773400  1.0
  C  C53  1  0.287600  0.020200  0.773400  1.0
  C  C54  1  0.081200  0.979800  0.226600  1.0
  C  C55  1  0.716400  0.073800  0.190600  1.0
  C  C56  1  0.980800  0.926200  0.809400  1.0
  C  C57  1  0.283600  0.926200  0.809400  1.0
  C  C58  1  0.019200  0.073800  0.190600  1.0
  C  C59  1  0.765900  0.069800  0.128800  1.0
  C  C60  1  0.964500  0.930200  0.871200  1.0
  C  C61  1  0.234100  0.930200  0.871200  1.0
  C  C62  1  0.035500  0.069800  0.128800  1.0
  C  C63  1  0.810300  0.976600  0.102000  1.0
  C  C64  1  0.888900  0.023400  0.898000  1.0
  C  C65  1  0.189700  0.023400  0.898000  1.0
  C  C66  1  0.111100  0.976600  0.102000  1.0
  C  C67  1  0.803600  0.885400  0.138800  1.0
  C  C68  1  0.827800  0.114600  0.861200  1.0
  C  C69  1  0.196400  0.114600  0.861200  1.0
  C  C70  1  0.172200  0.885400  0.138800  1.0
  C  C71  1  0.840400  0.779000  0.121600  1.0
  C  C72  1  0.741000  0.221000  0.878400  1.0
  C  C73  1  0.159600  0.221000  0.878400  1.0
  C  C74  1  0.259000  0.779000  0.121600  1.0
  C  C75  1  0.850600  0.602700  0.148700  1.0
  C  C76  1  0.602000  0.397300  0.851300  1.0
  C  C77  1  0.149400  0.397300  0.851300  1.0
  C  C78  1  0.398000  0.602700  0.148700  1.0
  C  C79  1  0.949600  0.551600  0.103400  1.0
  C  C80  1  0.604600  0.448400  0.896600  1.0
  C  C81  1  0.050400  0.448400  0.896600  1.0
  C  C82  1  0.395400  0.551600  0.103400  1.0
  C  C83  1  0.970300  0.454000  0.089600  1.0
  C  C84  1  0.513900  0.546000  0.910400  1.0
  C  C85  1  0.029700  0.546000  0.910400  1.0
  C  C86  1  0.486100  0.454000  0.089600  1.0
  C  C87  1  0.895400  0.405800  0.118800  1.0
  C  C88  1  0.420000  0.594200  0.881200  1.0
  C  C89  1  0.104600  0.594200  0.881200  1.0
  C  C90  1  0.580000  0.405800  0.118800  1.0
  C  C91  1  0.796800  0.457900  0.162700  1.0
  C  C92  1  0.417400  0.542100  0.837300  1.0
  C  C93  1  0.203200  0.542100  0.837300  1.0
  C  C94  1  0.582600  0.457900  0.162700  1.0
  C  C95  1  0.773500  0.557400  0.178000  1.0
  C  C96  1  0.508900  0.442600  0.822000  1.0
  C  C97  1  0.226500  0.442600  0.822000  1.0
  C  C98  1  0.491100  0.557400  0.178000  1.0
  C  C99  1  0.757800  0.550500  0.336900  1.0
  C  C100  1  0.645200  0.449500  0.663100  1.0
  C  C101  1  0.242200  0.449500  0.663100  1.0
  C  C102  1  0.354800  0.550500  0.336900  1.0
  C  C103  1  0.756500  0.454500  0.376900  1.0
  C  C104  1  0.587900  0.545500  0.623100  1.0
  C  C105  1  0.243500  0.545500  0.623100  1.0
  C  C106  1  0.412100  0.454500  0.376900  1.0
  F  F107  1  0.436300  0.181100  0.269500  1
  F  F108  1  0.886900  0.818900  0.730500  1
  F  F109  1  0.563700  0.818900  0.730500  1
  F  F110  1  0.113100  0.181100  0.269500  1
  F  F111  1  0.500800  0.294200  0.273200  1
  F  F112  1  0.068200  0.705800  0.726800  1
  F  F113  1  0.499200  0.705800  0.726800  1
  F  F114  1  0.931800  0.294200  0.273200  1
  F  F115  1  0.454900  0.196300  0.358300  1
  F  F116  1  0.009500  0.803700  0.641700  1
  F  F117  1  0.545100  0.803700  0.641700  1
  F  F118  1  0.990500  0.196300  0.358300  1
  F  F119  1  0.316700  0.326200  0.314200  1
  F  F120  1  0.957100  0.673800  0.685800  1
  F  F121  1  0.683300  0.673800  0.685800  1
  F  F122  1  0.042900  0.326200  0.314200  1
  F  F123  1  0.410600  0.928900  0.249900  1
  F  F124  1  0.589400  0.071100  0.750100  1
  F  F125  1  0.498400  0.755400  0.247800  1
  F  F126  1  0.501600  0.244600  0.752200  1
  F  F127  1  0.091700  0.736400  0.080200  1
  F  F128  1  0.908300  0.263600  0.919800  1
  F  F129  1  0.063100  0.871200  0.002600  1
  F  F130  1  0.936900  0.128800  0.997400  1
  F  F131  1  0.521500  0.214500  0.328700  1
  F  F132  1  0.064700  0.785500  0.671300  1
  F  F133  1  0.478500  0.785500  0.671300  1
  F  F134  1  0.935300  0.214500  0.328700  1
  F  F135  1  0.334700  0.266200  0.352400  1
  F  F136  1  0.953300  0.733800  0.647600  1
  F  F137  1  0.665300  0.733800  0.647600  1
  F  F138  1  0.046700  0.266200  0.352400  1
  F  F139  1  0.405500  0.350600  0.274400  1
  F  F140  1  0.030500  0.649400  0.725600  1
  F  F141  1  0.594500  0.649400  0.725600  1
  F  F142  1  0.969500  0.350600  0.274400  1
  F  F143  1  0.168500  0.648700  0.014300  1
  F  F144  1  0.831500  0.351300  0.985700  1
  F  F145  1  0.012200  0.788800  0.997000  1
  F  F146  1  0.798000  0.211200  0.003000  1
  F  F147  1  0.987800  0.211200  0.003000  1
  F  F148  1  0.202000  0.788800  0.997000  1
  F  F149  1  0.544900  0.807400  0.161200  1
  F  F150  1  0.513500  0.192600  0.838800  1
  F  F151  1  0.455100  0.192600  0.838800  1
  F  F152  1  0.486500  0.807400  0.161200  1
  F  F153  1  0.513500  0.918400  0.212800  1
  F  F154  1  0.644700  0.081600  0.787200  1
  F  F155  1  0.486500  0.081600  0.787200  1
  F  F156  1  0.355300  0.918400  0.212800  1
  F  F157  1  0.564300  0.861300  0.176700  1.0
  F  F158  1  0.602300  0.138700  0.823300  1.0
  F  F159  1  0.435700  0.138700  0.823300  1.0
  F  F160  1  0.397700  0.861300  0.176700  1.0
  F  F161  1  0.055700  0.724200  0.991800  1.0
  F  F162  1  0.771700  0.275800  0.008200  1.0
  F  F163  1  0.944300  0.275800  0.008200  1.0
  F  F164  1  0.228300  0.724200  0.991800  1.0
  H  H165  1  0.218900  0.129600  0.354200  1
  H  H166  1  0.702700  0.870400  0.645800  1
  H  H167  1  0.781100  0.870400  0.645800  1
  H  H168  1  0.297300  0.129600  0.354200  1
  H  H169  1  0.291000  0.001000  0.354600  1
  H  H170  1  0.646600  0.999000  0.645400  1
  H  H171  1  0.709000  0.999000  0.645400  1
  H  H172  1  0.353400  0.001000  0.354600  1
  H  H173  1  0.356900  0.072600  0.354400  1
  H  H174  1  0.783900  0.927400  0.645600  1
  H  H175  1  0.643100  0.927400  0.645600  1
  H  H176  1  0.216100  0.072600  0.354400  1
  H  H177  1  0.141500  0.490200  0.266800  1
  H  H178  1  0.898500  0.509800  0.733200  1
  H  H179  1  0.858500  0.509800  0.733200  1
  H  H180  1  0.101500  0.490200  0.266800  1
  H  H181  1  0.181800  0.536600  0.197000  1
  H  H182  1  0.915400  0.463400  0.803000  1
  H  H183  1  0.818200  0.463400  0.803000  1
  H  H184  1  0.084600  0.536600  0.197000  1
  H  H185  1  0.061200  0.523000  0.217400  1
  H  H186  1  0.801600  0.477000  0.782600  1
  H  H187  1  0.938800  0.477000  0.782600  1
  H  H188  1  0.198400  0.523000  0.217400  1
  H  H189  1  0.478200  0.786500  0.541700  1.0
  H  H190  1  0.806400  0.213500  0.458300  1.0
  H  H191  1  0.521800  0.213500  0.458300  1.0
  H  H192  1  0.193600  0.786500  0.541700  1.0
  H  H193  1  0.594100  0.879900  0.520300  1.0
  H  H194  1  0.994300  0.120100  0.479700  1.0
  H  H195  1  0.405900  0.120100  0.479700  1.0
  H  H196  1  0.005700  0.879900  0.520300  1.0
  H  H197  1  0.689700  0.912300  0.419700  1.0
  H  H198  1  0.021700  0.087700  0.580300  1.0
  H  H199  1  0.310300  0.087700  0.580300  1.0
  H  H200  1  0.978300  0.912300  0.419700  1.0
  H  H201  1  0.541900  0.768500  0.357300  1.0
  H  H202  1  0.667700  0.231500  0.642700  1.0
  H  H203  1  0.458100  0.231500  0.642700  1.0
  H  H204  1  0.332300  0.768500  0.357300  1.0
  H  H205  1  0.617600  0.025700  0.317700  1.0
  H  H206  1  0.961000  0.974300  0.682300  1.0
  H  H207  1  0.382400  0.974300  0.682300  1.0
  H  H208  1  0.039000  0.025700  0.317700  1.0
  H  H209  1  0.685400  0.138900  0.208700  1.0
  H  H210  1  0.033000  0.861100  0.791300  1.0
  H  H211  1  0.314600  0.861100  0.791300  1.0
  H  H212  1  0.967000  0.138900  0.208700  1.0
  H  H213  1  0.769600  0.133200  0.103800  1.0
  H  H214  1  0.006600  0.866800  0.896200  1.0
  H  H215  1  0.230400  0.866800  0.896200  1.0
  H  H216  1  0.993400  0.133200  0.103800  1.0
  H  H217  1  0.845000  0.974800  0.059000  1.0
  H  H218  1  0.878800  0.025200  0.941000  1.0
  H  H219  1  0.155000  0.025200  0.941000  1.0
  H  H220  1  0.121200  0.974800  0.059000  1.0
  H  H221  1  0.875700  0.763600  0.080000  1.0
  H  H222  1  0.719300  0.236400  0.920000  1.0
  H  H223  1  0.124300  0.236400  0.920000  1.0
  H  H224  1  0.280700  0.763600  0.080000  1.0
  H  H225  1  0.001400  0.584600  0.082600  1.0
  H  H226  1  0.668600  0.415400  0.917400  1.0
  H  H227  1  0.998600  0.415400  0.917400  1.0
  H  H228  1  0.331400  0.584600  0.082600  1.0
  H  H229  1  0.037700  0.418600  0.059200  1.0
  H  H230  1  0.515500  0.581400  0.940800  1.0
  H  H231  1  0.962300  0.581400  0.940800  1.0
  H  H232  1  0.484500  0.418600  0.059200  1.0
  H  H233  1  0.911200  0.337500  0.108900  1.0
  H  H234  1  0.357600  0.662500  0.891100  1.0
  H  H235  1  0.088800  0.662500  0.891100  1.0
  H  H236  1  0.642400  0.337500  0.108900  1.0
  H  H237  1  0.705700  0.593000  0.208200  1.0
  H  H238  1  0.506900  0.407000  0.791800  1.0
  H  H239  1  0.294300  0.407000  0.791800  1.0
  H  H240  1  0.493100  0.593000  0.208200  1.0
  H  H241  1  0.676000  0.470000  0.400600  1.0
  H  H242  1  0.546600  0.530000  0.599400  1.0
  H  H243  1  0.324000  0.530000  0.599400  1.0
  H  H244  1  0.453400  0.470000  0.400600  1.0
  H  H245  1  0.809200  0.432400  0.405600  1.0
  H  H246  1  0.647200  0.567600  0.594400  1.0
  H  H247  1  0.190800  0.567600  0.594400  1.0
  H  H248  1  0.352800  0.432400  0.405600  1.0
  H  H249  1  0.783300  0.396000  0.351800  1.0
  H  H250  1  0.531100  0.604000  0.648200  1.0
  H  H251  1  0.216700  0.604000  0.648200  1.0
  H  H252  1  0.468900  0.396000  0.351800  1.0
  N  N253  1  0.240400  0.028600  0.490600  1
  N  N254  1  0.759600  0.971400  0.509400  1
  N  N255  1  1.000000  0.749400  0.250600  1
  N  N256  1  1.000000  0.250600  0.749400  1
  N  N257  1  0.765600  0.792800  0.986000  1
  N  N258  1  0.544400  0.207200  0.014000  1
  N  N259  1  0.234400  0.207200  0.014000  1
  N  N260  1  0.455600  0.792800  0.986000  1
  N  N261  1  0.675700  0.866700  0.315100  1.0
  N  N262  1  0.857500  0.133300  0.684900  1.0
  N  N263  1  0.324300  0.133300  0.684900  1.0
  N  N264  1  0.142500  0.866700  0.315100  1.0
  N  N265  1  0.756000  0.890700  0.199900  1.0
  N  N266  1  0.846600  0.109300  0.800100  1.0
  N  N267  1  0.244000  0.109300  0.800100  1.0
  N  N268  1  0.153400  0.890700  0.199900  1.0
  N  N269  1  0.823900  0.707300  0.163700  1.0
  N  N270  1  0.694900  0.292700  0.836300  1.0
  N  N271  1  0.176100  0.292700  0.836300  1.0
  N  N272  1  0.305100  0.707300  0.163700  1.0
  N  N273  1  0.756200  0.625100  0.304500  1.0
  N  N274  1  0.685800  0.374900  0.695500  1.0
  N  N275  1  0.243800  0.374900  0.695500  1.0
  N  N276  1  0.314200  0.625100  0.304500  1.0
  O  O277  1  0.408600  0.651800  0.531000  1
  O  O278  1  0.591400  0.348200  0.469000  1
  O  O279  1  0.482600  0.613500  0.421300  1
  O  O280  1  0.517400  0.386500  0.578700  1
  O  O281  1  0.652700  0.431100  0.263500  1
  O  O282  1  0.347300  0.568900  0.736500  1
  O  O283  1  0.760700  0.285400  0.193200  1
  O  O284  1  0.239300  0.714600  0.806800  1
  Pd  Pd285  1  0.752846  0.761383  0.249945  1.0
  Pd  Pd286  1  0.764174  0.238617  0.750055  1.0
  Pd  Pd287  1  0.247154  0.238617  0.750055  1.0
  Pd  Pd288  1  0.235826  0.761383  0.249945  1.0
  S  S289  1  0.422020  0.689280  0.466680  1
  S  S290  1  0.577980  0.310720  0.533320  1
  S  S291  1  0.700050  0.397510  0.202390  1
  S  S292  1  0.299950  0.602490  0.797610  1
