# generated using pymatgen
data_In8H32C60N71O48
_symmetry_space_group_name_H-M   'P 1'
_cell_length_a   15.85191982
_cell_length_b   15.85191982
_cell_length_c   15.85191982
_cell_angle_alpha   60.00000000
_cell_angle_beta   60.00000000
_cell_angle_gamma   60.00000000
_symmetry_Int_Tables_number   1
_chemical_formula_structural   In8H32C60N71O48
_chemical_formula_sum   'In8 H32 C60 N71 O48'
_cell_volume   2816.63520466
_cell_formula_units_Z   1
loop_
 _symmetry_equiv_pos_site_id
 _symmetry_equiv_pos_as_xyz
  1  'x, y, z'
loop_
 _atom_site_type_symbol
 _atom_site_label
 _atom_site_symmetry_multiplicity
 _atom_site_fract_x
 _atom_site_fract_y
 _atom_site_fract_z
 _atom_site_occupancy
  C  C1  1  0.739300  0.018900  0.981100  1.0
  C  C2  1  0.260700  0.981100  0.018900  1.0
  C  C3  1  0.981100  0.260700  0.739300  1.0
  C  C4  1  0.018900  0.739300  0.260700  1.0
  C  C5  1  0.018900  0.981100  0.739300  1.0
  C  C6  1  0.981100  0.018900  0.260700  1.0
  C  C7  1  0.260700  0.739300  0.981100  1.0
  C  C8  1  0.739300  0.260700  0.018900  1.0
  C  C9  1  0.981100  0.739300  0.018900  1.0
  C  C10  1  0.018900  0.260700  0.981100  1.0
  C  C11  1  0.739300  0.981100  0.260700  1.0
  C  C12  1  0.260700  0.018900  0.739300  1.0
  C  C13  1  0.648100  0.837900  0.003300  1.0
  C  C14  1  0.510700  0.003300  0.837900  1.0
  C  C15  1  0.003300  0.510700  0.648100  1.0
  C  C16  1  0.837900  0.648100  0.510700  1.0
  C  C17  1  0.837900  0.003300  0.648100  1.0
  C  C18  1  0.003300  0.837900  0.510700  1.0
  C  C19  1  0.510700  0.648100  0.003300  1.0
  C  C20  1  0.648100  0.510700  0.837900  1.0
  C  C21  1  0.003300  0.648100  0.837900  1.0
  C  C22  1  0.837900  0.510700  0.003300  1.0
  C  C23  1  0.648100  0.003300  0.510700  1.0
  C  C24  1  0.510700  0.837900  0.648100  1.0
  C  C25  1  0.351900  0.162100  0.996700  1.0
  C  C26  1  0.489300  0.996700  0.162100  1.0
  C  C27  1  0.996700  0.489300  0.351900  1.0
  C  C28  1  0.162100  0.351900  0.489300  1.0
  C  C29  1  0.162100  0.996700  0.351900  1.0
  C  C30  1  0.996700  0.162100  0.489300  1.0
  C  C31  1  0.489300  0.351900  0.996700  1.0
  C  C32  1  0.351900  0.489300  0.162100  1.0
  C  C33  1  0.996700  0.351900  0.162100  1.0
  C  C34  1  0.162100  0.489300  0.996700  1.0
  C  C35  1  0.351900  0.996700  0.489300  1.0
  C  C36  1  0.489300  0.162100  0.351900  1.0
  C  C37  1  0.654000  0.921000  0.019800  1.0
  C  C38  1  0.405200  0.019800  0.921000  1.0
  C  C39  1  0.019800  0.405200  0.654000  1.0
  C  C40  1  0.921000  0.654000  0.405200  1.0
  C  C41  1  0.921000  0.019800  0.654000  1.0
  C  C42  1  0.019800  0.921000  0.405200  1.0
  C  C43  1  0.405200  0.654000  0.019800  1.0
  C  C44  1  0.654000  0.405200  0.921000  1.0
  C  C45  1  0.019800  0.654000  0.921000  1.0
  C  C46  1  0.921000  0.405200  0.019800  1.0
  C  C47  1  0.654000  0.019800  0.405200  1.0
  C  C48  1  0.405200  0.921000  0.654000  1.0
  C  C49  1  0.346000  0.079000  0.980200  1.0
  C  C50  1  0.594800  0.980200  0.079000  1.0
  C  C51  1  0.980200  0.594800  0.346000  1.0
  C  C52  1  0.079000  0.346000  0.594800  1.0
  C  C53  1  0.079000  0.980200  0.346000  1.0
  C  C54  1  0.980200  0.079000  0.594800  1.0
  C  C55  1  0.594800  0.346000  0.980200  1.0
  C  C56  1  0.346000  0.594800  0.079000  1.0
  C  C57  1  0.980200  0.346000  0.079000  1.0
  C  C58  1  0.079000  0.594800  0.980200  1.0
  C  C59  1  0.346000  0.980200  0.594800  1.0
  C  C60  1  0.594800  0.079000  0.346000  1.0
  H  H61  1  0.490000  0.900000  0.100000  1
  H  H62  1  0.510000  0.100000  0.900000  1
  H  H63  1  0.100000  0.510000  0.490000  1
  H  H64  1  0.900000  0.490000  0.510000  1
  H  H65  1  0.900000  0.100000  0.490000  1
  H  H66  1  0.100000  0.900000  0.510000  1
  H  H67  1  0.510000  0.490000  0.100000  1
  H  H68  1  0.490000  0.510000  0.900000  1
  H  H69  1  0.100000  0.490000  0.900000  1
  H  H70  1  0.900000  0.510000  0.100000  1
  H  H71  1  0.490000  0.100000  0.510000  1
  H  H72  1  0.510000  0.900000  0.490000  1
  H  H73  1  0.669600  0.776800  0.776800  1.0
  H  H74  1  0.776800  0.776800  0.776800  1.0
  H  H75  1  0.776800  0.776800  0.669600  1.0
  H  H76  1  0.776800  0.669600  0.776800  1.0
  H  H77  1  0.330400  0.223200  0.223200  1.0
  H  H78  1  0.223200  0.223200  0.223200  1.0
  H  H79  1  0.223200  0.223200  0.330400  1.0
  H  H80  1  0.223200  0.330400  0.223200  1.0
  H  H81  1  0.790500  0.045500  0.954500  1.0
  H  H82  1  0.209500  0.954500  0.045500  1.0
  H  H83  1  0.954500  0.209500  0.790500  1.0
  H  H84  1  0.045500  0.790500  0.209500  1.0
  H  H85  1  0.045500  0.954500  0.790500  1.0
  H  H86  1  0.954500  0.045500  0.209500  1.0
  H  H87  1  0.209500  0.790500  0.954500  1.0
  H  H88  1  0.790500  0.209500  0.045500  1.0
  H  H89  1  0.954500  0.790500  0.045500  1.0
  H  H90  1  0.045500  0.209500  0.954500  1.0
  H  H91  1  0.790500  0.954500  0.209500  1.0
  H  H92  1  0.209500  0.045500  0.790500  1.0
  In  In93  1  0.853330  0.853330  0.853330  1.0
  In  In94  1  0.440010  0.853330  0.853330  1.0
  In  In95  1  0.853330  0.440010  0.853330  1.0
  In  In96  1  0.853330  0.853330  0.440010  1.0
  In  In97  1  0.146670  0.146670  0.146670  1.0
  In  In98  1  0.559990  0.146670  0.146670  1.0
  In  In99  1  0.146670  0.559990  0.146670  1.0
  In  In100  1  0.146670  0.146670  0.559990  1.0
  N  N101  1  0.750000  0.750000  0.750000  1
  N  N102  1  0.250000  0.250000  0.250000  1
  N  N103  1  0.000000  0.000000  0.000000  1
  N  N104  1  0.759000  0.311000  0.689000  1
  N  N105  1  0.241000  0.689000  0.311000  1
  N  N106  1  0.689000  0.241000  0.759000  1
  N  N107  1  0.311000  0.759000  0.241000  1
  N  N108  1  0.311000  0.689000  0.759000  1
  N  N109  1  0.689000  0.311000  0.241000  1
  N  N110  1  0.241000  0.759000  0.689000  1
  N  N111  1  0.759000  0.241000  0.311000  1
  N  N112  1  0.689000  0.759000  0.311000  1
  N  N113  1  0.311000  0.241000  0.689000  1
  N  N114  1  0.759000  0.689000  0.241000  1
  N  N115  1  0.241000  0.311000  0.759000  1
  N  N116  1  0.706000  0.338000  0.662000  1
  N  N117  1  0.294000  0.662000  0.338000  1
  N  N118  1  0.662000  0.294000  0.706000  1
  N  N119  1  0.338000  0.706000  0.294000  1
  N  N120  1  0.338000  0.662000  0.706000  1
  N  N121  1  0.662000  0.338000  0.294000  1
  N  N122  1  0.294000  0.706000  0.662000  1
  N  N123  1  0.706000  0.294000  0.338000  1
  N  N124  1  0.662000  0.706000  0.338000  1
  N  N125  1  0.338000  0.294000  0.662000  1
  N  N126  1  0.706000  0.662000  0.294000  1
  N  N127  1  0.294000  0.338000  0.706000  1
  N  N128  1  0.784000  0.216000  0.784000  1
  N  N129  1  0.216000  0.784000  0.216000  1
  N  N130  1  0.216000  0.784000  0.784000  1
  N  N131  1  0.784000  0.216000  0.216000  1
  N  N132  1  0.784000  0.784000  0.216000  1
  N  N133  1  0.216000  0.216000  0.784000  1
  N  N134  1  0.942000  0.058000  0.942000  1
  N  N135  1  0.058000  0.942000  0.058000  1
  N  N136  1  0.058000  0.942000  0.942000  1
  N  N137  1  0.942000  0.058000  0.058000  1
  N  N138  1  0.942000  0.942000  0.058000  1
  N  N139  1  0.058000  0.058000  0.942000  1
  N  N140  1  0.967000  0.099000  0.967000  1
  N  N141  1  0.967000  0.967000  0.099000  1
  N  N142  1  0.967000  0.967000  0.967000  1
  N  N143  1  0.099000  0.967000  0.967000  1
  N  N144  1  0.033000  0.901000  0.033000  1
  N  N145  1  0.033000  0.033000  0.901000  1
  N  N146  1  0.033000  0.033000  0.033000  1
  N  N147  1  0.901000  0.033000  0.033000  1
  N  N148  1  0.744900  0.945100  0.955500  1.0
  N  N149  1  0.354500  0.955500  0.945100  1.0
  N  N150  1  0.955500  0.354500  0.744900  1.0
  N  N151  1  0.945100  0.744900  0.354500  1.0
  N  N152  1  0.945100  0.955500  0.744900  1.0
  N  N153  1  0.955500  0.945100  0.354500  1.0
  N  N154  1  0.354500  0.744900  0.955500  1.0
  N  N155  1  0.744900  0.354500  0.945100  1.0
  N  N156  1  0.955500  0.744900  0.945100  1.0
  N  N157  1  0.945100  0.354500  0.955500  1.0
  N  N158  1  0.744900  0.955500  0.354500  1.0
  N  N159  1  0.354500  0.945100  0.744900  1.0
  N  N160  1  0.255100  0.054900  0.044500  1.0
  N  N161  1  0.645500  0.044500  0.054900  1.0
  N  N162  1  0.044500  0.645500  0.255100  1.0
  N  N163  1  0.054900  0.255100  0.645500  1.0
  N  N164  1  0.054900  0.044500  0.255100  1.0
  N  N165  1  0.044500  0.054900  0.645500  1.0
  N  N166  1  0.645500  0.255100  0.044500  1.0
  N  N167  1  0.255100  0.645500  0.054900  1.0
  N  N168  1  0.044500  0.255100  0.054900  1.0
  N  N169  1  0.054900  0.645500  0.044500  1.0
  N  N170  1  0.255100  0.044500  0.645500  1.0
  N  N171  1  0.645500  0.054900  0.255100  1.0
  O  O172  1  0.722000  0.798200  0.938600  1.0
  O  O173  1  0.541200  0.938600  0.798200  1.0
  O  O174  1  0.938600  0.541200  0.722000  1.0
  O  O175  1  0.798200  0.722000  0.541200  1.0
  O  O176  1  0.798200  0.938600  0.722000  1.0
  O  O177  1  0.938600  0.798200  0.541200  1.0
  O  O178  1  0.541200  0.722000  0.938600  1.0
  O  O179  1  0.722000  0.541200  0.798200  1.0
  O  O180  1  0.938600  0.722000  0.798200  1.0
  O  O181  1  0.798200  0.541200  0.938600  1.0
  O  O182  1  0.722000  0.938600  0.541200  1.0
  O  O183  1  0.541200  0.798200  0.722000  1.0
  O  O184  1  0.278000  0.201800  0.061400  1.0
  O  O185  1  0.458800  0.061400  0.201800  1.0
  O  O186  1  0.061400  0.458800  0.278000  1.0
  O  O187  1  0.201800  0.278000  0.458800  1.0
  O  O188  1  0.201800  0.061400  0.278000  1.0
  O  O189  1  0.061400  0.201800  0.458800  1.0
  O  O190  1  0.458800  0.278000  0.061400  1.0
  O  O191  1  0.278000  0.458800  0.201800  1.0
  O  O192  1  0.061400  0.278000  0.201800  1.0
  O  O193  1  0.201800  0.458800  0.061400  1.0
  O  O194  1  0.278000  0.061400  0.458800  1.0
  O  O195  1  0.458800  0.201800  0.278000  1.0
  O  O196  1  0.565500  0.815900  0.058100  1.0
  O  O197  1  0.560500  0.058100  0.815900  1.0
  O  O198  1  0.058100  0.560500  0.565500  1.0
  O  O199  1  0.815900  0.565500  0.560500  1.0
  O  O200  1  0.815900  0.058100  0.565500  1.0
  O  O201  1  0.058100  0.815900  0.560500  1.0
  O  O202  1  0.560500  0.565500  0.058100  1.0
  O  O203  1  0.565500  0.560500  0.815900  1.0
  O  O204  1  0.058100  0.565500  0.815900  1.0
  O  O205  1  0.815900  0.560500  0.058100  1.0
  O  O206  1  0.565500  0.058100  0.560500  1.0
  O  O207  1  0.560500  0.815900  0.565500  1.0
  O  O208  1  0.434500  0.184100  0.941900  1.0
  O  O209  1  0.439500  0.941900  0.184100  1.0
  O  O210  1  0.941900  0.439500  0.434500  1.0
  O  O211  1  0.184100  0.434500  0.439500  1.0
  O  O212  1  0.184100  0.941900  0.434500  1.0
  O  O213  1  0.941900  0.184100  0.439500  1.0
  O  O214  1  0.439500  0.434500  0.941900  1.0
  O  O215  1  0.434500  0.439500  0.184100  1.0
  O  O216  1  0.941900  0.434500  0.184100  1.0
  O  O217  1  0.184100  0.439500  0.941900  1.0
  O  O218  1  0.434500  0.941900  0.439500  1.0
  O  O219  1  0.439500  0.184100  0.434500  1.0
