# generated using pymatgen
data_B4H72Rh2C56N6Cl8OF16
_symmetry_space_group_name_H-M   'P 1'
_cell_length_a   10.05660000
_cell_length_b   20.12930000
_cell_length_c   27.64910000
_cell_angle_alpha   90.00000000
_cell_angle_beta   90.00000000
_cell_angle_gamma   90.00000000
_symmetry_Int_Tables_number   1
_chemical_formula_structural   B4H72Rh2C56N6Cl8OF16
_chemical_formula_sum   'B16 H288 Rh8 C224 N24 Cl32 O4 F64'
_cell_volume   5597.07141412
_cell_formula_units_Z   4
loop_
 _symmetry_equiv_pos_site_id
 _symmetry_equiv_pos_as_xyz
  1  'x, y, z'
loop_
 _atom_site_type_symbol
 _atom_site_label
 _atom_site_symmetry_multiplicity
 _atom_site_fract_x
 _atom_site_fract_y
 _atom_site_fract_z
 _atom_site_occupancy
  B  B1  1  0.687500  0.663700  0.700500  1
  B  B2  1  0.812500  0.836300  0.200500  1
  B  B3  1  0.812500  0.163700  0.299500  1
  B  B4  1  0.687500  0.336300  0.799500  1
  B  B5  1  0.312500  0.336300  0.299500  1
  B  B6  1  0.187500  0.163700  0.799500  1
  B  B7  1  0.187500  0.836300  0.700500  1
  B  B8  1  0.312500  0.663700  0.200500  1
  B  B9  1  0.673400  0.661900  0.702700  1
  B  B10  1  0.826600  0.838100  0.202700  1
  B  B11  1  0.826600  0.161900  0.297300  1
  B  B12  1  0.673400  0.338100  0.797300  1
  B  B13  1  0.326600  0.338100  0.297300  1
  B  B14  1  0.173400  0.161900  0.797300  1
  B  B15  1  0.173400  0.838100  0.702700  1
  B  B16  1  0.326600  0.661900  0.202700  1
  H  H17  1  0.910100  0.775000  0.622700  1
  H  H18  1  0.589900  0.725000  0.122700  1
  H  H19  1  0.589900  0.275000  0.377300  1
  H  H20  1  0.910100  0.225000  0.877300  1
  H  H21  1  0.089900  0.225000  0.377300  1
  H  H22  1  0.410100  0.275000  0.877300  1
  H  H23  1  0.410100  0.725000  0.622700  1
  H  H24  1  0.089900  0.775000  0.122700  1
  H  H25  1  0.063000  0.759300  0.611700  1
  H  H26  1  0.437000  0.740700  0.111700  1
  H  H27  1  0.437000  0.259300  0.388300  1
  H  H28  1  0.063000  0.240700  0.888300  1
  H  H29  1  0.937000  0.240700  0.388300  1
  H  H30  1  0.563000  0.259300  0.888300  1
  H  H31  1  0.563000  0.740700  0.611700  1
  H  H32  1  0.937000  0.759300  0.111700  1
  H  H33  1  0.926100  0.810800  0.606900  1
  H  H34  1  0.573900  0.689200  0.106900  1
  H  H35  1  0.573900  0.310800  0.393100  1
  H  H36  1  0.926100  0.189200  0.893100  1
  H  H37  1  0.073900  0.189200  0.393100  1
  H  H38  1  0.426100  0.310800  0.893100  1
  H  H39  1  0.426100  0.689200  0.606900  1
  H  H40  1  0.073900  0.810800  0.106900  1
  H  H41  1  0.943100  0.732200  0.613900  1
  H  H42  1  0.556900  0.767800  0.113900  1
  H  H43  1  0.556900  0.232200  0.386100  1
  H  H44  1  0.943100  0.267800  0.886100  1
  H  H45  1  0.056900  0.267800  0.386100  1
  H  H46  1  0.443100  0.232200  0.886100  1
  H  H47  1  0.443100  0.767800  0.613900  1
  H  H48  1  0.056900  0.732200  0.113900  1
  H  H49  1  0.036500  0.004300  0.649300  1.0
  H  H50  1  0.463500  0.495700  0.149300  1.0
  H  H51  1  0.463500  0.504300  0.350700  1.0
  H  H52  1  0.036500  0.995700  0.850700  1.0
  H  H53  1  0.963500  0.995700  0.350700  1.0
  H  H54  1  0.536500  0.504300  0.850700  1.0
  H  H55  1  0.536500  0.495700  0.649300  1.0
  H  H56  1  0.963500  0.004300  0.149300  1.0
  H  H57  1  0.234000  0.085000  0.637200  1.0
  H  H58  1  0.266000  0.415000  0.137200  1.0
  H  H59  1  0.266000  0.585000  0.362800  1.0
  H  H60  1  0.234000  0.915000  0.862800  1.0
  H  H61  1  0.766000  0.915000  0.362800  1.0
  H  H62  1  0.734000  0.585000  0.862800  1.0
  H  H63  1  0.734000  0.415000  0.637200  1.0
  H  H64  1  0.766000  0.085000  0.137200  1.0
  H  H65  1  0.151000  0.087000  0.685700  1.0
  H  H66  1  0.349000  0.413000  0.185700  1.0
  H  H67  1  0.349000  0.587000  0.314300  1.0
  H  H68  1  0.151000  0.913000  0.814300  1.0
  H  H69  1  0.849000  0.913000  0.314300  1.0
  H  H70  1  0.651000  0.587000  0.814300  1.0
  H  H71  1  0.651000  0.413000  0.685700  1.0
  H  H72  1  0.849000  0.087000  0.185700  1.0
  H  H73  1  0.135000  0.195100  0.667000  1.0
  H  H74  1  0.365000  0.304900  0.167000  1.0
  H  H75  1  0.365000  0.695100  0.333000  1.0
  H  H76  1  0.135000  0.804900  0.833000  1.0
  H  H77  1  0.865000  0.804900  0.333000  1.0
  H  H78  1  0.635000  0.695100  0.833000  1.0
  H  H79  1  0.635000  0.304900  0.667000  1.0
  H  H80  1  0.865000  0.195100  0.167000  1.0
  H  H81  1  0.129500  0.181600  0.610000  1.0
  H  H82  1  0.370500  0.318400  0.110000  1.0
  H  H83  1  0.370500  0.681600  0.390000  1.0
  H  H84  1  0.129500  0.818400  0.890000  1.0
  H  H85  1  0.870500  0.818400  0.390000  1.0
  H  H86  1  0.629500  0.681600  0.890000  1.0
  H  H87  1  0.629500  0.318400  0.610000  1.0
  H  H88  1  0.870500  0.181600  0.110000  1.0
  H  H89  1  0.904500  0.179800  0.673300  1.0
  H  H90  1  0.595500  0.320200  0.173300  1.0
  H  H91  1  0.595500  0.679800  0.326700  1.0
  H  H92  1  0.904500  0.820200  0.826700  1.0
  H  H93  1  0.095500  0.820200  0.326700  1.0
  H  H94  1  0.404500  0.679800  0.826700  1.0
  H  H95  1  0.404500  0.320200  0.673300  1.0
  H  H96  1  0.095500  0.179800  0.173300  1.0
  H  H97  1  0.771400  0.173900  0.607400  1.0
  H  H98  1  0.728600  0.326100  0.107400  1.0
  H  H99  1  0.728600  0.673900  0.392600  1.0
  H  H100  1  0.771400  0.826100  0.892600  1.0
  H  H101  1  0.228600  0.826100  0.392600  1.0
  H  H102  1  0.271400  0.673900  0.892600  1.0
  H  H103  1  0.271400  0.326100  0.607400  1.0
  H  H104  1  0.228600  0.173900  0.107400  1.0
  H  H105  1  0.947300  0.194000  0.538000  1.0
  H  H106  1  0.552700  0.306000  0.038000  1.0
  H  H107  1  0.552700  0.694000  0.462000  1.0
  H  H108  1  0.947300  0.806000  0.962000  1.0
  H  H109  1  0.052700  0.806000  0.462000  1.0
  H  H110  1  0.447300  0.694000  0.962000  1.0
  H  H111  1  0.447300  0.306000  0.538000  1.0
  H  H112  1  0.052700  0.194000  0.038000  1.0
  H  H113  1  0.831800  0.140000  0.532400  1.0
  H  H114  1  0.668200  0.360000  0.032400  1.0
  H  H115  1  0.668200  0.640000  0.467600  1.0
  H  H116  1  0.831800  0.860000  0.967600  1.0
  H  H117  1  0.168200  0.860000  0.467600  1.0
  H  H118  1  0.331800  0.640000  0.967600  1.0
  H  H119  1  0.331800  0.360000  0.532400  1.0
  H  H120  1  0.168200  0.140000  0.032400  1.0
  H  H121  1  0.012200  0.077600  0.516200  1.0
  H  H122  1  0.487800  0.422400  0.016200  1.0
  H  H123  1  0.487800  0.577600  0.483800  1.0
  H  H124  1  0.012200  0.922400  0.983800  1.0
  H  H125  1  0.987800  0.922400  0.483800  1.0
  H  H126  1  0.512200  0.577600  0.983800  1.0
  H  H127  1  0.512200  0.422400  0.516200  1.0
  H  H128  1  0.987800  0.077600  0.016200  1.0
  H  H129  1  0.104100  0.117000  0.553800  1.0
  H  H130  1  0.395900  0.383000  0.053800  1.0
  H  H131  1  0.395900  0.617000  0.446200  1.0
  H  H132  1  0.104100  0.883000  0.946200  1.0
  H  H133  1  0.895900  0.883000  0.446200  1.0
  H  H134  1  0.604100  0.617000  0.946200  1.0
  H  H135  1  0.604100  0.383000  0.553800  1.0
  H  H136  1  0.895900  0.117000  0.053800  1.0
  H  H137  1  0.932800  0.009200  0.577900  1.0
  H  H138  1  0.567200  0.490800  0.077900  1.0
  H  H139  1  0.567200  0.509200  0.422100  1.0
  H  H140  1  0.932800  0.990800  0.922100  1.0
  H  H141  1  0.067200  0.990800  0.422100  1.0
  H  H142  1  0.432800  0.509200  0.922100  1.0
  H  H143  1  0.432800  0.490800  0.577900  1.0
  H  H144  1  0.067200  0.009200  0.077900  1.0
  H  H145  1  0.704800  0.968400  0.587900  1.0
  H  H146  1  0.795200  0.531600  0.087900  1.0
  H  H147  1  0.795200  0.468400  0.412100  1.0
  H  H148  1  0.704800  0.031600  0.912100  1.0
  H  H149  1  0.295200  0.031600  0.412100  1.0
  H  H150  1  0.204800  0.468400  0.912100  1.0
  H  H151  1  0.204800  0.531600  0.587900  1.0
  H  H152  1  0.295200  0.968400  0.087900  1.0
  H  H153  1  0.642400  0.858700  0.595200  1.0
  H  H154  1  0.857600  0.641300  0.095200  1.0
  H  H155  1  0.857600  0.358700  0.404800  1.0
  H  H156  1  0.642400  0.141300  0.904800  1.0
  H  H157  1  0.357600  0.141300  0.404800  1.0
  H  H158  1  0.142400  0.358700  0.904800  1.0
  H  H159  1  0.142400  0.641300  0.595200  1.0
  H  H160  1  0.357600  0.858700  0.095200  1.0
  H  H161  1  0.685900  0.800900  0.666000  1.0
  H  H162  1  0.814100  0.699100  0.166000  1.0
  H  H163  1  0.814100  0.300900  0.334000  1.0
  H  H164  1  0.685900  0.199100  0.834000  1.0
  H  H165  1  0.314100  0.199100  0.334000  1.0
  H  H166  1  0.185900  0.300900  0.834000  1.0
  H  H167  1  0.185900  0.699100  0.666000  1.0
  H  H168  1  0.314100  0.800900  0.166000  1.0
  H  H169  1  0.861000  0.966000  0.718000  1.0
  H  H170  1  0.639000  0.534000  0.218000  1.0
  H  H171  1  0.639000  0.466000  0.282000  1.0
  H  H172  1  0.861000  0.034000  0.782000  1.0
  H  H173  1  0.139000  0.034000  0.282000  1.0
  H  H174  1  0.361000  0.466000  0.782000  1.0
  H  H175  1  0.361000  0.534000  0.718000  1.0
  H  H176  1  0.139000  0.966000  0.218000  1.0
  H  H177  1  0.823200  0.797900  0.742400  1.0
  H  H178  1  0.676800  0.702100  0.242400  1.0
  H  H179  1  0.676800  0.297900  0.257600  1.0
  H  H180  1  0.823200  0.202100  0.757600  1.0
  H  H181  1  0.176800  0.202100  0.257600  1.0
  H  H182  1  0.323200  0.297900  0.757600  1.0
  H  H183  1  0.323200  0.702100  0.742400  1.0
  H  H184  1  0.176800  0.797900  0.242400  1.0
  H  H185  1  0.883700  0.866000  0.762800  1.0
  H  H186  1  0.616300  0.634000  0.262800  1.0
  H  H187  1  0.616300  0.366000  0.237200  1.0
  H  H188  1  0.883700  0.134000  0.737200  1.0
  H  H189  1  0.116300  0.134000  0.237200  1.0
  H  H190  1  0.383700  0.366000  0.737200  1.0
  H  H191  1  0.383700  0.634000  0.762800  1.0
  H  H192  1  0.116300  0.866000  0.262800  1.0
  H  H193  1  0.538900  0.804900  0.740500  1.0
  H  H194  1  0.961100  0.695100  0.240500  1.0
  H  H195  1  0.961100  0.304900  0.259500  1.0
  H  H196  1  0.538900  0.195100  0.759500  1.0
  H  H197  1  0.461100  0.195100  0.259500  1.0
  H  H198  1  0.038900  0.304900  0.759500  1.0
  H  H199  1  0.038900  0.695100  0.740500  1.0
  H  H200  1  0.461100  0.804900  0.240500  1.0
  H  H201  1  0.387800  0.844300  0.804300  1.0
  H  H202  1  0.112200  0.655700  0.304300  1.0
  H  H203  1  0.112200  0.344300  0.195700  1.0
  H  H204  1  0.387800  0.155700  0.695700  1.0
  H  H205  1  0.612200  0.155700  0.195700  1.0
  H  H206  1  0.887800  0.344300  0.695700  1.0
  H  H207  1  0.887800  0.655700  0.804300  1.0
  H  H208  1  0.612200  0.844300  0.304300  1.0
  H  H209  1  0.353000  0.068600  0.888000  1.0
  H  H210  1  0.147000  0.431400  0.388000  1.0
  H  H211  1  0.147000  0.568600  0.112000  1.0
  H  H212  1  0.353000  0.931400  0.612000  1.0
  H  H213  1  0.647000  0.931400  0.112000  1.0
  H  H214  1  0.853000  0.568600  0.612000  1.0
  H  H215  1  0.853000  0.431400  0.888000  1.0
  H  H216  1  0.647000  0.068600  0.388000  1.0
  H  H217  1  0.394200  0.919300  0.983000  1.0
  H  H218  1  0.105800  0.580700  0.483000  1.0
  H  H219  1  0.105800  0.419300  0.017000  1.0
  H  H220  1  0.394200  0.080700  0.517000  1.0
  H  H221  1  0.605800  0.080700  0.017000  1.0
  H  H222  1  0.894200  0.419300  0.517000  1.0
  H  H223  1  0.894200  0.580700  0.983000  1.0
  H  H224  1  0.605800  0.919300  0.483000  1.0
  H  H225  1  0.395000  0.994000  0.790000  1.0
  H  H226  1  0.105000  0.506000  0.290000  1.0
  H  H227  1  0.105000  0.494000  0.210000  1.0
  H  H228  1  0.395000  0.006000  0.710000  1.0
  H  H229  1  0.605000  0.006000  0.210000  1.0
  H  H230  1  0.895000  0.494000  0.710000  1.0
  H  H231  1  0.895000  0.506000  0.790000  1.0
  H  H232  1  0.605000  0.994000  0.290000  1.0
  H  H233  1  0.550300  0.007100  0.798100  1.0
  H  H234  1  0.949700  0.492900  0.298100  1.0
  H  H235  1  0.949700  0.507100  0.201900  1.0
  H  H236  1  0.550300  0.992900  0.701900  1.0
  H  H237  1  0.449700  0.992900  0.201900  1.0
  H  H238  1  0.050300  0.507100  0.701900  1.0
  H  H239  1  0.050300  0.492900  0.798100  1.0
  H  H240  1  0.449700  0.007100  0.298100  1.0
  H  H241  1  0.444500  0.063700  0.811300  1.0
  H  H242  1  0.055500  0.436300  0.311300  1.0
  H  H243  1  0.055500  0.563700  0.188700  1.0
  H  H244  1  0.444500  0.936300  0.688700  1.0
  H  H245  1  0.555500  0.936300  0.188700  1.0
  H  H246  1  0.944500  0.563700  0.688700  1.0
  H  H247  1  0.944500  0.436300  0.811300  1.0
  H  H248  1  0.555500  0.063700  0.311300  1.0
  H  H249  1  0.260700  0.082400  0.963800  1.0
  H  H250  1  0.239300  0.417600  0.463800  1.0
  H  H251  1  0.239300  0.582400  0.036200  1.0
  H  H252  1  0.260700  0.917600  0.536200  1.0
  H  H253  1  0.739300  0.917600  0.036200  1.0
  H  H254  1  0.760700  0.582400  0.536200  1.0
  H  H255  1  0.760700  0.417600  0.963800  1.0
  H  H256  1  0.739300  0.082400  0.463800  1.0
  H  H257  1  0.342100  0.047100  0.006400  1.0
  H  H258  1  0.157900  0.452900  0.506400  1.0
  H  H259  1  0.157900  0.547100  0.993600  1.0
  H  H260  1  0.342100  0.952900  0.493600  1.0
  H  H261  1  0.657900  0.952900  0.993600  1.0
  H  H262  1  0.842100  0.547100  0.493600  1.0
  H  H263  1  0.842100  0.452900  0.006400  1.0
  H  H264  1  0.657900  0.047100  0.506400  1.0
  H  H265  1  0.206200  0.015000  0.987300  1.0
  H  H266  1  0.293800  0.485000  0.487300  1.0
  H  H267  1  0.293800  0.515000  0.012700  1.0
  H  H268  1  0.206200  0.985000  0.512700  1.0
  H  H269  1  0.793800  0.985000  0.012700  1.0
  H  H270  1  0.706200  0.515000  0.512700  1.0
  H  H271  1  0.706200  0.485000  0.987300  1.0
  H  H272  1  0.793800  0.015000  0.487300  1.0
  H  H273  1  0.530200  0.803200  0.900200  1.0
  H  H274  1  0.969800  0.696800  0.400200  1.0
  H  H275  1  0.969800  0.303200  0.099800  1.0
  H  H276  1  0.530200  0.196800  0.599800  1.0
  H  H277  1  0.469800  0.196800  0.099800  1.0
  H  H278  1  0.030200  0.303200  0.599800  1.0
  H  H279  1  0.030200  0.696800  0.900200  1.0
  H  H280  1  0.469800  0.803200  0.400200  1.0
  H  H281  1  0.443500  0.807400  0.948600  1.0
  H  H282  1  0.056500  0.692600  0.448600  1.0
  H  H283  1  0.056500  0.307400  0.051400  1.0
  H  H284  1  0.443500  0.192600  0.551400  1.0
  H  H285  1  0.556500  0.192600  0.051400  1.0
  H  H286  1  0.943500  0.307400  0.551400  1.0
  H  H287  1  0.943500  0.692600  0.948600  1.0
  H  H288  1  0.556500  0.807400  0.448600  1.0
  H  H289  1  0.596700  0.828900  0.949300  1.0
  H  H290  1  0.903300  0.671100  0.449300  1.0
  H  H291  1  0.903300  0.328900  0.050700  1.0
  H  H292  1  0.596700  0.171100  0.550700  1.0
  H  H293  1  0.403300  0.171100  0.050700  1.0
  H  H294  1  0.096700  0.328900  0.550700  1.0
  H  H295  1  0.096700  0.671100  0.949300  1.0
  H  H296  1  0.403300  0.828900  0.449300  1.0
  H  H297  1  0.112000  0.973000  0.736000  1.0
  H  H298  1  0.388000  0.527000  0.236000  1.0
  H  H299  1  0.388000  0.473000  0.264000  1.0
  H  H300  1  0.112000  0.027000  0.764000  1.0
  H  H301  1  0.888000  0.027000  0.264000  1.0
  H  H302  1  0.612000  0.473000  0.764000  1.0
  H  H303  1  0.612000  0.527000  0.736000  1.0
  H  H304  1  0.888000  0.973000  0.236000  1.0
  Rh  Rh305  1  0.848480  0.076475  0.641292  1.0
  Rh  Rh306  1  0.651520  0.423525  0.141292  1.0
  Rh  Rh307  1  0.651520  0.576475  0.358708  1.0
  Rh  Rh308  1  0.848480  0.923525  0.858708  1.0
  Rh  Rh309  1  0.151520  0.923525  0.358708  1.0
  Rh  Rh310  1  0.348480  0.576475  0.858708  1.0
  Rh  Rh311  1  0.348480  0.423525  0.641292  1.0
  Rh  Rh312  1  0.151520  0.076475  0.141292  1.0
  C  C313  1  0.979000  0.776100  0.597300  1
  C  C314  1  0.521000  0.723900  0.097300  1
  C  C315  1  0.521000  0.276100  0.402700  1
  C  C316  1  0.979000  0.223900  0.902700  1
  C  C317  1  0.021000  0.223900  0.402700  1
  C  C318  1  0.479000  0.276100  0.902700  1
  C  C319  1  0.479000  0.723900  0.597300  1
  C  C320  1  0.021000  0.776100  0.097300  1
  C  C321  1  0.946000  0.769000  0.589800  1
  C  C322  1  0.554000  0.731000  0.089800  1
  C  C323  1  0.554000  0.269000  0.410200  1
  C  C324  1  0.946000  0.231000  0.910200  1
  C  C325  1  0.054000  0.231000  0.410200  1
  C  C326  1  0.446000  0.269000  0.910200  1
  C  C327  1  0.446000  0.731000  0.589800  1
  C  C328  1  0.054000  0.769000  0.089800  1
  C  C329  1  0.053000  0.042200  0.629600  1.0
  C  C330  1  0.447000  0.457800  0.129600  1.0
  C  C331  1  0.447000  0.542200  0.370400  1.0
  C  C332  1  0.053000  0.957800  0.870400  1.0
  C  C333  1  0.947000  0.957800  0.370400  1.0
  C  C334  1  0.553000  0.542200  0.870400  1.0
  C  C335  1  0.553000  0.457800  0.629600  1.0
  C  C336  1  0.947000  0.042200  0.129600  1.0
  C  C337  1  0.143700  0.094700  0.650000  1.0
  C  C338  1  0.356300  0.405300  0.150000  1.0
  C  C339  1  0.356300  0.594700  0.350000  1.0
  C  C340  1  0.143700  0.905300  0.850000  1.0
  C  C341  1  0.856300  0.905300  0.350000  1.0
  C  C342  1  0.643700  0.594700  0.850000  1.0
  C  C343  1  0.643700  0.405300  0.650000  1.0
  C  C344  1  0.856300  0.094700  0.150000  1.0
  C  C345  1  0.096500  0.166000  0.641700  1.0
  C  C346  1  0.403500  0.334000  0.141700  1.0
  C  C347  1  0.403500  0.666000  0.358300  1.0
  C  C348  1  0.096500  0.834000  0.858300  1.0
  C  C349  1  0.903500  0.834000  0.358300  1.0
  C  C350  1  0.596500  0.666000  0.858300  1.0
  C  C351  1  0.596500  0.334000  0.641700  1.0
  C  C352  1  0.903500  0.166000  0.141700  1.0
  C  C353  1  0.945600  0.172200  0.642800  1.0
  C  C354  1  0.554400  0.327800  0.142800  1.0
  C  C355  1  0.554400  0.672200  0.357200  1.0
  C  C356  1  0.945600  0.827800  0.857200  1.0
  C  C357  1  0.054400  0.827800  0.357200  1.0
  C  C358  1  0.445600  0.672200  0.857200  1.0
  C  C359  1  0.445600  0.327800  0.642800  1.0
  C  C360  1  0.054400  0.172200  0.142800  1.0
  C  C361  1  0.864000  0.167400  0.602600  1.0
  C  C362  1  0.636000  0.332600  0.102600  1.0
  C  C363  1  0.636000  0.667400  0.397400  1.0
  C  C364  1  0.864000  0.832600  0.897400  1.0
  C  C365  1  0.136000  0.832600  0.397400  1.0
  C  C366  1  0.364000  0.667400  0.897400  1.0
  C  C367  1  0.364000  0.332600  0.602600  1.0
  C  C368  1  0.136000  0.167400  0.102600  1.0
  C  C369  1  0.909700  0.152900  0.552200  1.0
  C  C370  1  0.590300  0.347100  0.052200  1.0
  C  C371  1  0.590300  0.652900  0.447800  1.0
  C  C372  1  0.909700  0.847100  0.947800  1.0
  C  C373  1  0.090300  0.847100  0.447800  1.0
  C  C374  1  0.409700  0.652900  0.947800  1.0
  C  C375  1  0.409700  0.347100  0.552200  1.0
  C  C376  1  0.090300  0.152900  0.052200  1.0
  C  C377  1  0.014700  0.097500  0.549000  1.0
  C  C378  1  0.485300  0.402500  0.049000  1.0
  C  C379  1  0.485300  0.597500  0.451000  1.0
  C  C380  1  0.014700  0.902500  0.951000  1.0
  C  C381  1  0.985300  0.902500  0.451000  1.0
  C  C382  1  0.514700  0.597500  0.951000  1.0
  C  C383  1  0.514700  0.402500  0.549000  1.0
  C  C384  1  0.985300  0.097500  0.049000  1.0
  C  C385  1  0.992800  0.044000  0.585800  1.0
  C  C386  1  0.507200  0.456000  0.085800  1.0
  C  C387  1  0.507200  0.544000  0.414200  1.0
  C  C388  1  0.992800  0.956000  0.914200  1.0
  C  C389  1  0.007200  0.956000  0.414200  1.0
  C  C390  1  0.492800  0.544000  0.914200  1.0
  C  C391  1  0.492800  0.456000  0.585800  1.0
  C  C392  1  0.007200  0.044000  0.085800  1.0
  C  C393  1  0.724900  0.945300  0.617000  1.0
  C  C394  1  0.775100  0.554700  0.117000  1.0
  C  C395  1  0.775100  0.445300  0.383000  1.0
  C  C396  1  0.724900  0.054700  0.883000  1.0
  C  C397  1  0.275100  0.054700  0.383000  1.0
  C  C398  1  0.224900  0.445300  0.883000  1.0
  C  C399  1  0.224900  0.554700  0.617000  1.0
  C  C400  1  0.275100  0.945300  0.117000  1.0
  C  C401  1  0.686700  0.880100  0.621200  1.0
  C  C402  1  0.813300  0.619900  0.121200  1.0
  C  C403  1  0.813300  0.380100  0.378800  1.0
  C  C404  1  0.686700  0.119900  0.878800  1.0
  C  C405  1  0.313300  0.119900  0.378800  1.0
  C  C406  1  0.186700  0.380100  0.878800  1.0
  C  C407  1  0.186700  0.619900  0.621200  1.0
  C  C408  1  0.313300  0.880100  0.121200  1.0
  C  C409  1  0.712400  0.846000  0.662600  1.0
  C  C410  1  0.787600  0.654000  0.162600  1.0
  C  C411  1  0.787600  0.346000  0.337400  1.0
  C  C412  1  0.712400  0.154000  0.837400  1.0
  C  C413  1  0.287600  0.154000  0.337400  1.0
  C  C414  1  0.212400  0.346000  0.837400  1.0
  C  C415  1  0.212400  0.654000  0.662600  1.0
  C  C416  1  0.287600  0.846000  0.162600  1.0
  C  C417  1  0.778000  0.878500  0.700000  1.0
  C  C418  1  0.722000  0.621500  0.200000  1.0
  C  C419  1  0.722000  0.378500  0.300000  1.0
  C  C420  1  0.778000  0.121500  0.800000  1.0
  C  C421  1  0.222000  0.121500  0.300000  1.0
  C  C422  1  0.278000  0.378500  0.800000  1.0
  C  C423  1  0.278000  0.621500  0.700000  1.0
  C  C424  1  0.222000  0.878500  0.200000  1.0
  C  C425  1  0.814900  0.943800  0.692790  1.0
  C  C426  1  0.685100  0.556200  0.192790  1.0
  C  C427  1  0.685100  0.443800  0.307210  1.0
  C  C428  1  0.814900  0.056200  0.807210  1.0
  C  C429  1  0.185100  0.056200  0.307210  1.0
  C  C430  1  0.314900  0.443800  0.807210  1.0
  C  C431  1  0.314900  0.556200  0.692790  1.0
  C  C432  1  0.185100  0.943800  0.192790  1.0
  C  C433  1  0.804400  0.845700  0.747600  1.0
  C  C434  1  0.695600  0.654300  0.247600  1.0
  C  C435  1  0.695600  0.345700  0.252400  1.0
  C  C436  1  0.804400  0.154300  0.752400  1.0
  C  C437  1  0.195600  0.154300  0.252400  1.0
  C  C438  1  0.304400  0.345700  0.752400  1.0
  C  C439  1  0.304400  0.654300  0.747600  1.0
  C  C440  1  0.195600  0.845700  0.247600  1.0
  C  C441  1  0.562600  0.830500  0.768100  1.0
  C  C442  1  0.937400  0.669500  0.268100  1.0
  C  C443  1  0.937400  0.330500  0.231900  1.0
  C  C444  1  0.562600  0.169500  0.731900  1.0
  C  C445  1  0.437400  0.169500  0.231900  1.0
  C  C446  1  0.062600  0.330500  0.731900  1.0
  C  C447  1  0.062600  0.669500  0.768100  1.0
  C  C448  1  0.437400  0.830500  0.268100  1.0
  C  C449  1  0.480900  0.851700  0.802400  1.0
  C  C450  1  0.019100  0.648300  0.302400  1.0
  C  C451  1  0.019100  0.351700  0.197600  1.0
  C  C452  1  0.480900  0.148300  0.697600  1.0
  C  C453  1  0.519100  0.148300  0.197600  1.0
  C  C454  1  0.980900  0.351700  0.697600  1.0
  C  C455  1  0.980900  0.648300  0.802400  1.0
  C  C456  1  0.519100  0.851700  0.302400  1.0
  C  C457  1  0.688300  0.887600  0.821260  1.0
  C  C458  1  0.811700  0.612400  0.321260  1.0
  C  C459  1  0.811700  0.387600  0.178740  1.0
  C  C460  1  0.688300  0.112400  0.678740  1.0
  C  C461  1  0.311700  0.112400  0.178740  1.0
  C  C462  1  0.188300  0.387600  0.678740  1.0
  C  C463  1  0.188300  0.612400  0.821260  1.0
  C  C464  1  0.311700  0.887600  0.321260  1.0
  C  C465  1  0.499900  0.925900  0.873310  1.0
  C  C466  1  0.000100  0.574100  0.373310  1.0
  C  C467  1  0.000100  0.425900  0.126690  1.0
  C  C468  1  0.499900  0.074100  0.626690  1.0
  C  C469  1  0.500100  0.074100  0.126690  1.0
  C  C470  1  0.999900  0.425900  0.626690  1.0
  C  C471  1  0.999900  0.574100  0.873310  1.0
  C  C472  1  0.500100  0.925900  0.373310  1.0
  C  C473  1  0.450300  0.988900  0.860700  1.0
  C  C474  1  0.049700  0.511100  0.360700  1.0
  C  C475  1  0.049700  0.488900  0.139300  1.0
  C  C476  1  0.450300  0.011100  0.639300  1.0
  C  C477  1  0.549700  0.011100  0.139300  1.0
  C  C478  1  0.950300  0.488900  0.639300  1.0
  C  C479  1  0.950300  0.511100  0.860700  1.0
  C  C480  1  0.549700  0.988900  0.360700  1.0
  C  C481  1  0.384200  0.025300  0.895600  1.0
  C  C482  1  0.115800  0.474700  0.395600  1.0
  C  C483  1  0.115800  0.525300  0.104400  1.0
  C  C484  1  0.384200  0.974700  0.604400  1.0
  C  C485  1  0.615800  0.974700  0.104400  1.0
  C  C486  1  0.884200  0.525300  0.604400  1.0
  C  C487  1  0.884200  0.474700  0.895600  1.0
  C  C488  1  0.615800  0.025300  0.395600  1.0
  C  C489  1  0.362600  0.999900  0.941100  1.0
  C  C490  1  0.137400  0.500100  0.441100  1.0
  C  C491  1  0.137400  0.499900  0.058900  1.0
  C  C492  1  0.362600  0.000100  0.558900  1.0
  C  C493  1  0.637400  0.000100  0.058900  1.0
  C  C494  1  0.862600  0.499900  0.558900  1.0
  C  C495  1  0.862600  0.500100  0.941100  1.0
  C  C496  1  0.637400  0.999900  0.441100  1.0
  C  C497  1  0.408800  0.936900  0.951600  1.0
  C  C498  1  0.091200  0.563100  0.451600  1.0
  C  C499  1  0.091200  0.436900  0.048400  1.0
  C  C500  1  0.408800  0.063100  0.548400  1.0
  C  C501  1  0.591200  0.063100  0.048400  1.0
  C  C502  1  0.908800  0.436900  0.548400  1.0
  C  C503  1  0.908800  0.563100  0.951600  1.0
  C  C504  1  0.591200  0.936900  0.451600  1.0
  C  C505  1  0.476200  0.898100  0.917600  1.0
  C  C506  1  0.023800  0.601900  0.417600  1.0
  C  C507  1  0.023800  0.398100  0.082400  1.0
  C  C508  1  0.476200  0.101900  0.582400  1.0
  C  C509  1  0.523800  0.101900  0.082400  1.0
  C  C510  1  0.976200  0.398100  0.582400  1.0
  C  C511  1  0.976200  0.601900  0.917600  1.0
  C  C512  1  0.523800  0.898100  0.417600  1.0
  C  C513  1  0.460900  0.015700  0.810800  1.0
  C  C514  1  0.039100  0.484300  0.310800  1.0
  C  C515  1  0.039100  0.515700  0.189200  1.0
  C  C516  1  0.460900  0.984300  0.689200  1.0
  C  C517  1  0.539100  0.984300  0.189200  1.0
  C  C518  1  0.960900  0.515700  0.689200  1.0
  C  C519  1  0.960900  0.484300  0.810800  1.0
  C  C520  1  0.539100  0.015700  0.310800  1.0
  C  C521  1  0.286300  0.039500  0.977900  1.0
  C  C522  1  0.213700  0.460500  0.477900  1.0
  C  C523  1  0.213700  0.539500  0.022100  1.0
  C  C524  1  0.286300  0.960500  0.522100  1.0
  C  C525  1  0.713700  0.960500  0.022100  1.0
  C  C526  1  0.786300  0.539500  0.522100  1.0
  C  C527  1  0.786300  0.460500  0.977900  1.0
  C  C528  1  0.713700  0.039500  0.477900  1.0
  C  C529  1  0.515000  0.828400  0.930000  1.0
  C  C530  1  0.985000  0.671600  0.430000  1.0
  C  C531  1  0.985000  0.328400  0.070000  1.0
  C  C532  1  0.515000  0.171600  0.570000  1.0
  C  C533  1  0.485000  0.171600  0.070000  1.0
  C  C534  1  0.015000  0.328400  0.570000  1.0
  C  C535  1  0.015000  0.671600  0.930000  1.0
  C  C536  1  0.485000  0.828400  0.430000  1.0
  N  N537  1  0.789100  0.977400  0.652100  1.0
  N  N538  1  0.710900  0.522600  0.152100  1.0
  N  N539  1  0.710900  0.477400  0.347900  1.0
  N  N540  1  0.789100  0.022600  0.847900  1.0
  N  N541  1  0.210900  0.022600  0.347900  1.0
  N  N542  1  0.289100  0.477400  0.847900  1.0
  N  N543  1  0.289100  0.522600  0.652100  1.0
  N  N544  1  0.210900  0.977400  0.152100  1.0
  N  N545  1  0.689600  0.852800  0.779990  1.0
  N  N546  1  0.810400  0.647200  0.279990  1.0
  N  N547  1  0.810400  0.352800  0.220010  1.0
  N  N548  1  0.689600  0.147200  0.720010  1.0
  N  N549  1  0.310400  0.147200  0.220010  1.0
  N  N550  1  0.189600  0.352800  0.720010  1.0
  N  N551  1  0.189600  0.647200  0.779990  1.0
  N  N552  1  0.310400  0.852800  0.279990  1.0
  N  N553  1  0.558300  0.886700  0.834910  1.0
  N  N554  1  0.941700  0.613300  0.334910  1.0
  N  N555  1  0.941700  0.386700  0.165090  1.0
  N  N556  1  0.558300  0.113300  0.665090  1.0
  N  N557  1  0.441700  0.113300  0.165090  1.0
  N  N558  1  0.058300  0.386700  0.665090  1.0
  N  N559  1  0.058300  0.613300  0.834910  1.0
  N  N560  1  0.441700  0.886700  0.334910  1.0
  Cl  Cl561  1  0.003100  0.857300  0.579210  1
  Cl  Cl562  1  0.496900  0.642700  0.079210  1
  Cl  Cl563  1  0.496900  0.357300  0.420790  1
  Cl  Cl564  1  0.003100  0.142700  0.920790  1
  Cl  Cl565  1  0.996900  0.142700  0.420790  1
  Cl  Cl566  1  0.503100  0.357300  0.920790  1
  Cl  Cl567  1  0.503100  0.642700  0.579210  1
  Cl  Cl568  1  0.996900  0.857300  0.079210  1
  Cl  Cl569  1  0.931200  0.722600  0.549300  1
  Cl  Cl570  1  0.568800  0.777400  0.049300  1
  Cl  Cl571  1  0.568800  0.222600  0.450700  1
  Cl  Cl572  1  0.931200  0.277400  0.950700  1
  Cl  Cl573  1  0.068800  0.277400  0.450700  1
  Cl  Cl574  1  0.431200  0.222600  0.950700  1
  Cl  Cl575  1  0.431200  0.777400  0.549300  1
  Cl  Cl576  1  0.068800  0.722600  0.049300  1
  Cl  Cl577  1  0.102100  0.772800  0.564400  1
  Cl  Cl578  1  0.397900  0.727200  0.064400  1
  Cl  Cl579  1  0.397900  0.272800  0.435600  1
  Cl  Cl580  1  0.102100  0.227200  0.935600  1
  Cl  Cl581  1  0.897900  0.227200  0.435600  1
  Cl  Cl582  1  0.602100  0.272800  0.935600  1
  Cl  Cl583  1  0.602100  0.727200  0.564400  1
  Cl  Cl584  1  0.897900  0.772800  0.064400  1
  Cl  Cl585  1  0.822500  0.754300  0.544800  1
  Cl  Cl586  1  0.677500  0.745700  0.044800  1
  Cl  Cl587  1  0.677500  0.254300  0.455200  1
  Cl  Cl588  1  0.822500  0.245700  0.955200  1
  Cl  Cl589  1  0.177500  0.245700  0.455200  1
  Cl  Cl590  1  0.322500  0.254300  0.955200  1
  Cl  Cl591  1  0.322500  0.745700  0.544800  1
  Cl  Cl592  1  0.177500  0.754300  0.044800  1
  O  O593  1  0.061100  1.000000  0.750000  1
  O  O594  1  0.438900  0.500000  0.250000  1
  O  O595  1  0.938900  0.000000  0.250000  1
  O  O596  1  0.561100  0.500000  0.750000  1
  F  F597  1  0.671000  0.597100  0.693500  1
  F  F598  1  0.829000  0.902900  0.193500  1
  F  F599  1  0.829000  0.097100  0.306500  1
  F  F600  1  0.671000  0.402900  0.806500  1
  F  F601  1  0.329000  0.402900  0.306500  1
  F  F602  1  0.171000  0.097100  0.806500  1
  F  F603  1  0.171000  0.902900  0.693500  1
  F  F604  1  0.329000  0.597100  0.193500  1
  F  F605  1  0.792600  0.686300  0.675000  1
  F  F606  1  0.707400  0.813700  0.175000  1
  F  F607  1  0.707400  0.186300  0.325000  1
  F  F608  1  0.792600  0.313700  0.825000  1
  F  F609  1  0.207400  0.313700  0.325000  1
  F  F610  1  0.292600  0.186300  0.825000  1
  F  F611  1  0.292600  0.813700  0.675000  1
  F  F612  1  0.207400  0.686300  0.175000  1
  F  F613  1  0.711400  0.677000  0.748800  1
  F  F614  1  0.788600  0.823000  0.248800  1
  F  F615  1  0.788600  0.177000  0.251200  1
  F  F616  1  0.711400  0.323000  0.751200  1
  F  F617  1  0.288600  0.323000  0.251200  1
  F  F618  1  0.211400  0.177000  0.751200  1
  F  F619  1  0.211400  0.823000  0.748800  1
  F  F620  1  0.288600  0.677000  0.248800  1
  F  F621  1  0.572900  0.697500  0.688800  1
  F  F622  1  0.927100  0.802500  0.188800  1
  F  F623  1  0.927100  0.197500  0.311200  1
  F  F624  1  0.572900  0.302500  0.811200  1
  F  F625  1  0.427100  0.302500  0.311200  1
  F  F626  1  0.072900  0.197500  0.811200  1
  F  F627  1  0.072900  0.802500  0.688800  1
  F  F628  1  0.427100  0.697500  0.188800  1
  F  F629  1  0.632000  0.598900  0.713500  1
  F  F630  1  0.868000  0.901100  0.213500  1
  F  F631  1  0.868000  0.098900  0.286500  1
  F  F632  1  0.632000  0.401100  0.786500  1
  F  F633  1  0.368000  0.401100  0.286500  1
  F  F634  1  0.132000  0.098900  0.786500  1
  F  F635  1  0.132000  0.901100  0.713500  1
  F  F636  1  0.368000  0.598900  0.213500  1
  F  F637  1  0.752000  0.664000  0.663300  1
  F  F638  1  0.748000  0.836000  0.163300  1
  F  F639  1  0.748000  0.164000  0.336700  1
  F  F640  1  0.752000  0.336000  0.836700  1
  F  F641  1  0.248000  0.336000  0.336700  1
  F  F642  1  0.252000  0.164000  0.836700  1
  F  F643  1  0.252000  0.836000  0.663300  1
  F  F644  1  0.248000  0.664000  0.163300  1
  F  F645  1  0.746000  0.688500  0.740600  1
  F  F646  1  0.754000  0.811500  0.240600  1
  F  F647  1  0.754000  0.188500  0.259400  1
  F  F648  1  0.746000  0.311500  0.759400  1
  F  F649  1  0.254000  0.311500  0.259400  1
  F  F650  1  0.246000  0.188500  0.759400  1
  F  F651  1  0.246000  0.811500  0.740600  1
  F  F652  1  0.254000  0.688500  0.240600  1
  F  F653  1  0.564000  0.702700  0.697400  1
  F  F654  1  0.936000  0.797300  0.197400  1
  F  F655  1  0.936000  0.202700  0.302600  1
  F  F656  1  0.564000  0.297300  0.802600  1
  F  F657  1  0.436000  0.297300  0.302600  1
  F  F658  1  0.064000  0.202700  0.802600  1
  F  F659  1  0.064000  0.797300  0.697400  1
  F  F660  1  0.436000  0.702700  0.197400  1
