# generated using pymatgen
data_Si3H48Pd3C39N6(Cl3O)2
_symmetry_space_group_name_H-M   'P 1'
_cell_length_a   10.88320000
_cell_length_b   17.22580000
_cell_length_c   26.70980000
_cell_angle_alpha   90.00000000
_cell_angle_beta   99.14100000
_cell_angle_gamma   90.00000000
_symmetry_Int_Tables_number   1
_chemical_formula_structural   Si3H48Pd3C39N6(Cl3O)2
_chemical_formula_sum   'Si12 H192 Pd12 C156 N24 Cl24 O8'
_cell_volume   4943.74373348
_cell_formula_units_Z   4
loop_
 _symmetry_equiv_pos_site_id
 _symmetry_equiv_pos_as_xyz
  1  'x, y, z'
loop_
 _atom_site_type_symbol
 _atom_site_label
 _atom_site_symmetry_multiplicity
 _atom_site_fract_x
 _atom_site_fract_y
 _atom_site_fract_z
 _atom_site_occupancy
  Si  Si1  1  0.523520  0.258430  0.440090  1
  Si  Si2  1  0.976480  0.758430  0.059910  1
  Si  Si3  1  0.476480  0.741570  0.559910  1
  Si  Si4  1  0.023520  0.241570  0.940090  1
  Si  Si5  1  0.558370  0.621350  0.179910  1
  Si  Si6  1  0.941630  0.121350  0.320090  1
  Si  Si7  1  0.441630  0.378650  0.820090  1
  Si  Si8  1  0.058370  0.878650  0.679910  1
  Si  Si9  1  0.968430  0.390570  0.165270  1.0
  Si  Si10  1  0.531570  0.890570  0.334730  1.0
  Si  Si11  1  0.031570  0.609430  0.834730  1.0
  Si  Si12  1  0.468430  0.109430  0.665270  1.0
  H  H13  1  0.939600  0.452600  0.471400  1
  H  H14  1  0.560400  0.952600  0.028600  1
  H  H15  1  0.060400  0.547400  0.528600  1
  H  H16  1  0.439600  0.047400  0.971400  1
  H  H17  1  0.901600  0.374200  0.535700  1
  H  H18  1  0.598400  0.874200  0.964300  1
  H  H19  1  0.098400  0.625800  0.464300  1
  H  H20  1  0.401600  0.125800  0.035700  1
  H  H21  1  0.726700  0.295100  0.525200  1
  H  H22  1  0.773300  0.795100  0.974800  1
  H  H23  1  0.273300  0.704900  0.474800  1
  H  H24  1  0.226700  0.204900  0.025200  1
  H  H25  1  0.644000  0.373400  0.384400  1
  H  H26  1  0.856000  0.873400  0.115600  1
  H  H27  1  0.356000  0.626600  0.615600  1
  H  H28  1  0.144000  0.126600  0.884400  1
  H  H29  1  0.470800  0.163000  0.377300  1
  H  H30  1  0.029200  0.663000  0.122700  1
  H  H31  1  0.529200  0.837000  0.622700  1
  H  H32  1  0.970800  0.337000  0.877300  1
  H  H33  1  0.616000  0.167600  0.391800  1
  H  H34  1  0.884000  0.667600  0.108200  1
  H  H35  1  0.384000  0.832400  0.608200  1
  H  H36  1  0.116000  0.332400  0.891800  1
  H  H37  1  0.544300  0.230100  0.355700  1
  H  H38  1  0.955700  0.730100  0.144300  1
  H  H39  1  0.455700  0.769900  0.644300  1
  H  H40  1  0.044300  0.269900  0.855700  1
  H  H41  1  0.445500  0.166600  0.492400  1
  H  H42  1  0.054500  0.666600  0.007600  1
  H  H43  1  0.554500  0.833400  0.507600  1
  H  H44  1  0.945500  0.333400  0.992400  1
  H  H45  1  0.507100  0.235400  0.525700  1
  H  H46  1  0.992900  0.735400  0.974300  1
  H  H47  1  0.492900  0.764600  0.474300  1
  H  H48  1  0.007100  0.264600  0.025700  1
  H  H49  1  0.590700  0.171100  0.506700  1
  H  H50  1  0.909300  0.671100  0.993300  1
  H  H51  1  0.409300  0.828900  0.493300  1
  H  H52  1  0.090700  0.328900  0.006700  1
  H  H53  1  0.423700  0.375300  0.365100  1
  H  H54  1  0.076300  0.875300  0.134900  1
  H  H55  1  0.576300  0.624700  0.634900  1
  H  H56  1  0.923700  0.124700  0.865100  1
  H  H57  1  0.285200  0.276000  0.478000  1
  H  H58  1  0.214800  0.776000  0.022000  1
  H  H59  1  0.714800  0.724000  0.522000  1
  H  H60  1  0.785200  0.224000  0.978000  1
  H  H61  1  0.102500  0.343200  0.452000  1
  H  H62  1  0.397500  0.843200  0.048000  1
  H  H63  1  0.897500  0.656800  0.548000  1
  H  H64  1  0.602500  0.156800  0.952000  1
  H  H65  1  0.088000  0.429500  0.385700  1
  H  H66  1  0.412000  0.929500  0.114300  1
  H  H67  1  0.912000  0.570500  0.614300  1
  H  H68  1  0.588000  0.070500  0.885700  1
  H  H69  1  0.126700  0.636500  0.266900  1
  H  H70  1  0.373300  0.136500  0.233100  1
  H  H71  1  0.873300  0.363500  0.733100  1
  H  H72  1  0.626700  0.863500  0.766900  1
  H  H73  1  0.167000  0.733300  0.214400  1
  H  H74  1  0.333000  0.233300  0.285600  1
  H  H75  1  0.833000  0.266700  0.785600  1
  H  H76  1  0.667000  0.766700  0.714400  1
  H  H77  1  0.343200  0.730000  0.176400  1
  H  H78  1  0.156800  0.230000  0.323600  1
  H  H79  1  0.656800  0.270000  0.823600  1
  H  H80  1  0.843200  0.770000  0.676400  1
  H  H81  1  0.435400  0.531700  0.247900  1
  H  H82  1  0.064600  0.031700  0.252100  1
  H  H83  1  0.564600  0.468300  0.752100  1
  H  H84  1  0.935400  0.968300  0.747900  1
  H  H85  1  0.496600  0.517000  0.124700  1
  H  H86  1  0.003400  0.017000  0.375300  1
  H  H87  1  0.503400  0.483000  0.875300  1
  H  H88  1  0.996600  0.983000  0.624700  1
  H  H89  1  0.560800  0.484700  0.177300  1
  H  H90  1  0.939200  0.984700  0.322700  1
  H  H91  1  0.439200  0.515300  0.822700  1
  H  H92  1  0.060800  0.015300  0.677300  1
  H  H93  1  0.642000  0.517800  0.138700  1
  H  H94  1  0.858000  0.017800  0.361300  1
  H  H95  1  0.358000  0.482200  0.861300  1
  H  H96  1  0.142000  0.982200  0.638700  1
  H  H97  1  0.496500  0.695100  0.106400  1
  H  H98  1  0.003500  0.195100  0.393600  1
  H  H99  1  0.503500  0.304900  0.893600  1
  H  H100  1  0.996500  0.804900  0.606400  1
  H  H101  1  0.642000  0.696000  0.120000  1
  H  H102  1  0.858000  0.196000  0.380000  1
  H  H103  1  0.358000  0.304000  0.880000  1
  H  H104  1  0.142000  0.804000  0.620000  1
  H  H105  1  0.561800  0.749200  0.149800  1
  H  H106  1  0.938200  0.249200  0.350200  1
  H  H107  1  0.438200  0.250800  0.850200  1
  H  H108  1  0.061800  0.750800  0.649800  1
  H  H109  1  0.659900  0.535800  0.271000  1
  H  H110  1  0.840100  0.035800  0.229000  1
  H  H111  1  0.340100  0.464200  0.729000  1
  H  H112  1  0.159900  0.964200  0.771000  1
  H  H113  1  0.770400  0.731200  0.212700  1
  H  H114  1  0.729600  0.231200  0.287300  1
  H  H115  1  0.229600  0.268800  0.787300  1
  H  H116  1  0.270400  0.768800  0.712700  1
  H  H117  1  0.936200  0.734300  0.277900  1
  H  H118  1  0.563800  0.234300  0.222100  1
  H  H119  1  0.063800  0.265700  0.722100  1
  H  H120  1  0.436200  0.765700  0.777900  1
  H  H121  1  0.954100  0.641300  0.340900  1
  H  H122  1  0.545900  0.141300  0.159100  1
  H  H123  1  0.045900  0.358700  0.659100  1
  H  H124  1  0.454100  0.858700  0.840900  1
  H  H125  1  0.515500  0.491400  0.447600  1
  H  H126  1  0.984500  0.991400  0.052400  1
  H  H127  1  0.484500  0.508600  0.552400  1
  H  H128  1  0.015500  0.008600  0.947600  1
  H  H129  1  0.439200  0.567700  0.451600  1
  H  H130  1  0.060800  0.067700  0.048400  1
  H  H131  1  0.560800  0.432300  0.548400  1
  H  H132  1  0.939200  0.932300  0.951600  1
  H  H133  1  0.584700  0.568900  0.465200  1
  H  H134  1  0.915300  0.068900  0.034800  1
  H  H135  1  0.415300  0.431100  0.534800  1
  H  H136  1  0.084700  0.931100  0.965200  1
  H  H137  1  0.529800  0.653000  0.340000  1
  H  H138  1  0.970200  0.153000  0.160000  1
  H  H139  1  0.470200  0.347000  0.660000  1
  H  H140  1  0.029800  0.847000  0.840000  1
  H  H141  1  0.592500  0.674800  0.395200  1
  H  H142  1  0.907500  0.174800  0.104800  1
  H  H143  1  0.407500  0.325200  0.604800  1
  H  H144  1  0.092500  0.825200  0.895200  1
  H  H145  1  0.447100  0.672400  0.381400  1
  H  H146  1  0.052900  0.172400  0.118600  1
  H  H147  1  0.552900  0.327600  0.618600  1
  H  H148  1  0.947100  0.827600  0.881400  1
  H  H149  1  0.396300  0.355400  0.077800  1.0
  H  H150  1  0.103700  0.855400  0.422200  1.0
  H  H151  1  0.603700  0.644600  0.922200  1.0
  H  H152  1  0.896300  0.144600  0.577800  1.0
  H  H153  1  0.358900  0.267100  0.136800  1.0
  H  H154  1  0.141100  0.767100  0.363200  1.0
  H  H155  1  0.641100  0.732900  0.863200  1.0
  H  H156  1  0.858900  0.232900  0.636800  1.0
  H  H157  1  0.176500  0.274400  0.170900  1.0
  H  H158  1  0.323500  0.774400  0.329100  1.0
  H  H159  1  0.823500  0.725600  0.829100  1.0
  H  H160  1  0.676500  0.225600  0.670900  1.0
  H  H161  1  0.099100  0.471400  0.094900  1.0
  H  H162  1  0.400900  0.971400  0.405100  1.0
  H  H163  1  0.900900  0.528600  0.905100  1.0
  H  H164  1  0.599100  0.028600  0.594900  1.0
  H  H165  1  0.892800  0.499100  0.204300  1.0
  H  H166  1  0.607200  0.999100  0.295700  1.0
  H  H167  1  0.107200  0.500900  0.795700  1.0
  H  H168  1  0.392800  0.000900  0.704300  1.0
  H  H169  1  0.969800  0.527100  0.162800  1.0
  H  H170  1  0.530200  0.027100  0.337200  1.0
  H  H171  1  0.030200  0.472900  0.837200  1.0
  H  H172  1  0.469800  0.972900  0.662800  1.0
  H  H173  1  0.038600  0.498700  0.215700  1.0
  H  H174  1  0.461400  0.998700  0.284300  1.0
  H  H175  1  0.961400  0.501300  0.784300  1.0
  H  H176  1  0.538600  0.001300  0.715700  1.0
  H  H177  1  0.883200  0.325600  0.229000  1.0
  H  H178  1  0.616800  0.825600  0.271000  1.0
  H  H179  1  0.116800  0.674400  0.771000  1.0
  H  H180  1  0.383200  0.174400  0.729000  1.0
  H  H181  1  0.028800  0.321900  0.241100  1.0
  H  H182  1  0.471200  0.821900  0.258900  1.0
  H  H183  1  0.971200  0.678100  0.758900  1.0
  H  H184  1  0.528800  0.178100  0.741100  1.0
  H  H185  1  0.956200  0.266300  0.200200  1.0
  H  H186  1  0.543800  0.766300  0.299800  1.0
  H  H187  1  0.043800  0.733700  0.799800  1.0
  H  H188  1  0.456200  0.233700  0.700200  1.0
  H  H189  1  0.865300  0.474400  0.073900  1.0
  H  H190  1  0.634700  0.974400  0.426100  1.0
  H  H191  1  0.134700  0.525600  0.926100  1.0
  H  H192  1  0.365300  0.025600  0.573900  1.0
  H  H193  1  0.758400  0.278900  0.133300  1.0
  H  H194  1  0.741600  0.778900  0.366700  1.0
  H  H195  1  0.241600  0.721100  0.866700  1.0
  H  H196  1  0.258400  0.221100  0.633300  1.0
  H  H197  1  0.599100  0.269400  0.065300  1.0
  H  H198  1  0.900900  0.769400  0.434700  1.0
  H  H199  1  0.400900  0.730600  0.934700  1.0
  H  H200  1  0.099100  0.230600  0.565300  1.0
  H  H201  1  0.581400  0.361400  0.001900  1.0
  H  H202  1  0.918600  0.861400  0.498100  1.0
  H  H203  1  0.418600  0.638600  0.998100  1.0
  H  H204  1  0.081400  0.138600  0.501900  1.0
  Pd  Pd205  1  0.812410  0.500180  0.367010  1
  Pd  Pd206  1  0.687590  0.000180  0.132990  1
  Pd  Pd207  1  0.187590  0.499820  0.632990  1
  Pd  Pd208  1  0.312410  0.999820  0.867010  1
  Pd  Pd209  1  0.256400  0.492370  0.315430  1
  Pd  Pd210  1  0.243600  0.992370  0.184570  1
  Pd  Pd211  1  0.743600  0.507630  0.684570  1
  Pd  Pd212  1  0.756400  0.007630  0.815430  1
  Pd  Pd213  1  0.275110  0.498630  0.025490  1.0
  Pd  Pd214  1  0.224890  0.998630  0.474510  1.0
  Pd  Pd215  1  0.724890  0.501370  0.974510  1.0
  Pd  Pd216  1  0.775110  0.001370  0.525490  1.0
  C  C217  1  0.869700  0.420700  0.466500  1
  C  C218  1  0.630300  0.920700  0.033500  1
  C  C219  1  0.130300  0.579300  0.533500  1
  C  C220  1  0.369700  0.079300  0.966500  1
  C  C221  1  0.847400  0.374200  0.505100  1
  C  C222  1  0.652600  0.874200  0.994900  1
  C  C223  1  0.152600  0.625800  0.494900  1
  C  C224  1  0.347400  0.125800  0.005100  1
  C  C225  1  0.743000  0.326300  0.498600  1
  C  C226  1  0.757000  0.826300  0.001400  1
  C  C227  1  0.257000  0.673700  0.501400  1
  C  C228  1  0.243000  0.173700  0.998600  1
  C  C229  1  0.663300  0.325100  0.452700  1
  C  C230  1  0.836700  0.825100  0.047300  1
  C  C231  1  0.336700  0.674900  0.547300  1
  C  C232  1  0.163300  0.174900  0.952700  1
  C  C233  1  0.694900  0.373800  0.415800  1
  C  C234  1  0.805100  0.873800  0.084200  1
  C  C235  1  0.305100  0.626200  0.584200  1
  C  C236  1  0.194900  0.126200  0.915800  1
  C  C237  1  0.540700  0.197400  0.384500  1
  C  C238  1  0.959300  0.697400  0.115500  1
  C  C239  1  0.459300  0.802600  0.615500  1
  C  C240  1  0.040700  0.302600  0.884500  1
  C  C241  1  0.515800  0.200900  0.498300  1
  C  C242  1  0.984200  0.700900  0.001700  1
  C  C243  1  0.484200  0.799100  0.501700  1
  C  C244  1  0.015800  0.299100  0.998300  1
  C  C245  1  0.359200  0.369400  0.383900  1
  C  C246  1  0.140800  0.869400  0.116100  1
  C  C247  1  0.640800  0.630600  0.616100  1
  C  C248  1  0.859200  0.130600  0.883900  1
  C  C249  1  0.377100  0.317700  0.423600  1
  C  C250  1  0.122900  0.817700  0.076400  1
  C  C251  1  0.622900  0.682300  0.576400  1
  C  C252  1  0.877100  0.182300  0.923600  1
  C  C253  1  0.278400  0.309200  0.450200  1
  C  C254  1  0.221600  0.809200  0.049800  1
  C  C255  1  0.721600  0.690800  0.549800  1
  C  C256  1  0.778400  0.190800  0.950200  1
  C  C257  1  0.170000  0.350200  0.435100  1
  C  C258  1  0.330000  0.850200  0.064900  1
  C  C259  1  0.830000  0.649800  0.564900  1
  C  C260  1  0.670000  0.149800  0.935100  1
  C  C261  1  0.161200  0.401700  0.395200  1
  C  C262  1  0.338800  0.901700  0.104800  1
  C  C263  1  0.838800  0.598300  0.604800  1
  C  C264  1  0.661200  0.098300  0.895200  1
  C  C265  1  0.199000  0.634400  0.252500  1
  C  C266  1  0.301000  0.134400  0.247500  1
  C  C267  1  0.801000  0.365600  0.747500  1
  C  C268  1  0.699000  0.865600  0.752500  1
  C  C269  1  0.222600  0.692200  0.221000  1
  C  C270  1  0.277400  0.192200  0.279000  1
  C  C271  1  0.777400  0.307800  0.779000  1
  C  C272  1  0.722600  0.807800  0.721000  1
  C  C273  1  0.328400  0.690600  0.198500  1
  C  C274  1  0.171600  0.190600  0.301500  1
  C  C275  1  0.671600  0.309400  0.801500  1
  C  C276  1  0.828400  0.809400  0.698500  1
  C  C277  1  0.412200  0.630400  0.209100  1
  C  C278  1  0.087800  0.130400  0.290900  1
  C  C279  1  0.587800  0.369600  0.790900  1
  C  C280  1  0.912200  0.869600  0.709100  1
  C  C281  1  0.381300  0.573600  0.241100  1
  C  C282  1  0.118700  0.073600  0.258900  1
  C  C283  1  0.618700  0.426400  0.758900  1
  C  C284  1  0.881300  0.926400  0.741100  1
  C  C285  1  0.565300  0.523400  0.151700  1
  C  C286  1  0.934700  0.023400  0.348300  1
  C  C287  1  0.434700  0.476600  0.848300  1
  C  C288  1  0.065300  0.976600  0.651700  1
  C  C289  1  0.565500  0.699800  0.133500  1
  C  C290  1  0.934500  0.199800  0.366500  1
  C  C291  1  0.434500  0.300200  0.866500  1
  C  C292  1  0.065500  0.800200  0.633500  1
  C  C293  1  0.715700  0.576900  0.272000  1
  C  C294  1  0.784300  0.076900  0.228000  1
  C  C295  1  0.284300  0.423100  0.728000  1
  C  C296  1  0.215700  0.923100  0.772000  1
  C  C297  1  0.694600  0.631500  0.232500  1
  C  C298  1  0.805400  0.131500  0.267500  1
  C  C299  1  0.305400  0.368500  0.767500  1
  C  C300  1  0.194600  0.868500  0.732500  1
  C  C301  1  0.779700  0.691800  0.236900  1
  C  C302  1  0.720300  0.191800  0.263100  1
  C  C303  1  0.220300  0.308200  0.763100  1
  C  C304  1  0.279700  0.808200  0.736900  1
  C  C305  1  0.877900  0.694600  0.276300  1
  C  C306  1  0.622100  0.194600  0.223700  1
  C  C307  1  0.122100  0.305400  0.723700  1
  C  C308  1  0.377900  0.805400  0.776300  1
  C  C309  1  0.889500  0.638100  0.313600  1
  C  C310  1  0.610500  0.138100  0.186400  1
  C  C311  1  0.110500  0.361900  0.686400  1
  C  C312  1  0.389500  0.861900  0.813600  1
  C  C313  1  0.515100  0.546700  0.443300  1
  C  C314  1  0.984900  0.046700  0.056700  1
  C  C315  1  0.484900  0.453300  0.556700  1
  C  C316  1  0.015100  0.953300  0.943300  1
  C  C317  1  0.524200  0.565400  0.390000  1
  C  C318  1  0.975800  0.065400  0.110000  1
  C  C319  1  0.475800  0.434600  0.610000  1
  C  C320  1  0.024200  0.934600  0.890000  1
  C  C321  1  0.523300  0.648800  0.375300  1
  C  C322  1  0.976700  0.148800  0.124700  1
  C  C323  1  0.476700  0.351200  0.624700  1
  C  C324  1  0.023300  0.851200  0.875300  1
  C  C325  1  0.326300  0.361400  0.093400  1.0
  C  C326  1  0.173700  0.861400  0.406600  1.0
  C  C327  1  0.673700  0.638600  0.906600  1.0
  C  C328  1  0.826300  0.138600  0.593400  1.0
  C  C329  1  0.303000  0.307400  0.127700  1.0
  C  C330  1  0.197000  0.807400  0.372300  1.0
  C  C331  1  0.697000  0.692600  0.872300  1.0
  C  C332  1  0.803000  0.192600  0.627700  1.0
  C  C333  1  0.195300  0.312700  0.148800  1.0
  C  C334  1  0.304700  0.812700  0.351200  1.0
  C  C335  1  0.804700  0.687300  0.851200  1.0
  C  C336  1  0.695300  0.187300  0.648800  1.0
  C  C337  1  0.115100  0.375200  0.137200  1.0
  C  C338  1  0.384900  0.875200  0.362800  1.0
  C  C339  1  0.884900  0.624800  0.862800  1.0
  C  C340  1  0.615100  0.124800  0.637200  1.0
  C  C341  1  0.150300  0.428600  0.103000  1.0
  C  C342  1  0.349700  0.928600  0.397000  1.0
  C  C343  1  0.849700  0.571400  0.897000  1.0
  C  C344  1  0.650300  0.071400  0.603000  1.0
  C  C345  1  0.967200  0.491000  0.190000  1.0
  C  C346  1  0.532800  0.991000  0.310000  1.0
  C  C347  1  0.032800  0.509000  0.810000  1.0
  C  C348  1  0.467200  0.009000  0.690000  1.0
  C  C349  1  0.957900  0.317300  0.214800  1.0
  C  C350  1  0.542100  0.817300  0.285200  1.0
  C  C351  1  0.042100  0.682700  0.785200  1.0
  C  C352  1  0.457900  0.182700  0.714800  1.0
  C  C353  1  0.813100  0.431500  0.072400  1.0
  C  C354  1  0.686900  0.931500  0.427600  1.0
  C  C355  1  0.186900  0.568500  0.927600  1.0
  C  C356  1  0.313100  0.068500  0.572400  1.0
  C  C357  1  0.834700  0.378800  0.112000  1.0
  C  C358  1  0.665300  0.878800  0.388000  1.0
  C  C359  1  0.165300  0.621200  0.888000  1.0
  C  C360  1  0.334700  0.121200  0.612000  1.0
  C  C361  1  0.750200  0.316600  0.108000  1.0
  C  C362  1  0.749800  0.816600  0.392000  1.0
  C  C363  1  0.249800  0.683400  0.892000  1.0
  C  C364  1  0.250200  0.183400  0.608000  1.0
  C  C365  1  0.655200  0.310400  0.067300  1.0
  C  C366  1  0.844800  0.810400  0.432700  1.0
  C  C367  1  0.344800  0.689600  0.932700  1.0
  C  C368  1  0.155200  0.189600  0.567300  1.0
  C  C369  1  0.644600  0.365700  0.029600  1.0
  C  C370  1  0.855400  0.865700  0.470400  1.0
  C  C371  1  0.355400  0.634300  0.970400  1.0
  C  C372  1  0.144600  0.134300  0.529600  1.0
  N  N373  1  0.794200  0.422200  0.421900  1
  N  N374  1  0.705800  0.922200  0.078100  1
  N  N375  1  0.205800  0.577800  0.578100  1
  N  N376  1  0.294200  0.077800  0.921900  1
  N  N377  1  0.256500  0.412100  0.370000  1
  N  N378  1  0.243500  0.912100  0.130000  1
  N  N379  1  0.743500  0.587900  0.630000  1
  N  N380  1  0.756500  0.087900  0.870000  1
  N  N381  1  0.277300  0.574100  0.263500  1
  N  N382  1  0.222700  0.074100  0.236500  1
  N  N383  1  0.722700  0.425900  0.736500  1
  N  N384  1  0.777300  0.925900  0.763500  1
  N  N385  1  0.809600  0.579200  0.311000  1
  N  N386  1  0.690400  0.079200  0.189000  1
  N  N387  1  0.190400  0.420800  0.689000  1
  N  N388  1  0.309600  0.920800  0.811000  1
  N  N389  1  0.252300  0.423100  0.081000  1.0
  N  N390  1  0.247700  0.923100  0.419000  1.0
  N  N391  1  0.747700  0.576900  0.919000  1.0
  N  N392  1  0.752300  0.076900  0.581000  1.0
  N  N393  1  0.724000  0.425700  0.032300  1.0
  N  N394  1  0.776000  0.925700  0.467700  1.0
  N  N395  1  0.276000  0.574300  0.967700  1.0
  N  N396  1  0.224000  0.074300  0.532300  1.0
  Cl  Cl397  1  0.802200  0.401660  0.308970  1
  Cl  Cl398  1  0.697800  0.901660  0.191030  1
  Cl  Cl399  1  0.197800  0.598340  0.691030  1
  Cl  Cl400  1  0.302200  0.098340  0.808970  1
  Cl  Cl401  1  0.839590  0.598510  0.426570  1
  Cl  Cl402  1  0.660410  0.098510  0.073430  1
  Cl  Cl403  1  0.160410  0.401490  0.573430  1
  Cl  Cl404  1  0.339590  0.901490  0.926570  1
  Cl  Cl405  1  0.203220  0.586540  0.369510  1
  Cl  Cl406  1  0.296780  0.086540  0.130490  1
  Cl  Cl407  1  0.796780  0.413460  0.630490  1
  Cl  Cl408  1  0.703220  0.913460  0.869510  1
  Cl  Cl409  1  0.296100  0.397210  0.260420  1
  Cl  Cl410  1  0.203900  0.897210  0.239580  1
  Cl  Cl411  1  0.703900  0.602790  0.739580  1
  Cl  Cl412  1  0.796100  0.102790  0.760420  1
  Cl  Cl413  1  0.310300  0.398400  0.973110  1.0
  Cl  Cl414  1  0.189700  0.898400  0.526890  1.0
  Cl  Cl415  1  0.689700  0.601600  0.026890  1.0
  Cl  Cl416  1  0.810300  0.101600  0.473110  1.0
  Cl  Cl417  1  0.251200  0.600340  0.078360  1.0
  Cl  Cl418  1  0.248800  0.100340  0.421640  1.0
  Cl  Cl419  1  0.748800  0.399660  0.921640  1.0
  Cl  Cl420  1  0.751200  0.899660  0.578360  1.0
  O  O421  1  0.531600  0.515500  0.359300  1
  O  O422  1  0.968400  0.015500  0.140700  1
  O  O423  1  0.468400  0.484500  0.640700  1
  O  O424  1  0.031600  0.984500  0.859300  1
  O  O425  1  0.953000  0.846100  0.227800  1
  O  O426  1  0.547000  0.346100  0.272200  1
  O  O427  1  0.047000  0.153900  0.772200  1
  O  O428  1  0.453000  0.653900  0.727800  1
