# generated using pymatgen
data_H34Pd2C29(N6O7)2
_symmetry_space_group_name_H-M   'P 1'
_cell_length_a   12.94200000
_cell_length_b   13.22100000
_cell_length_c   23.32620847
_cell_angle_alpha   89.70424203
_cell_angle_beta   90.00000000
_cell_angle_gamma   90.00000000
_symmetry_Int_Tables_number   1
_chemical_formula_structural   H34Pd2C29(N6O7)2
_chemical_formula_sum   'H136 Pd8 C116 N48 O56'
_cell_volume   3991.20529672
_cell_formula_units_Z   4
loop_
 _symmetry_equiv_pos_site_id
 _symmetry_equiv_pos_as_xyz
  1  'x, y, z'
loop_
 _atom_site_type_symbol
 _atom_site_label
 _atom_site_symmetry_multiplicity
 _atom_site_fract_x
 _atom_site_fract_y
 _atom_site_fract_z
 _atom_site_occupancy
  H  H1  1  0.236200  0.426300  0.962500  1.0
  H  H2  1  0.736200  0.573700  0.537500  1.0
  H  H3  1  0.763800  0.573700  0.037500  1.0
  H  H4  1  0.263800  0.426300  0.462500  1.0
  H  H5  1  0.360900  0.369300  0.952700  1.0
  H  H6  1  0.860900  0.630700  0.547300  1.0
  H  H7  1  0.639100  0.630700  0.047300  1.0
  H  H8  1  0.139100  0.369300  0.452700  1.0
  H  H9  1  0.399000  0.489700  0.013800  1.0
  H  H10  1  0.899000  0.510300  0.486200  1.0
  H  H11  1  0.601000  0.510300  0.986200  1.0
  H  H12  1  0.101000  0.489700  0.513800  1.0
  H  H13  1  0.296000  0.439200  0.056800  1.0
  H  H14  1  0.796000  0.560800  0.443200  1.0
  H  H15  1  0.704000  0.560800  0.943200  1.0
  H  H16  1  0.204000  0.439200  0.556800  1.0
  H  H17  1  0.391100  0.000200  0.005900  1.0
  H  H18  1  0.891100  0.999800  0.494100  1.0
  H  H19  1  0.608900  0.999800  0.994100  1.0
  H  H20  1  0.108900  0.000200  0.505900  1.0
  H  H21  1  0.289100  0.856300  0.989200  1.0
  H  H22  1  0.789100  0.143700  0.510800  1.0
  H  H23  1  0.710900  0.143700  0.010800  1.0
  H  H24  1  0.210900  0.856300  0.489200  1.0
  H  H25  1  0.031300  0.979200  0.054800  1.0
  H  H26  1  0.531300  0.020800  0.445200  1.0
  H  H27  1  0.968700  0.020800  0.945200  1.0
  H  H28  1  0.468700  0.979200  0.554800  1.0
  H  H29  1  0.120500  0.134100  0.074700  1.0
  H  H30  1  0.620500  0.865900  0.425300  1.0
  H  H31  1  0.879500  0.865900  0.925300  1.0
  H  H32  1  0.379500  0.134100  0.574700  1.0
  H  H33  1  0.135700  0.758100  0.993600  1.0
  H  H34  1  0.635700  0.241900  0.506400  1.0
  H  H35  1  0.864300  0.241900  0.006400  1.0
  H  H36  1  0.364300  0.758100  0.493600  1.0
  H  H37  1  0.046300  0.834100  0.972400  1.0
  H  H38  1  0.546300  0.165900  0.527600  1.0
  H  H39  1  0.953700  0.165900  0.027600  1.0
  H  H40  1  0.453700  0.834100  0.472400  1.0
  H  H41  1  0.001900  0.690600  0.034300  1.0
  H  H42  1  0.501900  0.309400  0.465700  1.0
  H  H43  1  0.998100  0.309400  0.965700  1.0
  H  H44  1  0.498100  0.690600  0.534300  1.0
  H  H45  1  0.977500  0.803700  0.066200  1.0
  H  H46  1  0.477500  0.196300  0.433800  1.0
  H  H47  1  0.022500  0.196300  0.933800  1.0
  H  H48  1  0.522500  0.803700  0.566200  1.0
  H  H49  1  0.537500  0.112200  0.055300  1.0
  H  H50  1  0.037500  0.887800  0.444700  1.0
  H  H51  1  0.462500  0.887800  0.944700  1.0
  H  H52  1  0.962500  0.112200  0.555300  1.0
  H  H53  1  0.659600  0.044300  0.130200  1.0
  H  H54  1  0.159600  0.955700  0.369800  1.0
  H  H55  1  0.340400  0.955700  0.869800  1.0
  H  H56  1  0.840400  0.044300  0.630200  1.0
  H  H57  1  0.432700  0.099100  0.256600  1.0
  H  H58  1  0.932700  0.900900  0.243400  1.0
  H  H59  1  0.567300  0.900900  0.743400  1.0
  H  H60  1  0.067300  0.099100  0.756600  1.0
  H  H61  1  0.332800  0.172000  0.174800  1.0
  H  H62  1  0.832800  0.828000  0.325200  1.0
  H  H63  1  0.667200  0.828000  0.825200  1.0
  H  H64  1  0.167200  0.172000  0.674800  1.0
  H  H65  1  0.687200  0.076100  0.253500  1.0
  H  H66  1  0.187200  0.923900  0.246500  1.0
  H  H67  1  0.312800  0.923900  0.746500  1.0
  H  H68  1  0.812800  0.076100  0.753500  1.0
  H  H69  1  0.680600  0.966600  0.215300  1.0
  H  H70  1  0.180600  0.033400  0.284700  1.0
  H  H71  1  0.319400  0.033400  0.784700  1.0
  H  H72  1  0.819400  0.966600  0.715300  1.0
  H  H73  1  0.626900  0.953700  0.329100  1.0
  H  H74  1  0.126900  0.046300  0.170900  1.0
  H  H75  1  0.373100  0.046300  0.670900  1.0
  H  H76  1  0.873100  0.953700  0.829100  1.0
  H  H77  1  0.544500  0.029000  0.312400  1.0
  H  H78  1  0.044500  0.971000  0.187600  1.0
  H  H79  1  0.455500  0.971000  0.687600  1.0
  H  H80  1  0.955500  0.029000  0.812400  1.0
  H  H81  1  0.344500  0.394700  0.380600  1.0
  H  H82  1  0.844500  0.605300  0.119400  1.0
  H  H83  1  0.655500  0.605300  0.619400  1.0
  H  H84  1  0.155500  0.394700  0.880600  1.0
  H  H85  1  0.430600  0.375700  0.314800  1.0
  H  H86  1  0.930600  0.624300  0.185200  1.0
  H  H87  1  0.569400  0.624300  0.685200  1.0
  H  H88  1  0.069400  0.375700  0.814800  1.0
  H  H89  1  0.233800  0.335300  0.309200  1.0
  H  H90  1  0.733800  0.664700  0.190800  1.0
  H  H91  1  0.766200  0.664700  0.690800  1.0
  H  H92  1  0.266200  0.335300  0.809200  1.0
  H  H93  1  0.206500  0.419400  0.347400  1.0
  H  H94  1  0.706500  0.580600  0.152600  1.0
  H  H95  1  0.793500  0.580600  0.652600  1.0
  H  H96  1  0.293500  0.419400  0.847400  1.0
  H  H97  1  0.483400  0.681700  0.209600  1.0
  H  H98  1  0.983400  0.318300  0.290400  1.0
  H  H99  1  0.516600  0.318300  0.790400  1.0
  H  H100  1  0.016600  0.681700  0.709600  1.0
  H  H101  1  0.604200  0.824500  0.220100  1.0
  H  H102  1  0.104200  0.175500  0.279900  1.0
  H  H103  1  0.395800  0.175500  0.779900  1.0
  H  H104  1  0.895800  0.824500  0.720100  1.0
  H  H105  1  0.405800  0.921800  0.361200  1.0
  H  H106  1  0.905800  0.078200  0.138800  1.0
  H  H107  1  0.594200  0.078200  0.638800  1.0
  H  H108  1  0.094200  0.921800  0.861200  1.0
  H  H109  1  0.304000  0.797900  0.348600  1.0
  H  H110  1  0.804000  0.202100  0.151400  1.0
  H  H111  1  0.696000  0.202100  0.651400  1.0
  H  H112  1  0.196000  0.797900  0.848600  1.0
  H  H113  1  0.313900  0.592700  0.134900  1.0
  H  H114  1  0.813900  0.407300  0.365100  1.0
  H  H115  1  0.686100  0.407300  0.865100  1.0
  H  H116  1  0.186100  0.592700  0.634900  1.0
  H  H117  1  0.214100  0.660700  0.052800  1.0
  H  H118  1  0.714100  0.339300  0.447200  1.0
  H  H119  1  0.785900  0.339300  0.947200  1.0
  H  H120  1  0.285900  0.660700  0.552800  1.0
  H  H121  1  0.017200  0.774900  0.160600  1.0
  H  H122  1  0.517200  0.225100  0.339400  1.0
  H  H123  1  0.982800  0.225100  0.839400  1.0
  H  H124  1  0.482800  0.774900  0.660600  1.0
  H  H125  1  0.117800  0.698500  0.251400  1.0
  H  H126  1  0.617800  0.301500  0.248600  1.0
  H  H127  1  0.882200  0.301500  0.748600  1.0
  H  H128  1  0.382200  0.698500  0.751400  1.0
  H  H129  1  0.435900  0.538700  0.448000  1.0
  H  H130  1  0.935900  0.461300  0.052000  1.0
  H  H131  1  0.564100  0.461300  0.552000  1.0
  H  H132  1  0.064100  0.538700  0.948000  1.0
  H  H133  1  0.430980  0.434300  0.512300  1.0
  H  H134  1  0.930980  0.565700  0.987700  1.0
  H  H135  1  0.569020  0.565700  0.487700  1.0
  H  H136  1  0.069020  0.434300  0.012300  1.0
  Pd  Pd137  1  0.336070  0.209780  0.057110  1.0
  Pd  Pd138  1  0.836070  0.790220  0.442890  1.0
  Pd  Pd139  1  0.663930  0.790220  0.942890  1.0
  Pd  Pd140  1  0.163930  0.209780  0.557110  1.0
  Pd  Pd141  1  0.303450  0.590410  0.263430  1.0
  Pd  Pd142  1  0.803450  0.409590  0.236570  1.0
  Pd  Pd143  1  0.696550  0.409590  0.736570  1.0
  Pd  Pd144  1  0.196550  0.590410  0.763430  1.0
  C  C145  1  0.299300  0.378660  0.981940  1.0
  C  C146  1  0.799300  0.621340  0.518060  1.0
  C  C147  1  0.700700  0.621340  0.018060  1.0
  C  C148  1  0.200700  0.378660  0.481940  1.0
  C  C149  1  0.351800  0.420280  0.031620  1.0
  C  C150  1  0.851800  0.579720  0.468380  1.0
  C  C151  1  0.648200  0.579720  0.968380  1.0
  C  C152  1  0.148200  0.420280  0.531620  1.0
  C  C153  1  0.307530  0.996920  0.021730  1.0
  C  C154  1  0.807530  0.003080  0.478270  1.0
  C  C155  1  0.692470  0.003080  0.978270  1.0
  C  C156  1  0.192470  0.996920  0.521730  1.0
  C  C157  1  0.255470  0.908840  0.008850  1.0
  C  C158  1  0.755470  0.091160  0.491150  1.0
  C  C159  1  0.744530  0.091160  0.991150  1.0
  C  C160  1  0.244530  0.908840  0.508850  1.0
  C  C161  1  0.152000  0.898770  0.020950  1.0
  C  C162  1  0.652000  0.101230  0.479050  1.0
  C  C163  1  0.848000  0.101230  0.979050  1.0
  C  C164  1  0.348000  0.898770  0.520950  1.0
  C  C165  1  0.104620  0.981070  0.046460  1.0
  C  C166  1  0.604620  0.018930  0.453540  1.0
  C  C167  1  0.895380  0.018930  0.953540  1.0
  C  C168  1  0.395380  0.981070  0.546460  1.0
  C  C169  1  0.158380  0.068310  0.058020  1.0
  C  C170  1  0.658380  0.931690  0.441980  1.0
  C  C171  1  0.841620  0.931690  0.941980  1.0
  C  C172  1  0.341620  0.068310  0.558020  1.0
  C  C173  1  0.095540  0.803690  0.005860  1.0
  C  C174  1  0.595540  0.196310  0.494140  1.0
  C  C175  1  0.904460  0.196310  0.994140  1.0
  C  C176  1  0.404460  0.803690  0.505860  1.0
  C  C177  1  0.038150  0.754200  0.054590  1.0
  C  C178  1  0.538150  0.245800  0.445410  1.0
  C  C179  1  0.961850  0.245800  0.945410  1.0
  C  C180  1  0.461850  0.754200  0.554590  1.0
  C  C181  1  0.522260  0.110850  0.103930  1.0
  C  C182  1  0.022260  0.889150  0.396070  1.0
  C  C183  1  0.477740  0.889150  0.896070  1.0
  C  C184  1  0.977740  0.110850  0.603930  1.0
  C  C185  1  0.587680  0.070230  0.142640  1.0
  C  C186  1  0.087680  0.929770  0.357360  1.0
  C  C187  1  0.412320  0.929770  0.857360  1.0
  C  C188  1  0.912320  0.070230  0.642640  1.0
  C  C189  1  0.562250  0.064830  0.198840  1.0
  C  C190  1  0.062250  0.935170  0.301160  1.0
  C  C191  1  0.437750  0.935170  0.801160  1.0
  C  C192  1  0.937750  0.064830  0.698840  1.0
  C  C193  1  0.463430  0.102360  0.213410  1.0
  C  C194  1  0.963430  0.897640  0.286590  1.0
  C  C195  1  0.536570  0.897640  0.786590  1.0
  C  C196  1  0.036570  0.102360  0.713410  1.0
  C  C197  1  0.401790  0.142290  0.171330  1.0
  C  C198  1  0.901790  0.857710  0.328670  1.0
  C  C199  1  0.598210  0.857710  0.828670  1.0
  C  C200  1  0.098210  0.142290  0.671330  1.0
  C  C201  1  0.634660  0.022460  0.243120  1.0
  C  C202  1  0.134660  0.977540  0.256880  1.0
  C  C203  1  0.365340  0.977540  0.756880  1.0
  C  C204  1  0.865340  0.022460  0.743120  1.0
  C  C205  1  0.586380  0.978100  0.295900  1.0
  C  C206  1  0.086380  0.021900  0.204100  1.0
  C  C207  1  0.413620  0.021900  0.704100  1.0
  C  C208  1  0.913620  0.978100  0.795900  1.0
  C  C209  1  0.347420  0.417540  0.334860  1.0
  C  C210  1  0.847420  0.582460  0.165140  1.0
  C  C211  1  0.652580  0.582460  0.665140  1.0
  C  C212  1  0.152580  0.417540  0.834860  1.0
  C  C213  1  0.241970  0.400590  0.314210  1.0
  C  C214  1  0.741970  0.599410  0.185790  1.0
  C  C215  1  0.758030  0.599410  0.685790  1.0
  C  C216  1  0.258030  0.400590  0.814210  1.0
  C  C217  1  0.473190  0.733660  0.240000  1.0
  C  C218  1  0.973190  0.266340  0.260000  1.0
  C  C219  1  0.526810  0.266340  0.760000  1.0
  C  C220  1  0.026810  0.733660  0.740000  1.0
  C  C221  1  0.535820  0.816110  0.246740  1.0
  C  C222  1  0.035820  0.183890  0.253260  1.0
  C  C223  1  0.464180  0.183890  0.753260  1.0
  C  C224  1  0.964180  0.816110  0.746740  1.0
  C  C225  1  0.514970  0.888060  0.286000  1.0
  C  C226  1  0.014970  0.111940  0.214000  1.0
  C  C227  1  0.485030  0.111940  0.714000  1.0
  C  C228  1  0.985030  0.888060  0.786000  1.0
  C  C229  1  0.427910  0.875800  0.318700  1.0
  C  C230  1  0.927910  0.124200  0.181300  1.0
  C  C231  1  0.572090  0.124200  0.681300  1.0
  C  C232  1  0.072090  0.875800  0.818700  1.0
  C  C233  1  0.365160  0.791650  0.310280  1.0
  C  C234  1  0.865160  0.208350  0.189720  1.0
  C  C235  1  0.634840  0.208350  0.689720  1.0
  C  C236  1  0.134840  0.791650  0.810280  1.0
  C  C237  1  0.253190  0.631840  0.141460  1.0
  C  C238  1  0.753190  0.368160  0.358540  1.0
  C  C239  1  0.746810  0.368160  0.858540  1.0
  C  C240  1  0.246810  0.631840  0.641460  1.0
  C  C241  1  0.197230  0.666580  0.094590  1.0
  C  C242  1  0.697230  0.333420  0.405410  1.0
  C  C243  1  0.802770  0.333420  0.905410  1.0
  C  C244  1  0.302770  0.666580  0.594590  1.0
  C  C245  1  0.106900  0.721260  0.104290  1.0
  C  C246  1  0.606900  0.278740  0.395710  1.0
  C  C247  1  0.893100  0.278740  0.895710  1.0
  C  C248  1  0.393100  0.721260  0.604290  1.0
  C  C249  1  0.079330  0.736090  0.159530  1.0
  C  C250  1  0.579330  0.263910  0.340470  1.0
  C  C251  1  0.920670  0.263910  0.840470  1.0
  C  C252  1  0.420670  0.736090  0.659530  1.0
  C  C253  1  0.137920  0.699040  0.205000  1.0
  C  C254  1  0.637920  0.300960  0.295000  1.0
  C  C255  1  0.862080  0.300960  0.795000  1.0
  C  C256  1  0.362080  0.699040  0.705000  1.0
  C  C257  1  0.535000  0.199440  0.910760  1.0
  C  C258  1  0.035000  0.800560  0.589240  1.0
  C  C259  1  0.465000  0.800560  0.089240  1.0
  C  C260  1  0.965000  0.199440  0.410760  1.0
  N  N261  1  0.248050  0.282610  0.998160  1.0
  N  N262  1  0.748050  0.717390  0.501840  1.0
  N  N263  1  0.751950  0.717390  0.001840  1.0
  N  N264  1  0.251950  0.282610  0.498160  1.0
  N  N265  1  0.410350  0.343330  0.063320  1.0
  N  N266  1  0.910350  0.656670  0.436680  1.0
  N  N267  1  0.589650  0.656670  0.936680  1.0
  N  N268  1  0.089650  0.343330  0.563320  1.0
  N  N269  1  0.258770  0.077360  0.045570  1.0
  N  N270  1  0.758770  0.922640  0.454430  1.0
  N  N271  1  0.741230  0.922640  0.954430  1.0
  N  N272  1  0.241230  0.077360  0.545570  1.0
  N  N273  1  0.427910  0.146940  0.117420  1.0
  N  N274  1  0.927910  0.853060  0.382580  1.0
  N  N275  1  0.572090  0.853060  0.882580  1.0
  N  N276  1  0.072090  0.146940  0.617420  1.0
  N  N277  1  0.369050  0.529620  0.333250  1.0
  N  N278  1  0.869050  0.470380  0.166750  1.0
  N  N279  1  0.630950  0.470380  0.666750  1.0
  N  N280  1  0.130950  0.529620  0.833250  1.0
  N  N281  1  0.229740  0.456230  0.257610  1.0
  N  N282  1  0.729740  0.543770  0.242390  1.0
  N  N283  1  0.770260  0.543770  0.742390  1.0
  N  N284  1  0.270260  0.456230  0.757610  1.0
  N  N285  1  0.387760  0.718660  0.271610  1.0
  N  N286  1  0.887760  0.281340  0.228390  1.0
  N  N287  1  0.612240  0.281340  0.728390  1.0
  N  N288  1  0.112240  0.718660  0.771610  1.0
  N  N289  1  0.226600  0.647850  0.195150  1.0
  N  N290  1  0.726600  0.352150  0.304850  1.0
  N  N291  1  0.773400  0.352150  0.804850  1.0
  N  N292  1  0.273400  0.647850  0.695150  1.0
  N  N293  1  0.182930  0.653270  0.429160  1.0
  N  N294  1  0.682930  0.346730  0.070840  1.0
  N  N295  1  0.817070  0.346730  0.570840  1.0
  N  N296  1  0.317070  0.653270  0.929160  1.0
  N  N297  1  0.294920  0.131340  0.372270  1.0
  N  N298  1  0.794920  0.868660  0.127730  1.0
  N  N299  1  0.705080  0.868660  0.627730  1.0
  N  N300  1  0.205080  0.131340  0.872270  1.0
  N  N301  1  0.118580  0.336280  0.131160  1.0
  N  N302  1  0.618580  0.663720  0.368840  1.0
  N  N303  1  0.881420  0.663720  0.868840  1.0
  N  N304  1  0.381420  0.336280  0.631160  1.0
  N  N305  1  0.479670  0.463120  0.187170  1.0
  N  N306  1  0.979670  0.536880  0.312830  1.0
  N  N307  1  0.520330  0.536880  0.812830  1.0
  N  N308  1  0.020330  0.463120  0.687170  1.0
  O  O309  1  0.131520  0.672650  0.471450  1.0
  O  O310  1  0.631520  0.327350  0.028550  1.0
  O  O311  1  0.868480  0.327350  0.528550  1.0
  O  O312  1  0.368480  0.672650  0.971450  1.0
  O  O313  1  0.268750  0.614780  0.434330  1.0
  O  O314  1  0.768750  0.385220  0.065670  1.0
  O  O315  1  0.731250  0.385220  0.565670  1.0
  O  O316  1  0.231250  0.614780  0.934330  1.0
  O  O317  1  0.156200  0.674860  0.382040  1.0
  O  O318  1  0.656200  0.325140  0.117960  1.0
  O  O319  1  0.843800  0.325140  0.617960  1.0
  O  O320  1  0.343800  0.674860  0.882040  1.0
  O  O321  1  0.336300  0.084840  0.409060  1.0
  O  O322  1  0.836300  0.915160  0.090940  1.0
  O  O323  1  0.663700  0.915160  0.590940  1.0
  O  O324  1  0.163700  0.084840  0.909060  1.0
  O  O325  1  0.326000  0.130560  0.325890  1.0
  O  O326  1  0.826000  0.869440  0.174110  1.0
  O  O327  1  0.674000  0.869440  0.674110  1.0
  O  O328  1  0.174000  0.130560  0.825890  1.0
  O  O329  1  0.216140  0.177030  0.384940  1.0
  O  O330  1  0.716140  0.822970  0.115060  1.0
  O  O331  1  0.783860  0.822970  0.615060  1.0
  O  O332  1  0.283860  0.177030  0.884940  1.0
  O  O333  1  0.186020  0.283140  0.152190  1.0
  O  O334  1  0.686020  0.716860  0.347810  1.0
  O  O335  1  0.813980  0.716860  0.847810  1.0
  O  O336  1  0.313980  0.283140  0.652190  1.0
  O  O337  1  0.075440  0.310480  0.086590  1.0
  O  O338  1  0.575440  0.689520  0.413410  1.0
  O  O339  1  0.924560  0.689520  0.913410  1.0
  O  O340  1  0.424560  0.310480  0.586590  1.0
  O  O341  1  0.094130  0.416990  0.152870  1.0
  O  O342  1  0.594130  0.583010  0.347130  1.0
  O  O343  1  0.905870  0.583010  0.847130  1.0
  O  O344  1  0.405870  0.416990  0.652870  1.0
  O  O345  1  0.521320  0.476710  0.233320  1.0
  O  O346  1  0.021320  0.523290  0.266680  1.0
  O  O347  1  0.478680  0.523290  0.766680  1.0
  O  O348  1  0.978680  0.476710  0.733320  1.0
  O  O349  1  0.417260  0.392390  0.181810  1.0
  O  O350  1  0.917260  0.607610  0.318190  1.0
  O  O351  1  0.582740  0.607610  0.818190  1.0
  O  O352  1  0.082740  0.392390  0.681810  1.0
  O  O353  1  0.491750  0.519510  0.147010  1.0
  O  O354  1  0.991750  0.480490  0.352990  1.0
  O  O355  1  0.508250  0.480490  0.852990  1.0
  O  O356  1  0.008250  0.519510  0.647010  1.0
  O  O357  1  0.476230  0.143580  0.948520  1.0
  O  O358  1  0.976230  0.856420  0.551480  1.0
  O  O359  1  0.523770  0.856420  0.051480  1.0
  O  O360  1  0.023770  0.143580  0.448520  1.0
  O  O361  1  0.465900  0.495000  0.470400  1.0
  O  O362  1  0.965900  0.505000  0.029600  1.0
  O  O363  1  0.534100  0.505000  0.529600  1.0
  O  O364  1  0.034100  0.495000  0.970400  1.0
