# generated using pymatgen
data_H34Pd2C29(N6O7)2
_symmetry_space_group_name_H-M   'P 1'
_cell_length_a   26.75300000
_cell_length_b   12.94200000
_cell_length_c   13.22100000
_cell_angle_alpha   90.00000000
_cell_angle_beta   119.32000000
_cell_angle_gamma   90.00000000
_symmetry_Int_Tables_number   1
_chemical_formula_structural   H34Pd2C29(N6O7)2
_chemical_formula_sum   'H136 Pd8 C116 N48 O56'
_cell_volume   3991.20529672
_cell_formula_units_Z   4
loop_
 _symmetry_equiv_pos_site_id
 _symmetry_equiv_pos_as_xyz
  1  'x, y, z'
loop_
 _atom_site_type_symbol
 _atom_site_label
 _atom_site_symmetry_multiplicity
 _atom_site_fract_x
 _atom_site_fract_y
 _atom_site_fract_z
 _atom_site_occupancy
  H  H1  1  0.962500  0.236200  0.388800  1
  H  H2  1  0.537500  0.736200  0.111200  1
  H  H3  1  0.037500  0.763800  0.611200  1
  H  H4  1  0.462500  0.263800  0.888800  1
  H  H5  1  0.952700  0.360900  0.322000  1
  H  H6  1  0.547300  0.860900  0.178000  1
  H  H7  1  0.047300  0.639100  0.678000  1
  H  H8  1  0.452700  0.139100  0.822000  1
  H  H9  1  0.013800  0.399000  0.503500  1
  H  H10  1  0.486200  0.899000  0.996500  1
  H  H11  1  0.986200  0.601000  0.496500  1
  H  H12  1  0.513800  0.101000  0.003500  1
  H  H13  1  0.056800  0.296000  0.496000  1
  H  H14  1  0.443200  0.796000  0.004000  1
  H  H15  1  0.943200  0.704000  0.504000  1
  H  H16  1  0.556800  0.204000  0.996000  1
  H  H17  1  0.005900  0.391100  0.006100  1
  H  H18  1  0.494100  0.891100  0.493900  1
  H  H19  1  0.994100  0.608900  0.993900  1
  H  H20  1  0.505900  0.108900  0.506100  1
  H  H21  1  0.989200  0.289100  0.845500  1
  H  H22  1  0.510800  0.789100  0.654500  1
  H  H23  1  0.010800  0.710900  0.154500  1
  H  H24  1  0.489200  0.210900  0.345500  1
  H  H25  1  0.054800  0.031300  0.034000  1
  H  H26  1  0.445200  0.531300  0.466000  1
  H  H27  1  0.945200  0.968700  0.966000  1
  H  H28  1  0.554800  0.468700  0.534000  1
  H  H29  1  0.074700  0.120500  0.208800  1
  H  H30  1  0.425300  0.620500  0.291200  1
  H  H31  1  0.925300  0.879500  0.791200  1
  H  H32  1  0.574700  0.379500  0.708800  1
  H  H33  1  0.993600  0.135700  0.751700  1
  H  H34  1  0.506400  0.635700  0.748300  1
  H  H35  1  0.006400  0.864300  0.248300  1
  H  H36  1  0.493600  0.364300  0.251700  1
  H  H37  1  0.972400  0.046300  0.806500  1
  H  H38  1  0.527600  0.546300  0.693500  1
  H  H39  1  0.027600  0.953700  0.193500  1
  H  H40  1  0.472400  0.453700  0.306500  1
  H  H41  1  0.034300  0.001900  0.724900  1
  H  H42  1  0.465700  0.501900  0.775100  1
  H  H43  1  0.965700  0.998100  0.275100  1
  H  H44  1  0.534300  0.498100  0.224900  1
  H  H45  1  0.066200  0.977500  0.869900  1
  H  H46  1  0.433800  0.477500  0.630100  1
  H  H47  1  0.933800  0.022500  0.130100  1
  H  H48  1  0.566200  0.522500  0.369900  1
  H  H49  1  0.055300  0.537500  0.167500  1
  H  H50  1  0.444700  0.037500  0.332500  1
  H  H51  1  0.944700  0.462500  0.832500  1
  H  H52  1  0.555300  0.962500  0.667500  1
  H  H53  1  0.130200  0.659600  0.174500  1
  H  H54  1  0.369800  0.159600  0.325500  1
  H  H55  1  0.869800  0.340400  0.825500  1
  H  H56  1  0.630200  0.840400  0.674500  1
  H  H57  1  0.256600  0.432700  0.355700  1
  H  H58  1  0.243400  0.932700  0.144300  1
  H  H59  1  0.743400  0.567300  0.644300  1
  H  H60  1  0.756600  0.067300  0.855700  1
  H  H61  1  0.174800  0.332800  0.346800  1
  H  H62  1  0.325200  0.832800  0.153200  1
  H  H63  1  0.825200  0.667200  0.653200  1
  H  H64  1  0.674800  0.167200  0.846800  1
  H  H65  1  0.253500  0.687200  0.329600  1
  H  H66  1  0.246500  0.187200  0.170400  1
  H  H67  1  0.746500  0.312800  0.670400  1
  H  H68  1  0.753500  0.812800  0.829600  1
  H  H69  1  0.215300  0.680600  0.181900  1
  H  H70  1  0.284700  0.180600  0.318100  1
  H  H71  1  0.784700  0.319400  0.818100  1
  H  H72  1  0.715300  0.819400  0.681900  1
  H  H73  1  0.329100  0.626900  0.282800  1
  H  H74  1  0.170900  0.126900  0.217200  1
  H  H75  1  0.670900  0.373100  0.717200  1
  H  H76  1  0.829100  0.873100  0.782800  1
  H  H77  1  0.312400  0.544500  0.341400  1
  H  H78  1  0.187600  0.044500  0.158600  1
  H  H79  1  0.687600  0.455500  0.658600  1
  H  H80  1  0.812400  0.955500  0.841400  1
  H  H81  1  0.380600  0.344500  0.775300  1
  H  H82  1  0.119400  0.844500  0.724700  1
  H  H83  1  0.619400  0.655500  0.224700  1
  H  H84  1  0.880600  0.155500  0.275300  1
  H  H85  1  0.314800  0.430600  0.690500  1
  H  H86  1  0.185200  0.930600  0.809500  1
  H  H87  1  0.685200  0.569400  0.309500  1
  H  H88  1  0.814800  0.069400  0.190500  1
  H  H89  1  0.309200  0.233800  0.644500  1
  H  H90  1  0.190800  0.733800  0.855500  1
  H  H91  1  0.690800  0.766200  0.355500  1
  H  H92  1  0.809200  0.266200  0.144500  1
  H  H93  1  0.347400  0.206500  0.766800  1
  H  H94  1  0.152600  0.706500  0.733200  1
  H  H95  1  0.652600  0.793500  0.233200  1
  H  H96  1  0.847400  0.293500  0.266800  1
  H  H97  1  0.209600  0.483400  0.891300  1
  H  H98  1  0.290400  0.983400  0.608700  1
  H  H99  1  0.790400  0.516600  0.108700  1
  H  H100  1  0.709600  0.016600  0.391300  1
  H  H101  1  0.220100  0.604200  0.044600  1
  H  H102  1  0.279900  0.104200  0.455400  1
  H  H103  1  0.779900  0.395800  0.955400  1
  H  H104  1  0.720100  0.895800  0.544600  1
  H  H105  1  0.361200  0.405800  0.283000  1
  H  H106  1  0.138800  0.905800  0.217000  1
  H  H107  1  0.638800  0.594200  0.717000  1
  H  H108  1  0.861200  0.094200  0.783000  1
  H  H109  1  0.348600  0.304000  0.146500  1
  H  H110  1  0.151400  0.804000  0.353500  1
  H  H111  1  0.651400  0.696000  0.853500  1
  H  H112  1  0.848600  0.196000  0.646500  1
  H  H113  1  0.134900  0.313900  0.727600  1
  H  H114  1  0.365100  0.813900  0.772400  1
  H  H115  1  0.865100  0.686100  0.272400  1
  H  H116  1  0.634900  0.186100  0.227600  1
  H  H117  1  0.052800  0.214100  0.713500  1
  H  H118  1  0.447200  0.714100  0.786500  1
  H  H119  1  0.947200  0.785900  0.286500  1
  H  H120  1  0.552800  0.285900  0.213500  1
  H  H121  1  0.160600  0.017200  0.935500  1
  H  H122  1  0.339400  0.517200  0.564500  1
  H  H123  1  0.839400  0.982800  0.064500  1
  H  H124  1  0.660600  0.482800  0.435500  1
  H  H125  1  0.251400  0.117800  0.949900  1
  H  H126  1  0.248600  0.617800  0.550100  1
  H  H127  1  0.748600  0.882200  0.050100  1
  H  H128  1  0.751400  0.382200  0.449900  1
  H  H129  1  0.448000  0.435900  0.986700  1
  H  H130  1  0.052000  0.935900  0.513300  1
  H  H131  1  0.552000  0.564100  0.013300  1
  H  H132  1  0.948000  0.064100  0.486700  1
  H  H133  1  0.512300  0.430980  0.946600  1
  H  H134  1  0.987700  0.930980  0.553400  1
  H  H135  1  0.487700  0.569020  0.053400  1
  H  H136  1  0.012300  0.069020  0.446600  1
  Pd  Pd137  1  0.057110  0.336070  0.266890  1
  Pd  Pd138  1  0.442890  0.836070  0.233110  1
  Pd  Pd139  1  0.942890  0.663930  0.733110  1
  Pd  Pd140  1  0.557110  0.163930  0.766890  1
  Pd  Pd141  1  0.263430  0.303450  0.853840  1
  Pd  Pd142  1  0.236570  0.803450  0.646160  1
  Pd  Pd143  1  0.736570  0.696550  0.146160  1
  Pd  Pd144  1  0.763430  0.196550  0.353840  1
  C  C145  1  0.981940  0.299300  0.360600  1
  C  C146  1  0.518060  0.799300  0.139400  1
  C  C147  1  0.018060  0.700700  0.639400  1
  C  C148  1  0.481940  0.200700  0.860600  1
  C  C149  1  0.031620  0.351800  0.451900  1
  C  C150  1  0.468380  0.851800  0.048100  1
  C  C151  1  0.968380  0.648200  0.548100  1
  C  C152  1  0.531620  0.148200  0.951900  1
  C  C153  1  0.021730  0.307530  0.018650  1
  C  C154  1  0.478270  0.807530  0.481350  1
  C  C155  1  0.978270  0.692470  0.981350  1
  C  C156  1  0.521730  0.192470  0.518650  1
  C  C157  1  0.008850  0.255470  0.917690  1
  C  C158  1  0.491150  0.755470  0.582310  1
  C  C159  1  0.991150  0.744530  0.082310  1
  C  C160  1  0.508850  0.244530  0.417690  1
  C  C161  1  0.020950  0.152000  0.919720  1
  C  C162  1  0.479050  0.652000  0.580280  1
  C  C163  1  0.979050  0.848000  0.080280  1
  C  C164  1  0.520950  0.348000  0.419720  1
  C  C165  1  0.046460  0.104620  0.027530  1
  C  C166  1  0.453540  0.604620  0.472470  1
  C  C167  1  0.953540  0.895380  0.972470  1
  C  C168  1  0.546460  0.395380  0.527530  1
  C  C169  1  0.058020  0.158380  0.126330  1
  C  C170  1  0.441980  0.658380  0.373670  1
  C  C171  1  0.941980  0.841620  0.873670  1
  C  C172  1  0.558020  0.341620  0.626330  1
  C  C173  1  0.005860  0.095540  0.809550  1
  C  C174  1  0.494140  0.595540  0.690450  1
  C  C175  1  0.994140  0.904460  0.190450  1
  C  C176  1  0.505860  0.404460  0.309550  1
  C  C177  1  0.054590  0.038150  0.808790  1
  C  C178  1  0.445410  0.538150  0.691210  1
  C  C179  1  0.945410  0.961850  0.191210  1
  C  C180  1  0.554590  0.461850  0.308790  1
  C  C181  1  0.103930  0.522260  0.214780  1
  C  C182  1  0.396070  0.022260  0.285220  1
  C  C183  1  0.896070  0.477740  0.785220  1
  C  C184  1  0.603930  0.977740  0.714780  1
  C  C185  1  0.142640  0.587680  0.212870  1
  C  C186  1  0.357360  0.087680  0.287130  1
  C  C187  1  0.857360  0.412320  0.787130  1
  C  C188  1  0.642640  0.912320  0.712870  1
  C  C189  1  0.198840  0.562250  0.263670  1
  C  C190  1  0.301160  0.062250  0.236330  1
  C  C191  1  0.801160  0.437750  0.736330  1
  C  C192  1  0.698840  0.937750  0.763670  1
  C  C193  1  0.213410  0.463430  0.315770  1
  C  C194  1  0.286590  0.963430  0.184230  1
  C  C195  1  0.786590  0.536570  0.684230  1
  C  C196  1  0.713410  0.036570  0.815770  1
  C  C197  1  0.171330  0.401790  0.313620  1
  C  C198  1  0.328670  0.901790  0.186380  1
  C  C199  1  0.828670  0.598210  0.686380  1
  C  C200  1  0.671330  0.098210  0.813620  1
  C  C201  1  0.243120  0.634660  0.265580  1
  C  C202  1  0.256880  0.134660  0.234420  1
  C  C203  1  0.756880  0.365340  0.734420  1
  C  C204  1  0.743120  0.865340  0.765580  1
  C  C205  1  0.295900  0.586380  0.274000  1
  C  C206  1  0.204100  0.086380  0.226000  1
  C  C207  1  0.704100  0.413620  0.726000  1
  C  C208  1  0.795900  0.913620  0.774000  1
  C  C209  1  0.334860  0.347420  0.752400  1
  C  C210  1  0.165140  0.847420  0.747600  1
  C  C211  1  0.665140  0.652580  0.247600  1
  C  C212  1  0.834860  0.152580  0.252400  1
  C  C213  1  0.314210  0.241970  0.714800  1
  C  C214  1  0.185790  0.741970  0.785200  1
  C  C215  1  0.685790  0.758030  0.285200  1
  C  C216  1  0.814210  0.258030  0.214800  1
  C  C217  1  0.240000  0.473190  0.973660  1
  C  C218  1  0.260000  0.973190  0.526340  1
  C  C219  1  0.760000  0.526810  0.026340  1
  C  C220  1  0.740000  0.026810  0.473660  1
  C  C221  1  0.246740  0.535820  0.062850  1
  C  C222  1  0.253260  0.035820  0.437150  1
  C  C223  1  0.753260  0.464180  0.937150  1
  C  C224  1  0.746740  0.964180  0.562850  1
  C  C225  1  0.286000  0.514970  0.174060  1
  C  C226  1  0.214000  0.014970  0.325940  1
  C  C227  1  0.714000  0.485030  0.825940  1
  C  C228  1  0.786000  0.985030  0.674060  1
  C  C229  1  0.318700  0.427910  0.194500  1
  C  C230  1  0.181300  0.927910  0.305500  1
  C  C231  1  0.681300  0.572090  0.805500  1
  C  C232  1  0.818700  0.072090  0.694500  1
  C  C233  1  0.310280  0.365160  0.101930  1
  C  C234  1  0.189720  0.865160  0.398070  1
  C  C235  1  0.689720  0.634840  0.898070  1
  C  C236  1  0.810280  0.134840  0.601930  1
  C  C237  1  0.141460  0.253190  0.773300  1
  C  C238  1  0.358540  0.753190  0.726700  1
  C  C239  1  0.858540  0.746810  0.226700  1
  C  C240  1  0.641460  0.246810  0.273300  1
  C  C241  1  0.094590  0.197230  0.761170  1
  C  C242  1  0.405410  0.697230  0.738830  1
  C  C243  1  0.905410  0.802770  0.238830  1
  C  C244  1  0.594590  0.302770  0.261170  1
  C  C245  1  0.104290  0.106900  0.825550  1
  C  C246  1  0.395710  0.606900  0.674450  1
  C  C247  1  0.895710  0.893100  0.174450  1
  C  C248  1  0.604290  0.393100  0.325550  1
  C  C249  1  0.159530  0.079330  0.895620  1
  C  C250  1  0.340470  0.579330  0.604380  1
  C  C251  1  0.840470  0.920670  0.104380  1
  C  C252  1  0.659530  0.420670  0.395620  1
  C  C253  1  0.205000  0.137920  0.904040  1
  C  C254  1  0.295000  0.637920  0.595960  1
  C  C255  1  0.795000  0.862080  0.095960  1
  C  C256  1  0.705000  0.362080  0.404040  1
  C  C257  1  0.910760  0.535000  0.110200  1
  C  C258  1  0.589240  0.035000  0.389800  1
  C  C259  1  0.089240  0.465000  0.889800  1
  C  C260  1  0.410760  0.965000  0.610200  1
  N  N261  1  0.998160  0.248050  0.280770  1
  N  N262  1  0.501840  0.748050  0.219230  1
  N  N263  1  0.001840  0.751950  0.719230  1
  N  N264  1  0.498160  0.251950  0.780770  1
  N  N265  1  0.063320  0.410350  0.406650  1
  N  N266  1  0.436680  0.910350  0.093350  1
  N  N267  1  0.936680  0.589650  0.593350  1
  N  N268  1  0.563320  0.089650  0.906650  1
  N  N269  1  0.045570  0.258770  0.122930  1
  N  N270  1  0.454430  0.758770  0.377070  1
  N  N271  1  0.954430  0.741230  0.877070  1
  N  N272  1  0.545570  0.241230  0.622930  1
  N  N273  1  0.117420  0.427910  0.264360  1
  N  N274  1  0.382580  0.927910  0.235640  1
  N  N275  1  0.882580  0.572090  0.735640  1
  N  N276  1  0.617420  0.072090  0.764360  1
  N  N277  1  0.333250  0.369050  0.862870  1
  N  N278  1  0.166750  0.869050  0.637130  1
  N  N279  1  0.666750  0.630950  0.137130  1
  N  N280  1  0.833250  0.130950  0.362870  1
  N  N281  1  0.257610  0.229740  0.713840  1
  N  N282  1  0.242390  0.729740  0.786160  1
  N  N283  1  0.742390  0.770260  0.286160  1
  N  N284  1  0.757610  0.270260  0.213840  1
  N  N285  1  0.271610  0.387760  0.990270  1
  N  N286  1  0.228390  0.887760  0.509730  1
  N  N287  1  0.728390  0.612240  0.009730  1
  N  N288  1  0.771610  0.112240  0.490270  1
  N  N289  1  0.195150  0.226600  0.843000  1
  N  N290  1  0.304850  0.726600  0.657000  1
  N  N291  1  0.804850  0.773400  0.157000  1
  N  N292  1  0.695150  0.273400  0.343000  1
  N  N293  1  0.429160  0.182930  0.082430  1
  N  N294  1  0.070840  0.682930  0.417570  1
  N  N295  1  0.570840  0.817070  0.917570  1
  N  N296  1  0.929160  0.317070  0.582430  1
  N  N297  1  0.372270  0.294920  0.503610  1
  N  N298  1  0.127730  0.794920  0.996390  1
  N  N299  1  0.627730  0.705080  0.496390  1
  N  N300  1  0.872270  0.205080  0.003610  1
  N  N301  1  0.131160  0.118580  0.467440  1
  N  N302  1  0.368840  0.618580  0.032560  1
  N  N303  1  0.868840  0.881420  0.532560  1
  N  N304  1  0.631160  0.381420  0.967440  1
  N  N305  1  0.187170  0.479670  0.650290  1
  N  N306  1  0.312830  0.979670  0.849710  1
  N  N307  1  0.812830  0.520330  0.349710  1
  N  N308  1  0.687170  0.020330  0.150290  1
  O  O309  1  0.471450  0.131520  0.144100  1
  O  O310  1  0.028550  0.631520  0.355900  1
  O  O311  1  0.528550  0.868480  0.855900  1
  O  O312  1  0.971450  0.368480  0.644100  1
  O  O313  1  0.434330  0.268750  0.049110  1
  O  O314  1  0.065670  0.768750  0.450890  1
  O  O315  1  0.565670  0.731250  0.950890  1
  O  O316  1  0.934330  0.231250  0.549110  1
  O  O317  1  0.382040  0.156200  0.056900  1
  O  O318  1  0.117960  0.656200  0.443100  1
  O  O319  1  0.617960  0.843800  0.943100  1
  O  O320  1  0.882040  0.343800  0.556900  1
  O  O321  1  0.409060  0.336300  0.493900  1
  O  O322  1  0.090940  0.836300  0.006100  1
  O  O323  1  0.590940  0.663700  0.506100  1
  O  O324  1  0.909060  0.163700  0.993900  1
  O  O325  1  0.325890  0.326000  0.456450  1
  O  O326  1  0.174110  0.826000  0.043550  1
  O  O327  1  0.674110  0.674000  0.543550  1
  O  O328  1  0.825890  0.174000  0.956450  1
  O  O329  1  0.384940  0.216140  0.561970  1
  O  O330  1  0.115060  0.716140  0.938030  1
  O  O331  1  0.615060  0.783860  0.438030  1
  O  O332  1  0.884940  0.283860  0.061970  1
  O  O333  1  0.152190  0.186020  0.435330  1
  O  O334  1  0.347810  0.686020  0.064670  1
  O  O335  1  0.847810  0.813980  0.564670  1
  O  O336  1  0.652190  0.313980  0.935330  1
  O  O337  1  0.086590  0.075440  0.397070  1
  O  O338  1  0.413410  0.575440  0.102930  1
  O  O339  1  0.913410  0.924560  0.602930  1
  O  O340  1  0.586590  0.424560  0.897070  1
  O  O341  1  0.152870  0.094130  0.569860  1
  O  O342  1  0.347130  0.594130  0.930140  1
  O  O343  1  0.847130  0.905870  0.430140  1
  O  O344  1  0.652870  0.405870  0.069860  1
  O  O345  1  0.233320  0.521320  0.710030  1
  O  O346  1  0.266680  0.021320  0.789970  1
  O  O347  1  0.766680  0.478680  0.289970  1
  O  O348  1  0.733320  0.978680  0.210030  1
  O  O349  1  0.181810  0.417260  0.574200  1
  O  O350  1  0.318190  0.917260  0.925800  1
  O  O351  1  0.818190  0.582740  0.425800  1
  O  O352  1  0.681810  0.082740  0.074200  1
  O  O353  1  0.147010  0.491750  0.666520  1
  O  O354  1  0.352990  0.991750  0.833480  1
  O  O355  1  0.852990  0.508250  0.333480  1
  O  O356  1  0.647010  0.008250  0.166520  1
  O  O357  1  0.948520  0.476230  0.092100  1
  O  O358  1  0.551480  0.976230  0.407900  1
  O  O359  1  0.051480  0.523770  0.907900  1
  O  O360  1  0.448520  0.023770  0.592100  1
  O  O361  1  0.470400  0.465900  0.965400  1
  O  O362  1  0.029600  0.965900  0.534600  1
  O  O363  1  0.529600  0.534100  0.034600  1
  O  O364  1  0.970400  0.034100  0.465400  1
