# generated using pymatgen
data_Co4H144C192I11N42O17
_symmetry_space_group_name_H-M   'P 1'
_cell_length_a   18.38000000
_cell_length_b   18.90000000
_cell_length_c   33.25000000
_cell_angle_alpha   92.01000000
_cell_angle_beta   100.13000000
_cell_angle_gamma   114.85000000
_symmetry_Int_Tables_number   1
_chemical_formula_structural   Co4H144C192I11N42O17
_chemical_formula_sum   'Co8 H288 C384 I22 N84 O34'
_cell_volume   10240.53738936
_cell_formula_units_Z   2
loop_
 _symmetry_equiv_pos_site_id
 _symmetry_equiv_pos_as_xyz
  1  'x, y, z'
loop_
 _atom_site_type_symbol
 _atom_site_label
 _atom_site_symmetry_multiplicity
 _atom_site_fract_x
 _atom_site_fract_y
 _atom_site_fract_z
 _atom_site_occupancy
  Co  Co1  1  0.772790  0.036850  0.050270  1
  Co  Co2  1  0.227210  0.963150  0.949730  1
  Co  Co3  1  0.039340  0.924720  0.372310  1
  Co  Co4  1  0.960660  0.075280  0.627690  1
  Co  Co5  1  0.753990  0.393790  0.337480  1
  Co  Co6  1  0.246010  0.606210  0.662520  1
  Co  Co7  1  0.366190  0.521600  0.212740  1
  Co  Co8  1  0.633810  0.478400  0.787260  1
  H  H9  1  0.931400  0.252200  0.971800  1
  H  H10  1  0.068600  0.747800  0.028200  1
  H  H11  1  0.819000  0.253300  0.924600  1
  H  H12  1  0.181000  0.746700  0.075400  1
  H  H13  1  0.686800  0.165400  0.927100  1
  H  H14  1  0.313200  0.834600  0.072900  1
  H  H15  1  0.665100  0.069800  0.974800  1
  H  H16  1  0.334900  0.930200  0.025200  1
  H  H17  1  0.041700  0.235600  0.022400  1
  H  H18  1  0.958300  0.764400  0.977600  1
  H  H19  1  0.094600  0.192100  0.086000  1
  H  H20  1  0.905400  0.807900  0.914000  1
  H  H21  1  0.931100  0.085400  0.138200  1
  H  H22  1  0.068900  0.914600  0.861800  1
  H  H23  1  0.028900  0.123300  0.145500  1
  H  H24  1  0.971100  0.876700  0.854500  1
  H  H25  1  0.962500  0.983800  0.176900  1
  H  H26  1  0.037500  0.016200  0.823100  1
  H  H27  1  0.982800  0.815100  0.109300  1
  H  H28  1  0.017200  0.184900  0.890700  1
  H  H29  1  0.985200  0.884800  0.051700  1
  H  H30  1  0.014800  0.115200  0.948300  1
  H  H31  1  0.985300  0.005900  0.056900  1
  H  H32  1  0.014700  0.994100  0.943100  1
  H  H33  1  0.889200  0.883400  0.211200  1
  H  H34  1  0.110800  0.116600  0.788800  1
  H  H35  1  0.963600  0.744400  0.279100  1
  H  H36  1  0.036400  0.255600  0.720900  1
  H  H37  1  0.029900  0.728100  0.230900  1
  H  H38  1  0.970100  0.271900  0.769100  1
  H  H39  1  0.043500  0.800300  0.174200  1
  H  H40  1  0.956500  0.199700  0.825800  1
  H  H41  1  0.887000  0.877800  0.288800  1
  H  H42  1  0.113000  0.122200  0.711200  1
  H  H43  1  0.810200  0.800500  0.264800  1
  H  H44  1  0.189800  0.199500  0.735200  1
  H  H45  1  0.834300  0.638800  0.366000  1
  H  H46  1  0.165700  0.361200  0.634000  1
  H  H47  1  0.778200  0.670500  0.300000  1
  H  H48  1  0.221800  0.329500  0.700000  1
  H  H49  1  0.940000  0.670500  0.435100  1
  H  H50  1  0.060000  0.329500  0.564900  1
  H  H51  1  0.032700  0.707400  0.495100  1
  H  H52  1  0.967300  0.292600  0.504900  1
  H  H53  1  0.141800  0.831900  0.507900  1
  H  H54  1  0.858200  0.168100  0.492100  1
  H  H55  1  0.146500  0.919900  0.457000  1
  H  H56  1  0.853500  0.080100  0.543000  1
  H  H57  1  0.180100  0.934100  0.254200  1
  H  H58  1  0.819900  0.065900  0.745800  1
  H  H59  1  0.243400  0.849100  0.275800  1
  H  H60  1  0.756600  0.150900  0.724200  1
  H  H61  1  0.218400  0.791800  0.338200  1
  H  H62  1  0.781600  0.208200  0.661800  1
  H  H63  1  0.146300  0.828700  0.378700  1
  H  H64  1  0.853700  0.171300  0.621300  1
  H  H65  1  0.132900  0.036300  0.245300  1
  H  H66  1  0.867100  0.963700  0.754700  1
  H  H67  1  0.029700  0.094600  0.250700  1
  H  H68  1  0.970300  0.905400  0.749300  1
  H  H69  1  0.902700  0.994700  0.318900  1
  H  H70  1  0.097300  0.005300  0.681100  1
  H  H71  1  0.911900  0.058200  0.287300  1
  H  H72  1  0.088100  0.941800  0.712700  1
  H  H73  1  0.850600  0.077200  0.350600  1
  H  H74  1  0.149400  0.922800  0.649400  1
  H  H75  1  0.013500  0.263100  0.431400  1
  H  H76  1  0.986500  0.736900  0.568600  1
  H  H77  1  0.116300  0.256600  0.406500  1
  H  H78  1  0.883700  0.743400  0.593500  1
  H  H79  1  0.092200  0.162100  0.350800  1
  H  H80  1  0.907800  0.837900  0.649200  1
  H  H81  1  0.901500  0.298600  0.418200  1
  H  H82  1  0.098500  0.701400  0.581800  1
  H  H83  1  0.677000  0.194200  0.447000  1
  H  H84  1  0.323000  0.805800  0.553000  1
  H  H85  1  0.666800  0.072900  0.424500  1
  H  H86  1  0.333200  0.927100  0.575500  1
  H  H87  1  0.771900  0.060300  0.399800  1
  H  H88  1  0.228100  0.939700  0.600200  1
  H  H89  1  0.802400  0.346600  0.476800  1
  H  H90  1  0.197600  0.653400  0.523200  1
  H  H91  1  0.737900  0.336200  0.435300  1
  H  H92  1  0.262100  0.663800  0.564700  1
  H  H93  1  0.028000  0.540100  0.435100  1
  H  H94  1  0.972000  0.459900  0.564900  1
  H  H95  1  0.955700  0.444600  0.481100  1
  H  H96  1  0.044300  0.555400  0.518900  1
  H  H97  1  0.038500  0.611000  0.373300  1
  H  H98  1  0.961500  0.389000  0.626700  1
  H  H99  1  0.038400  0.668700  0.315200  1
  H  H100  1  0.961600  0.331300  0.684800  1
  H  H101  1  0.931800  0.609300  0.257700  1
  H  H102  1  0.068200  0.390700  0.742300  1
  H  H103  1  0.817000  0.499100  0.266200  1
  H  H104  1  0.183000  0.500900  0.733800  1
  H  H105  1  0.780100  0.779600  0.025300  1
  H  H106  1  0.219900  0.220400  0.974700  1
  H  H107  1  0.801300  0.786900  0.957400  1
  H  H108  1  0.198700  0.213100  0.042600  1
  H  H109  1  0.836800  0.908000  0.930000  1
  H  H110  1  0.163200  0.092000  0.070000  1
  H  H111  1  0.826500  0.008700  0.968900  1
  H  H112  1  0.173500  0.991300  0.031100  1
  H  H113  1  0.755900  0.782600  0.100400  1
  H  H114  1  0.244100  0.217400  0.899600  1
  H  H115  1  0.743200  0.848400  0.163400  1
  H  H116  1  0.256800  0.151600  0.836600  1
  H  H117  1  0.789700  0.052700  0.152300  1
  H  H118  1  0.210300  0.947300  0.847700  1
  H  H119  1  0.785600  0.998300  0.188300  1
  H  H120  1  0.214400  0.001700  0.811700  1
  H  H121  1  0.708500  0.091600  0.196900  1
  H  H122  1  0.291500  0.908400  0.803100  1
  H  H123  1  0.462600  0.969700  0.166700  1
  H  H124  1  0.537400  0.030300  0.833300  1
  H  H125  1  0.477700  0.875700  0.126200  1
  H  H126  1  0.522300  0.124300  0.873800  1
  H  H127  1  0.606500  0.884600  0.123000  1
  H  H128  1  0.393500  0.115400  0.877000  1
  H  H129  1  0.674100  0.194500  0.194000  1
  H  H130  1  0.325900  0.805500  0.806000  1
  H  H131  1  0.547700  0.266700  0.259600  1
  H  H132  1  0.452300  0.733300  0.740400  1
  H  H133  1  0.456600  0.132800  0.261900  1
  H  H134  1  0.543400  0.867200  0.738100  1
  H  H135  1  0.478200  0.031400  0.233600  1
  H  H136  1  0.521800  0.968600  0.766400  1
  H  H137  1  0.731200  0.335300  0.234000  1
  H  H138  1  0.268800  0.664700  0.766000  1
  H  H139  1  0.670900  0.330600  0.191900  1
  H  H140  1  0.329100  0.669400  0.808100  1
  H  H141  1  0.590500  0.510600  0.247500  1
  H  H142  1  0.409500  0.489400  0.752500  1
  H  H143  1  0.602500  0.419100  0.192400  1
  H  H144  1  0.397500  0.580900  0.807600  1
  H  H145  1  0.605100  0.566200  0.319200  1
  H  H146  1  0.394900  0.433800  0.680800  1
  H  H147  1  0.634200  0.620500  0.386500  1
  H  H148  1  0.365800  0.379500  0.613500  1
  H  H149  1  0.708500  0.579600  0.439800  1
  H  H150  1  0.291500  0.420400  0.560200  1
  H  H151  1  0.763200  0.495900  0.418400  1
  H  H152  1  0.236800  0.504100  0.581600  1
  H  H153  1  0.472500  0.959300  0.051000  1
  H  H154  1  0.527500  0.040700  0.949000  1
  H  H155  1  0.414000  0.840700  0.009000  1
  H  H156  1  0.586000  0.159300  0.991000  1
  H  H157  1  0.498800  0.796200  0.979200  1
  H  H158  1  0.501200  0.203800  0.020800  1
  H  H159  1  0.638400  0.876700  0.991700  1
  H  H160  1  0.361600  0.123300  0.008300  1
  H  H161  1  0.547700  0.097900  0.086400  1
  H  H162  1  0.452300  0.902100  0.913600  1
  H  H163  1  0.669900  0.217600  0.120400  1
  H  H164  1  0.330100  0.782400  0.879600  1
  H  H165  1  0.859500  0.195200  0.121100  1
  H  H166  1  0.140500  0.804800  0.878900  1
  H  H167  1  0.830100  0.252900  0.142500  1
  H  H168  1  0.169900  0.747100  0.857500  1
  H  H169  1  0.972000  0.320800  0.113800  1
  H  H170  1  0.028000  0.679200  0.886200  1
  H  H171  1  0.937300  0.435300  0.017500  1
  H  H172  1  0.062700  0.564700  0.982500  1
  H  H173  1  0.794500  0.357100  0.007800  1
  H  H174  1  0.205500  0.642900  0.992200  1
  H  H175  1  0.741200  0.257800  0.047700  1
  H  H176  1  0.258800  0.742200  0.952300  1
  H  H177  1  0.088200  0.345300  0.093400  1
  H  H178  1  0.911800  0.654700  0.906600  1
  H  H179  1  0.286500  0.547500  0.091100  1
  H  H180  1  0.713500  0.452500  0.908900  1
  H  H181  1  0.199500  0.603100  0.064800  1
  H  H182  1  0.800500  0.396900  0.935200  1
  H  H183  1  0.060100  0.535700  0.057200  1
  H  H184  1  0.939900  0.464300  0.942800  1
  H  H185  1  0.504400  0.513300  0.093200  1
  H  H186  1  0.495600  0.486700  0.906800  1
  H  H187  1  0.360600  0.419300  0.060800  1
  H  H188  1  0.639400  0.580700  0.939200  1
  H  H189  1  0.226300  0.348200  0.088900  1
  H  H190  1  0.773700  0.651800  0.911100  1
  H  H191  1  0.227900  0.375100  0.135300  1
  H  H192  1  0.772100  0.624900  0.864700  1
  H  H193  1  0.614300  0.615500  0.144700  1
  H  H194  1  0.385700  0.384500  0.855300  1
  H  H195  1  0.712100  0.711500  0.199500  1
  H  H196  1  0.287900  0.288500  0.800500  1
  H  H197  1  0.672100  0.726500  0.262800  1
  H  H198  1  0.327900  0.273500  0.737200  1
  H  H199  1  0.532400  0.648600  0.266500  1
  H  H200  1  0.467600  0.351400  0.733500  1
  H  H201  1  0.989500  0.086200  0.478600  1
  H  H202  1  0.010500  0.913800  0.521400  1
  H  H203  1  0.848000  0.016700  0.468800  1
  H  H204  1  0.152000  0.983300  0.531200  1
  H  H205  1  0.775800  0.910300  0.416300  1
  H  H206  1  0.224200  0.089700  0.583700  1
  H  H207  1  0.850600  0.877400  0.375300  1
  H  H208  1  0.149400  0.122600  0.624700  1
  H  H209  1  0.143100  0.149700  0.487500  1
  H  H210  1  0.856900  0.850300  0.512500  1
  H  H211  1  0.272900  0.164300  0.474600  1
  H  H212  1  0.727100  0.835700  0.525400  1
  H  H213  1  0.253800  0.000100  0.406300  1
  H  H214  1  0.746200  0.999900  0.593700  1
  H  H215  1  0.322600  0.081500  0.431300  1
  H  H216  1  0.677400  0.918500  0.568700  1
  H  H217  1  0.239300  0.175800  0.378800  1
  H  H218  1  0.760700  0.824200  0.621200  1
  H  H219  1  0.301700  0.169900  0.267200  1
  H  H220  1  0.698300  0.830100  0.732800  1
  H  H221  1  0.340700  0.071500  0.285700  1
  H  H222  1  0.659300  0.928500  0.714300  1
  H  H223  1  0.322100  0.017000  0.348000  1
  H  H224  1  0.677900  0.983000  0.652000  1
  H  H225  1  0.219600  0.227100  0.250400  1
  H  H226  1  0.780400  0.772900  0.749600  1
  H  H227  1  0.196100  0.417100  0.287300  1
  H  H228  1  0.803900  0.582900  0.712700  1
  H  H229  1  0.240300  0.404400  0.356100  1
  H  H230  1  0.759700  0.595600  0.643900  1
  H  H231  1  0.279500  0.304100  0.372400  1
  H  H232  1  0.720500  0.695900  0.627600  1
  H  H233  1  0.073500  0.497300  0.177800  1
  H  H234  1  0.926500  0.502700  0.822200  1
  H  H235  1  0.045100  0.368000  0.201300  1
  H  H236  1  0.954900  0.632000  0.798700  1
  H  H237  1  0.214500  0.320600  0.202000  1
  H  H238  1  0.785500  0.679400  0.798000  1
  H  H239  1  0.122100  0.283300  0.208300  1
  H  H240  1  0.877900  0.716700  0.791700  1
  H  H241  1  0.165600  0.626700  0.158400  1
  H  H242  1  0.834400  0.373300  0.841600  1
  H  H243  1  0.258500  0.752400  0.146900  1
  H  H244  1  0.741500  0.247600  0.853100  1
  H  H245  1  0.398500  0.787000  0.165400  1
  H  H246  1  0.601500  0.213000  0.834600  1
  H  H247  1  0.441500  0.698100  0.192100  1
  H  H248  1  0.558500  0.301900  0.807900  1
  H  H249  1  0.584400  0.103800  0.341700  1
  H  H250  1  0.415600  0.896200  0.658300  1
  H  H251  1  0.481400  0.112400  0.370500  1
  H  H252  1  0.518600  0.887600  0.629500  1
  H  H253  1  0.485700  0.234800  0.384700  1
  H  H254  1  0.514300  0.765200  0.615300  1
  H  H255  1  0.587000  0.344400  0.371100  1
  H  H256  1  0.413000  0.655600  0.628900  1
  H  H257  1  0.708100  0.112100  0.313800  1
  H  H258  1  0.291900  0.887900  0.686200  1
  H  H259  1  0.832700  0.176600  0.280900  1
  H  H260  1  0.167300  0.823400  0.719100  1
  H  H261  1  0.861400  0.372000  0.263300  1
  H  H262  1  0.138600  0.628000  0.736700  1
  H  H263  1  0.894000  0.308300  0.254100  1
  H  H264  1  0.106000  0.691700  0.745900  1
  H  H265  1  0.003200  0.462000  0.260500  1
  H  H266  1  0.996800  0.538000  0.739500  1
  H  H267  1  0.171500  0.518400  0.366400  1
  H  H268  1  0.828500  0.481600  0.633600  1
  H  H269  1  0.087500  0.412200  0.392900  1
  H  H270  1  0.912500  0.587800  0.607100  1
  H  H271  1  0.956800  0.326200  0.354200  1
  H  H272  1  0.043200  0.673800  0.645800  1
  H  H273  1  0.263500  0.566400  0.321200  1
  H  H274  1  0.736500  0.433600  0.678800  1
  H  H275  1  0.299000  0.743100  0.250900  1
  H  H276  1  0.701000  0.256900  0.749100  1
  H  H277  1  0.160600  0.703900  0.232800  1
  H  H278  1  0.839400  0.296100  0.767200  1
  H  H279  1  0.068300  0.592200  0.257700  1
  H  H280  1  0.931700  0.407800  0.742300  1
  H  H281  1  0.452800  0.509000  0.366800  1
  H  H282  1  0.547200  0.491000  0.633200  1
  H  H283  1  0.443600  0.637500  0.370200  1
  H  H284  1  0.556400  0.362500  0.629800  1
  H  H285  1  0.407400  0.697500  0.271800  1
  H  H286  1  0.592600  0.302500  0.728200  1
  H  H287  1  0.413600  0.720400  0.319400  1
  H  H288  1  0.586400  0.279600  0.680600  1
  H  H289  1  0.452600  0.394300  0.329900  1
  H  H290  1  0.547400  0.605700  0.670100  1
  H  H291  1  0.451300  0.286700  0.291400  1
  H  H292  1  0.548700  0.713300  0.708600  1
  H  H293  1  0.408600  0.270100  0.219400  1
  H  H294  1  0.591400  0.729900  0.780600  1
  H  H295  1  0.371600  0.359800  0.187600  1
  H  H296  1  0.628400  0.640200  0.812400  1
  C  C297  1  0.859900  0.163500  0.000800  1
  C  C298  1  0.140100  0.836500  0.999200  1
  C  C299  1  0.876700  0.216900  0.972300  1
  C  C300  1  0.123300  0.783100  0.027700  1
  C  C301  1  0.810000  0.217100  0.944300  1
  C  C302  1  0.190000  0.782900  0.055700  1
  C  C303  1  0.732200  0.164900  0.945600  1
  C  C304  1  0.267800  0.835100  0.054400  1
  C  C305  1  0.718800  0.109000  0.975100  1
  C  C306  1  0.281200  0.891000  0.024900  1
  C  C307  1  0.923700  0.161300  0.033500  1
  C  C308  1  0.076300  0.838700  0.966500  1
  C  C309  1  0.010500  0.200500  0.039200  1
  C  C310  1  0.989500  0.799500  0.960800  1
  C  C311  1  0.038600  0.176800  0.073800  1
  C  C312  1  0.961400  0.823200  0.926200  1
  C  C313  1  0.977500  0.089500  0.125600  1
  C  C314  1  0.022500  0.910500  0.874400  1
  C  C315  1  0.973900  0.006400  0.118600  1
  C  C316  1  0.026100  0.993600  0.881400  1
  C  C317  1  0.967800  0.963300  0.151600  1
  C  C318  1  0.032200  0.036700  0.848400  1
  C  C319  1  0.969400  0.891700  0.148400  1
  C  C320  1  0.030600  0.108300  0.851600  1
  C  C321  1  0.978700  0.863500  0.111600  1
  C  C322  1  0.021300  0.136500  0.888400  1
  C  C323  1  0.982200  0.906600  0.077200  1
  C  C324  1  0.017800  0.093400  0.922800  1
  C  C325  1  0.981200  0.976700  0.079700  1
  C  C326  1  0.018800  0.023300  0.920300  1
  C  C327  1  0.965300  0.847600  0.185100  1
  C  C328  1  0.034700  0.152400  0.814900  1
  C  C329  1  0.919300  0.852900  0.215200  1
  C  C330  1  0.080700  0.147100  0.784800  1
  C  C331  1  0.918200  0.815000  0.249100  1
  C  C332  1  0.081800  0.185000  0.750900  1
  C  C333  1  0.962800  0.769800  0.254900  1
  C  C334  1  0.037200  0.230200  0.745100  1
  C  C335  1  0.003900  0.762100  0.227200  1
  C  C336  1  0.996100  0.237900  0.772800  1
  C  C337  1  0.009900  0.803000  0.192400  1
  C  C338  1  0.990100  0.197000  0.807600  1
  C  C339  1  0.868300  0.821500  0.279300  1
  C  C340  1  0.131700  0.178500  0.720700  1
  C  C341  1  0.927300  0.758000  0.372600  1
  C  C342  1  0.072700  0.242000  0.627400  1
  C  C343  1  0.855500  0.687400  0.354900  1
  C  C344  1  0.144500  0.312600  0.645100  1
  C  C345  1  0.825800  0.705400  0.319400  1
  C  C346  1  0.174200  0.294600  0.680600  1
  C  C347  1  0.985700  0.776100  0.412400  1
  C  C348  1  0.014300  0.223900  0.587600  1
  C  C349  1  0.982400  0.722600  0.440900  1
  C  C350  1  0.017600  0.277400  0.559100  1
  C  C351  1  0.037300  0.743500  0.475500  1
  C  C352  1  0.962700  0.256500  0.524500  1
  C  C353  1  0.100600  0.816200  0.483400  1
  C  C354  1  0.899400  0.183800  0.516600  1
  C  C355  1  0.102300  0.868800  0.452500  1
  C  C356  1  0.897700  0.131200  0.547500  1
  C  C357  1  0.129400  0.929100  0.305200  1
  C  C358  1  0.870600  0.070900  0.694800  1
  C  C359  1  0.174300  0.912100  0.279300  1
  C  C360  1  0.825700  0.087900  0.720700  1
  C  C361  1  0.211000  0.860900  0.291900  1
  C  C362  1  0.789000  0.139100  0.708100  1
  C  C363  1  0.197200  0.828000  0.329500  1
  C  C364  1  0.802800  0.172000  0.670500  1
  C  C365  1  0.152800  0.849200  0.353200  1
  C  C366  1  0.847200  0.150800  0.646800  1
  C  C367  1  0.092600  0.980500  0.294300  1
  C  C368  1  0.907400  0.019500  0.705700  1
  C  C369  1  0.098500  0.027100  0.264700  1
  C  C370  1  0.901500  0.972900  0.735300  1
  C  C371  1  0.042100  0.060600  0.268100  1
  C  C372  1  0.957900  0.939400  0.731900  1
  C  C373  1  0.941400  0.045000  0.311500  1
  C  C374  1  0.058600  0.955000  0.688500  1
  C  C375  1  0.967400  0.109200  0.347600  1
  C  C376  1  0.032600  0.890800  0.652400  1
  C  C377  1  0.905500  0.114100  0.362100  1
  C  C378  1  0.094500  0.885900  0.637900  1
  C  C379  1  0.920600  0.172000  0.393500  1
  C  C380  1  0.079400  0.828000  0.606500  1
  C  C381  1  0.001200  0.223800  0.409400  1
  C  C382  1  0.998800  0.776200  0.590600  1
  C  C383  1  0.061600  0.219700  0.394600  1
  C  C384  1  0.938400  0.780300  0.605400  1
  C  C385  1  0.048600  0.163200  0.362000  1
  C  C386  1  0.951400  0.836800  0.638000  1
  C  C387  1  0.848000  0.177800  0.408800  1
  C  C388  1  0.152000  0.822200  0.591200  1
  C  C389  1  0.853900  0.253000  0.420200  1
  C  C390  1  0.146100  0.747000  0.579800  1
  C  C391  1  0.789000  0.260500  0.434600  1
  C  C392  1  0.211000  0.739500  0.565400  1
  C  C393  1  0.720700  0.191300  0.436500  1
  C  C394  1  0.279300  0.808700  0.563500  1
  C  C395  1  0.715100  0.118700  0.423500  1
  C  C396  1  0.284900  0.881300  0.576500  1
  C  C397  1  0.777200  0.110700  0.409200  1
  C  C398  1  0.222800  0.889300  0.590800  1
  C  C399  1  0.792100  0.337400  0.446400  1
  C  C400  1  0.207900  0.662600  0.553600  1
  C  C401  1  0.919200  0.484000  0.392600  1
  C  C402  1  0.080800  0.516000  0.607400  1
  C  C403  1  0.973100  0.500400  0.428500  1
  C  C404  1  0.026900  0.499600  0.571500  1
  C  C405  1  0.933400  0.448600  0.453700  1
  C  C406  1  0.066600  0.551400  0.546300  1
  C  C407  1  0.926100  0.522000  0.355800  1
  C  C408  1  0.073900  0.478000  0.644200  1
  C  C409  1  0.992100  0.588000  0.351200  1
  C  C410  1  0.007900  0.412000  0.648800  1
  C  C411  1  0.992800  0.620900  0.316700  1
  C  C412  1  0.007200  0.379100  0.683300  1
  C  C413  1  0.929700  0.588000  0.283200  1
  C  C414  1  0.070300  0.412000  0.716800  1
  C  C415  1  0.863000  0.522300  0.288500  1
  C  C416  1  0.137000  0.477700  0.711500  1
  C  C417  1  0.787700  0.889600  0.033400  1
  C  C418  1  0.212300  0.110400  0.966600  1
  C  C419  1  0.789000  0.826100  0.012800  1
  C  C420  1  0.211000  0.173900  0.987200  1
  C  C421  1  0.803700  0.831300  0.972900  1
  C  C422  1  0.196300  0.168700  0.027100  1
  C  C423  1  0.821600  0.900900  0.956000  1
  C  C424  1  0.178400  0.099100  0.044000  1
  C  C425  1  0.815900  0.960400  0.979900  1
  C  C426  1  0.184100  0.039600  0.020100  1
  C  C427  1  0.771900  0.889500  0.075200  1
  C  C428  1  0.228100  0.110500  0.924800  1
  C  C429  1  0.759200  0.834000  0.104200  1
  C  C430  1  0.240800  0.166000  0.895800  1
  C  C431  1  0.752700  0.870600  0.138500  1
  C  C432  1  0.247300  0.129400  0.861500  1
  C  C433  1  0.758300  0.000100  0.160200  1
  C  C434  1  0.241700  0.999900  0.839800  1
  C  C435  1  0.672700  0.990200  0.161100  1
  C  C436  1  0.327300  0.009800  0.838900  1
  C  C437  1  0.661500  0.046600  0.182800  1
  C  C438  1  0.338500  0.953400  0.817200  1
  C  C439  1  0.584500  0.040600  0.184900  1
  C  C440  1  0.415500  0.959400  0.815100  1
  C  C441  1  0.515700  0.975700  0.164700  1
  C  C442  1  0.484300  0.024300  0.835300  1
  C  C443  1  0.525200  0.919200  0.141200  1
  C  C444  1  0.474800  0.080800  0.858800  1
  C  C445  1  0.601500  0.924400  0.139000  1
  C  C446  1  0.398500  0.075600  0.861000  1
  C  C447  1  0.575500  0.103100  0.208200  1
  C  C448  1  0.424500  0.896900  0.791800  1
  C  C449  1  0.629400  0.181900  0.207400  1
  C  C450  1  0.370600  0.818100  0.792600  1
  C  C451  1  0.616500  0.242500  0.226700  1
  C  C452  1  0.383500  0.757500  0.773300  1
  C  C453  1  0.555500  0.225600  0.246600  1
  C  C454  1  0.444500  0.774400  0.753400  1
  C  C455  1  0.501000  0.144400  0.248300  1
  C  C456  1  0.499000  0.855600  0.751700  1
  C  C457  1  0.512000  0.084400  0.230800  1
  C  C458  1  0.488000  0.915600  0.769200  1
  C  C459  1  0.674200  0.325600  0.221600  1
  C  C460  1  0.325800  0.674400  0.778400  1
  C  C461  1  0.652100  0.461700  0.288300  1
  C  C462  1  0.347900  0.538300  0.711700  1
  C  C463  1  0.614800  0.475100  0.251700  1
  C  C464  1  0.385200  0.524900  0.748300  1
  C  C465  1  0.620900  0.423600  0.221300  1
  C  C466  1  0.379100  0.576400  0.778700  1
  C  C467  1  0.667900  0.498500  0.329500  1
  C  C468  1  0.332100  0.501500  0.670500  1
  C  C469  1  0.637200  0.551900  0.340000  1
  C  C470  1  0.362800  0.448100  0.660000  1
  C  C471  1  0.653600  0.583100  0.379900  1
  C  C472  1  0.346400  0.416900  0.620100  1
  C  C473  1  0.698900  0.560700  0.411600  1
  C  C474  1  0.301100  0.439300  0.588400  1
  C  C475  1  0.728600  0.508800  0.398400  1
  C  C476  1  0.271400  0.491200  0.601600  1
  C  C477  1  0.592000  0.987400  0.044800  1
  C  C478  1  0.408000  0.012600  0.955200  1
  C  C479  1  0.505400  0.941500  0.038500  1
  C  C480  1  0.494600  0.058500  0.961500  1
  C  C481  1  0.471600  0.871900  0.014100  1
  C  C482  1  0.528400  0.128100  0.985900  1
  C  C483  1  0.521600  0.845100  0.996200  1
  C  C484  1  0.478400  0.154900  0.003800  1
  C  C485  1  0.604700  0.893300  0.004300  1
  C  C486  1  0.395300  0.106700  0.995700  1
  C  C487  1  0.632800  0.060200  0.070800  1
  C  C488  1  0.367200  0.939800  0.929200  1
  C  C489  1  0.603400  0.108400  0.087700  1
  C  C490  1  0.396600  0.891600  0.912300  1
  C  C491  1  0.670400  0.173200  0.106300  1
  C  C492  1  0.329600  0.826800  0.893700  1
  C  C493  1  0.824300  0.223200  0.116100  1
  C  C494  1  0.175700  0.776800  0.883900  1
  C  C495  1  0.852800  0.278800  0.086000  1
  C  C496  1  0.147200  0.721200  0.914000  1
  C  C497  1  0.935300  0.326700  0.091600  1
  C  C498  1  0.064700  0.673300  0.908400  1
  C  C499  1  0.966400  0.382800  0.066200  1
  C  C500  1  0.033600  0.617200  0.933800  1
  C  C501  1  0.915800  0.395800  0.034700  1
  C  C502  1  0.084200  0.604200  0.965300  1
  C  C503  1  0.830700  0.348300  0.029000  1
  C  C504  1  0.169300  0.651700  0.971000  1
  C  C505  1  0.798600  0.290200  0.052900  1
  C  C506  1  0.201400  0.709800  0.947100  1
  C  C507  1  0.059400  0.432500  0.073100  1
  C  C508  1  0.940600  0.567500  0.926900  1
  C  C509  1  0.111500  0.398300  0.087700  1
  C  C510  1  0.888500  0.601700  0.912300  1
  C  C511  1  0.196900  0.439700  0.094200  1
  C  C512  1  0.803100  0.560300  0.905800  1
  C  C513  1  0.228700  0.517100  0.086300  1
  C  C514  1  0.771300  0.482900  0.913700  1
  C  C515  1  0.176700  0.550700  0.071300  1
  C  C516  1  0.823300  0.449300  0.928700  1
  C  C517  1  0.094200  0.510500  0.065900  1
  C  C518  1  0.905800  0.489500  0.934100  1
  C  C519  1  0.456300  0.525700  0.143400  1
  C  C520  1  0.543700  0.474300  0.856600  1
  C  C521  1  0.457700  0.498600  0.105200  1
  C  C522  1  0.542300  0.501400  0.894800  1
  C  C523  1  0.379900  0.446800  0.087800  1
  C  C524  1  0.620100  0.553200  0.912200  1
  C  C525  1  0.242800  0.394500  0.109300  1
  C  C526  1  0.757200  0.605500  0.890700  1
  C  C527  1  0.519000  0.582800  0.176600  1
  C  C528  1  0.481000  0.417200  0.823400  1
  C  C529  1  0.599900  0.624600  0.169800  1
  C  C530  1  0.400100  0.375400  0.830200  1
  C  C531  1  0.657600  0.680500  0.202600  1
  C  C532  1  0.342400  0.319500  0.797400  1
  C  C533  1  0.634200  0.690300  0.240100  1
  C  C534  1  0.365800  0.309700  0.759900  1
  C  C535  1  0.549300  0.642200  0.241800  1
  C  C536  1  0.450700  0.357800  0.758200  1
  C  C537  1  0.000400  0.017700  0.432500  1
  C  C538  1  0.999600  0.982300  0.567500  1
  C  C539  1  0.960000  0.042600  0.457800  1
  C  C540  1  0.040000  0.957400  0.542200  1
  C  C541  1  0.876900  0.001900  0.451700  1
  C  C542  1  0.123100  0.998100  0.548300  1
  C  C543  1  0.833700  0.938800  0.420800  1
  C  C544  1  0.166300  0.061200  0.579200  1
  C  C545  1  0.878800  0.919600  0.396900  1
  C  C546  1  0.121200  0.080400  0.603100  1
  C  C547  1  0.090100  0.055800  0.438100  1
  C  C548  1  0.909900  0.944200  0.561900  1
  C  C549  1  0.151700  0.119000  0.467200  1
  C  C550  1  0.848300  0.881000  0.532800  1
  C  C551  1  0.220600  0.126000  0.460300  1
  C  C552  1  0.779400  0.874000  0.539700  1
  C  C553  1  0.269500  0.057100  0.411200  1
  C  C554  1  0.730500  0.942900  0.588800  1
  C  C555  1  0.280600  0.093300  0.369800  1
  C  C556  1  0.719400  0.906700  0.630200  1
  C  C557  1  0.260900  0.155000  0.360000  1
  C  C558  1  0.739100  0.845000  0.640000  1
  C  C559  1  0.271800  0.186300  0.323800  1
  C  C560  1  0.728200  0.813700  0.676200  1
  C  C561  1  0.298400  0.152100  0.293500  1
  C  C562  1  0.701600  0.847900  0.706500  1
  C  C563  1  0.318900  0.092300  0.304400  1
  C  C564  1  0.681100  0.907700  0.695600  1
  C  C565  1  0.309400  0.059900  0.342000  1
  C  C566  1  0.690600  0.940100  0.658000  1
  C  C567  1  0.249600  0.252900  0.313400  1
  C  C568  1  0.750400  0.747100  0.686600  1
  C  C569  1  0.224600  0.263600  0.272400  1
  C  C570  1  0.775400  0.736400  0.727600  1
  C  C571  1  0.207400  0.326400  0.263700  1
  C  C572  1  0.792600  0.673600  0.736300  1
  C  C573  1  0.211200  0.375800  0.293600  1
  C  C574  1  0.788800  0.624200  0.706400  1
  C  C575  1  0.237300  0.367900  0.334700  1
  C  C576  1  0.762700  0.632100  0.665300  1
  C  C577  1  0.258900  0.307600  0.344700  1
  C  C578  1  0.741100  0.692400  0.655300  1
  C  C579  1  0.198500  0.516000  0.189800  1
  C  C580  1  0.801500  0.484000  0.810200  1
  C  C581  1  0.112400  0.477300  0.186700  1
  C  C582  1  0.887600  0.522700  0.813300  1
  C  C583  1  0.097300  0.406800  0.199100  1
  C  C584  1  0.902700  0.593200  0.800900  1
  C  C585  1  0.176800  0.328200  0.217700  1
  C  C586  1  0.823200  0.671800  0.782300  1
  C  C587  1  0.254300  0.592500  0.181700  1
  C  C588  1  0.745700  0.407500  0.818300  1
  C  C589  1  0.223100  0.642600  0.165100  1
  C  C590  1  0.776900  0.357400  0.834900  1
  C  C591  1  0.277800  0.716700  0.158500  1
  C  C592  1  0.722200  0.283300  0.841500  1
  C  C593  1  0.359400  0.736500  0.169100  1
  C  C594  1  0.640600  0.263500  0.830900  1
  C  C595  1  0.384200  0.683400  0.185000  1
  C  C596  1  0.615800  0.316600  0.815000  1
  C  C597  1  0.651500  0.226300  0.343100  1
  C  C598  1  0.348500  0.773700  0.656900  1
  C  C599  1  0.585200  0.153200  0.349000  1
  C  C600  1  0.414800  0.846800  0.651000  1
  C  C601  1  0.525000  0.158200  0.365100  1
  C  C602  1  0.475000  0.841800  0.634900  1
  C  C603  1  0.528000  0.230500  0.373400  1
  C  C604  1  0.472000  0.769500  0.626600  1
  C  C605  1  0.589300  0.295600  0.366200  1
  C  C606  1  0.410700  0.704400  0.633800  1
  C  C607  1  0.718000  0.227000  0.324100  1
  C  C608  1  0.282000  0.773000  0.675900  1
  C  C609  1  0.736300  0.166200  0.311000  1
  C  C610  1  0.263700  0.833800  0.689000  1
  C  C611  1  0.805000  0.201700  0.292800  1
  C  C612  1  0.195000  0.798300  0.707200  1
  C  C613  1  0.884600  0.337700  0.276400  1
  C  C614  1  0.115400  0.662300  0.723600  1
  C  C615  1  0.965500  0.388600  0.303500  1
  C  C616  1  0.034500  0.611400  0.696500  1
  C  C617  1  0.020000  0.451900  0.287500  1
  C  C618  1  0.980000  0.548100  0.712500  1
  C  C619  1  0.097000  0.499800  0.309500  1
  C  C620  1  0.903000  0.500200  0.690500  1
  C  C621  1  0.119500  0.484000  0.350000  1
  C  C622  1  0.880500  0.516000  0.650000  1
  C  C623  1  0.069500  0.421700  0.366000  1
  C  C624  1  0.930500  0.578300  0.634000  1
  C  C625  1  0.991500  0.371000  0.343400  1
  C  C626  1  0.008500  0.629000  0.656600  1
  C  C627  1  0.154900  0.567500  0.292700  1
  C  C628  1  0.845100  0.432500  0.707300  1
  C  C629  1  0.241200  0.593400  0.303100  1
  C  C630  1  0.758800  0.406600  0.696900  1
  C  C631  1  0.292300  0.656600  0.287300  1
  C  C632  1  0.707700  0.343400  0.712700  1
  C  C633  1  0.262300  0.698600  0.261100  1
  C  C634  1  0.737700  0.301400  0.738900  1
  C  C635  1  0.181500  0.675500  0.250600  1
  C  C636  1  0.818500  0.324500  0.749400  1
  C  C637  1  0.125800  0.608600  0.265900  1
  C  C638  1  0.874200  0.391400  0.734100  1
  C  C639  1  0.415300  0.507300  0.301800  1
  C  C640  1  0.584700  0.492700  0.698200  1
  C  C641  1  0.437600  0.533600  0.344600  1
  C  C642  1  0.562400  0.466400  0.655400  1
  C  C643  1  0.431600  0.603400  0.345800  1
  C  C644  1  0.568400  0.396600  0.654200  1
  C  C645  1  0.385500  0.677300  0.296400  1
  C  C646  1  0.614500  0.322700  0.703600  1
  C  C647  1  0.414200  0.437700  0.279500  1
  C  C648  1  0.585800  0.562300  0.720500  1
  C  C649  1  0.436700  0.386500  0.300800  1
  C  C650  1  0.563300  0.613500  0.699200  1
  C  C651  1  0.435400  0.323200  0.278100  1
  C  C652  1  0.564600  0.676800  0.721900  1
  C  C653  1  0.410600  0.313700  0.235500  1
  C  C654  1  0.589400  0.686300  0.764500  1
  C  C655  1  0.389100  0.367500  0.216700  1
  C  C656  1  0.610900  0.632500  0.783300  1
  C  C657  1  0.194500  0.934800  0.134600  1
  C  C658  1  0.805500  0.065200  0.865400  1
  C  C659  1  0.251000  0.924400  0.169500  1
  C  C660  1  0.749000  0.075600  0.830500  1
  C  C661  1  0.191700  0.456900  0.968800  1
  C  C662  1  0.808300  0.543100  0.031200  1
  C  C663  1  0.185600  0.386800  0.989600  1
  C  C664  1  0.814400  0.613200  0.010400  1
  C  C665  1  0.812700  0.651300  0.138600  1
  C  C666  1  0.187300  0.348700  0.861400  1
  C  C667  1  0.799100  0.610800  0.174000  1
  C  C668  1  0.200900  0.389200  0.826000  1
  C  C669  1  0.840500  0.462100  0.125200  1
  C  C670  1  0.159500  0.537900  0.874800  1
  C  C671  1  0.852100  0.427000  0.158600  1
  C  C672  1  0.147900  0.573000  0.841400  1
  C  C673  1  0.418800  0.155500  0.140400  1
  C  C674  1  0.581200  0.844500  0.859600  1
  C  C675  1  0.405500  0.087800  0.112200  1
  C  C676  1  0.594500  0.912200  0.887800  1
  C  C677  1  0.595000  0.884500  0.250200  1
  C  C678  1  0.405000  0.115500  0.749800  1
  C  C679  1  0.726500  0.919300  0.270400  1
  C  C680  1  0.273500  0.080700  0.729600  1
  I  I681  1  0.938810  0.188140  0.216820  1
  I  I682  1  0.061190  0.811860  0.783180  1
  I  I683  1  0.026060  0.661820  0.112820  1
  I  I684  1  0.973940  0.338180  0.887180  1
  I  I685  1  0.791480  0.298310  0.568580  1
  I  I686  1  0.208520  0.701690  0.431420  1
  I  I687  1  0.648020  0.773500  0.346270  1
  I  I688  1  0.351980  0.226500  0.653730  1
  I  I689  1  0.600730  0.342630  0.102710  1
  I  I690  1  0.399270  0.657370  0.897290  1
  I  I691  1  0.620350  0.613050  0.035450  1
  I  I692  1  0.379650  0.386950  0.964550  1
  I  I693  1  0.793770  0.867500  0.832030  1
  I  I694  1  0.206230  0.132500  0.167970  1
  I  I695  1  0.846930  0.572800  0.510180  1
  I  I696  1  0.153070  0.427200  0.489820  1
  I  I697  1  0.494800  0.404100  0.425900  1
  I  I698  1  0.505200  0.595900  0.574100  1
  I  I699  1  0.779190  0.821500  0.844620  1
  I  I700  1  0.220810  0.178500  0.155380  1
  I  I701  1  0.446760  0.922740  0.335020  1
  I  I702  1  0.553240  0.077260  0.664980  1
  N  N703  1  0.782900  0.113100  0.002800  1
  N  N704  1  0.217100  0.886900  0.997200  1
  N  N705  1  0.902300  0.117200  0.063300  1
  N  N706  1  0.097700  0.882800  0.936700  1
  N  N707  1  0.974100  0.127800  0.088100  1
  N  N708  1  0.025900  0.872200  0.911900  1
  N  N709  1  0.935900  0.812900  0.347600  1
  N  N710  1  0.064100  0.187100  0.652400  1
  N  N711  1  0.873100  0.780700  0.314900  1
  N  N712  1  0.126900  0.219300  0.685100  1
  N  N713  1  0.045700  0.849200  0.418800  1
  N  N714  1  0.954300  0.150800  0.581200  1
  N  N715  1  0.119100  0.896800  0.341700  1
  N  N716  1  0.880900  0.103200  0.658300  1
  N  N717  1  0.038500  0.982800  0.317600  1
  N  N718  1  0.961500  0.017200  0.682400  1
  N  N719  1  0.011400  0.034300  0.300000  1
  N  N720  1  0.988600  0.965700  0.700000  1
  N  N721  1  0.846300  0.423800  0.395200  1
  N  N722  1  0.153700  0.576200  0.604800  1
  N  N723  1  0.855400  0.403500  0.431900  1
  N  N724  1  0.144600  0.596500  0.568100  1
  N  N725  1  0.859300  0.488600  0.324100  1
  N  N726  1  0.140700  0.511400  0.675900  1
  N  N727  1  0.797400  0.954300  0.015700  1
  N  N728  1  0.202600  0.045700  0.984300  1
  N  N729  1  0.771900  0.954300  0.093800  1
  N  N730  1  0.228100  0.045700  0.906200  1
  N  N731  1  0.761400  0.940500  0.131800  1
  N  N732  1  0.238600  0.059500  0.868200  1
  N  N733  1  0.677100  0.405600  0.282700  1
  N  N734  1  0.322900  0.594400  0.717300  1
  N  N735  1  0.655900  0.384400  0.240400  1
  N  N736  1  0.344100  0.615600  0.759600  1
  N  N737  1  0.711500  0.475200  0.358600  1
  N  N738  1  0.288500  0.524800  0.641400  1
  N  N739  1  0.641300  0.961700  0.028800  1
  N  N740  1  0.358700  0.038300  0.971200  1
  N  N741  1  0.717100  0.096100  0.079100  1
  N  N742  1  0.282900  0.903900  0.920900  1
  N  N743  1  0.738600  0.165500  0.102000  1
  N  N744  1  0.261400  0.834500  0.898000  1
  N  N745  1  0.378400  0.488400  0.150800  1
  N  N746  1  0.621600  0.511600  0.849200  1
  N  N747  1  0.335500  0.442400  0.116700  1
  N  N748  1  0.664500  0.557600  0.883300  1
  N  N749  1  0.495800  0.592000  0.212600  1
  N  N750  1  0.504200  0.408000  0.787400  1
  N  N751  1  0.959800  0.957500  0.402900  1
  N  N752  1  0.040200  0.042500  0.597100  1
  N  N753  1  0.125100  0.026300  0.414400  1
  N  N754  1  0.874900  0.973700  0.585600  1
  N  N755  1  0.207100  0.068700  0.428800  1
  N  N756  1  0.792900  0.931300  0.571200  1
  N  N757  1  0.235000  0.466300  0.202800  1
  N  N758  1  0.765000  0.533700  0.797200  1
  N  N759  1  0.170400  0.399500  0.208000  1
  N  N760  1  0.829600  0.600500  0.792000  1
  N  N761  1  0.332400  0.610600  0.191300  1
  N  N762  1  0.667600  0.389400  0.808700  1
  N  N763  1  0.654600  0.296300  0.352100  1
  N  N764  1  0.345400  0.703700  0.647900  1
  N  N765  1  0.770800  0.297500  0.314700  1
  N  N766  1  0.229200  0.702500  0.685300  1
  N  N767  1  0.823700  0.281400  0.296000  1
  N  N768  1  0.176300  0.718600  0.704000  1
  N  N769  1  0.393500  0.556700  0.278900  1
  N  N770  1  0.606500  0.443300  0.721100  1
  N  N771  1  0.405400  0.617100  0.306100  1
  N  N772  1  0.594600  0.382900  0.693900  1
  N  N773  1  0.391500  0.429600  0.237600  1
  N  N774  1  0.608500  0.570400  0.762400  1
  N  N775  1  0.290000  0.908800  0.193400  1
  N  N776  1  0.710000  0.091200  0.806600  1
  N  N777  1  0.183600  0.331500  0.006800  1
  N  N778  1  0.816400  0.668500  0.993200  1
  N  N779  1  0.785300  0.575300  0.200100  1
  N  N780  1  0.214700  0.424700  0.799900  1
  N  N781  1  0.856000  0.389500  0.181400  1
  N  N782  1  0.144000  0.610500  0.818600  1
  N  N783  1  0.392700  0.039100  0.090800  1
  N  N784  1  0.607300  0.960900  0.909200  1
  N  N785  1  0.737400  0.896000  0.239800  1
  N  N786  1  0.262600  0.104000  0.760200  1
  O  O787  1  0.332000  0.247000  0.550600  1
  O  O788  1  0.668000  0.753000  0.449400  1
  O  O789  1  0.653000  0.965000  0.345500  1
  O  O790  1  0.347000  0.035000  0.654500  1
  O  O791  1  0.499000  0.221000  0.477000  1
  O  O792  1  0.501000  0.779000  0.523000  1
  O  O793  1  0.680200  0.720200  0.885500  1
  O  O794  1  0.319800  0.279800  0.114500  1
  O  O795  1  0.628200  0.373400  0.465400  1
  O  O796  1  0.371800  0.626600  0.534600  1
  O  O797  1  0.499000  0.075400  0.460100  1
  O  O798  1  0.501000  0.924600  0.539900  1
  O  O799  1  0.302000  0.344000  0.490500  1
  O  O800  1  0.698000  0.656000  0.509500  1
  O  O801  1  0.391000  0.290000  0.443700  1
  O  O802  1  0.609000  0.710000  0.556300  1
  O  O803  1  0.490000  0.303000  0.922800  1
  O  O804  1  0.510000  0.697000  0.077200  1
  O  O805  1  0.621400  0.286700  0.936400  1
  O  O806  1  0.378600  0.713300  0.063600  1
  O  O807  1  0.596900  0.724800  0.949400  1
  O  O808  1  0.403100  0.275200  0.050600  1
  O  O809  1  0.397500  0.758400  0.396400  1
  O  O810  1  0.602500  0.241600  0.603600  1
  O  O811  1  0.527000  0.536000  0.461800  1
  O  O812  1  0.473000  0.464000  0.538200  1
  O  O813  1  0.568000  0.415000  0.019100  1
  O  O814  1  0.432000  0.585000  0.980900  1
  O  O815  1  0.353000  0.906000  0.465900  1
  O  O816  1  0.647000  0.094000  0.534100  1
  O  O817  1  0.344000  0.053000  0.528900  1
  O  O818  1  0.656000  0.947000  0.471100  1
  O  O819  1  0.295100  0.015200  0.506700  1
  O  O820  1  0.704900  0.984800  0.493300  1
