# generated using pymatgen
data_P2H39Ru2C37N3(OF2)6
_symmetry_space_group_name_H-M   'P 1'
_cell_length_a   8.63000000
_cell_length_b   13.43000000
_cell_length_c   35.96900000
_cell_angle_alpha   90.00000000
_cell_angle_beta   90.00000000
_cell_angle_gamma   97.55000000
_symmetry_Int_Tables_number   1
_chemical_formula_structural   P2H39Ru2C37N3(OF2)6
_chemical_formula_sum   'P8 H156 Ru8 C148 N12 O24 F48'
_cell_volume   4132.69804465
_cell_formula_units_Z   4
loop_
 _symmetry_equiv_pos_site_id
 _symmetry_equiv_pos_as_xyz
  1  'x, y, z'
loop_
 _atom_site_type_symbol
 _atom_site_label
 _atom_site_symmetry_multiplicity
 _atom_site_fract_x
 _atom_site_fract_y
 _atom_site_fract_z
 _atom_site_occupancy
  P  P1  1  0.667100  0.321740  0.937150  1
  P  P2  1  0.832900  0.178260  0.437150  1
  P  P3  1  0.332900  0.678260  0.062850  1
  P  P4  1  0.167100  0.821740  0.562850  1
  P  P5  1  0.961800  0.278240  0.771700  1
  P  P6  1  0.538200  0.221760  0.271700  1
  P  P7  1  0.038200  0.721760  0.228300  1
  P  P8  1  0.461800  0.778240  0.728300  1
  H  H9  1  0.029400  0.583500  0.969800  1
  H  H10  1  0.470600  0.916500  0.469800  1
  H  H11  1  0.970600  0.416500  0.030200  1
  H  H12  1  0.529400  0.083500  0.530200  1
  H  H13  1  0.152800  0.516200  0.986400  1
  H  H14  1  0.347200  0.983800  0.486400  1
  H  H15  1  0.847200  0.483800  0.013600  1
  H  H16  1  0.652800  0.016200  0.513600  1
  H  H17  1  0.998800  0.463800  0.965800  1
  H  H18  1  0.501200  0.036200  0.465800  1
  H  H19  1  0.001200  0.536200  0.034200  1
  H  H20  1  0.498800  0.963800  0.534200  1
  H  H21  1  0.884700  0.691900  0.774900  1.0
  H  H22  1  0.615300  0.808100  0.274900  1.0
  H  H23  1  0.115300  0.308100  0.225100  1.0
  H  H24  1  0.384700  0.191900  0.725100  1.0
  H  H25  1  0.629600  0.611300  0.762700  1.0
  H  H26  1  0.870400  0.888700  0.262700  1.0
  H  H27  1  0.370400  0.388700  0.237300  1.0
  H  H28  1  0.129600  0.111300  0.737300  1.0
  H  H29  1  0.922300  0.509800  0.865800  1.0
  H  H30  1  0.577700  0.990200  0.365800  1.0
  H  H31  1  0.077700  0.490200  0.134200  1.0
  H  H32  1  0.422300  0.009800  0.634200  1.0
  H  H33  1  0.664300  0.427100  0.854900  1.0
  H  H34  1  0.835700  0.072900  0.354900  1.0
  H  H35  1  0.335700  0.572900  0.145100  1.0
  H  H36  1  0.164300  0.927100  0.645100  1.0
  H  H37  1  0.403200  0.513800  0.789800  1.0
  H  H38  1  0.096800  0.986200  0.289800  1.0
  H  H39  1  0.596800  0.486200  0.210200  1.0
  H  H40  1  0.903200  0.013800  0.710200  1.0
  H  H41  1  0.267500  0.385100  0.826200  1.0
  H  H42  1  0.232500  0.114900  0.326200  1.0
  H  H43  1  0.732500  0.614900  0.173800  1.0
  H  H44  1  0.767500  0.885100  0.673800  1.0
  H  H45  1  0.375800  0.462500  0.852000  1.0
  H  H46  1  0.124200  0.037500  0.352000  1.0
  H  H47  1  0.624200  0.537500  0.148000  1.0
  H  H48  1  0.875800  0.962500  0.648000  1.0
  H  H49  1  0.429400  0.356200  0.841800  1.0
  H  H50  1  0.070600  0.143800  0.341800  1.0
  H  H51  1  0.570600  0.643800  0.158200  1.0
  H  H52  1  0.929400  0.856200  0.658200  1.0
  H  H53  1  0.351700  0.355500  0.761000  1.0
  H  H54  1  0.148300  0.144500  0.261000  1.0
  H  H55  1  0.648300  0.644500  0.239000  1.0
  H  H56  1  0.851700  0.855500  0.739000  1.0
  H  H57  1  0.521300  0.331300  0.773200  1.0
  H  H58  1  0.978700  0.168700  0.273200  1.0
  H  H59  1  0.478700  0.668700  0.226800  1.0
  H  H60  1  0.021300  0.831300  0.726800  1.0
  H  H61  1  0.504900  0.420300  0.744400  1.0
  H  H62  1  0.995100  0.079700  0.244400  1.0
  H  H63  1  0.495100  0.579700  0.255600  1.0
  H  H64  1  0.004900  0.920300  0.755600  1.0
  H  H65  1  0.120600  0.646900  0.853400  1.0
  H  H66  1  0.379400  0.853100  0.353400  1.0
  H  H67  1  0.879400  0.353100  0.146600  1.0
  H  H68  1  0.620600  0.146900  0.646600  1.0
  H  H69  1  0.097300  0.726200  0.821300  1.0
  H  H70  1  0.402700  0.773800  0.321300  1.0
  H  H71  1  0.902700  0.273800  0.178700  1.0
  H  H72  1  0.597300  0.226200  0.678700  1.0
  H  H73  1  0.174500  0.627300  0.811700  1.0
  H  H74  1  0.325500  0.872700  0.311700  1.0
  H  H75  1  0.825500  0.372700  0.188300  1.0
  H  H76  1  0.674500  0.127300  0.688300  1.0
  H  H77  1  0.889800  0.740400  0.903300  1.0
  H  H78  1  0.610200  0.759600  0.403300  1.0
  H  H79  1  0.110200  0.259600  0.096700  1.0
  H  H80  1  0.389800  0.240400  0.596700  1.0
  H  H81  1  0.499800  0.554300  0.902200  1.0
  H  H82  1  0.000200  0.945700  0.402200  1.0
  H  H83  1  0.500200  0.445700  0.097800  1.0
  H  H84  1  0.999800  0.054300  0.597800  1.0
  H  H85  1  0.478100  0.561500  0.966100  1.0
  H  H86  1  0.021900  0.938500  0.466100  1.0
  H  H87  1  0.521900  0.438500  0.033900  1.0
  H  H88  1  0.978100  0.061500  0.533900  1.0
  H  H89  1  0.667800  0.664200  0.000300  1.0
  H  H90  1  0.832200  0.835800  0.500300  1.0
  H  H91  1  0.332200  0.335800  0.999700  1.0
  H  H92  1  0.167800  0.164200  0.499700  1.0
  H  H93  1  0.658500  0.053800  0.913000  1.0
  H  H94  1  0.841500  0.446200  0.413000  1.0
  H  H95  1  0.341500  0.946200  0.087000  1.0
  H  H96  1  0.158500  0.553800  0.587000  1.0
  H  H97  1  0.409500  0.121900  0.995000  1.0
  H  H98  1  0.090500  0.378100  0.495000  1.0
  H  H99  1  0.590500  0.878100  0.005000  1.0
  H  H100  1  0.909500  0.621900  0.505000  1.0
  H  H101  1  0.621400  0.214900  0.024900  1.0
  H  H102  1  0.878600  0.285100  0.524900  1.0
  H  H103  1  0.378600  0.785100  0.975100  1.0
  H  H104  1  0.121400  0.714900  0.475100  1.0
  H  H105  1  0.317800  0.827600  0.914400  1.0
  H  H106  1  0.182200  0.672400  0.414400  1.0
  H  H107  1  0.682200  0.172400  0.085600  1.0
  H  H108  1  0.817800  0.327600  0.585600  1.0
  H  H109  1  0.619700  0.164700  0.840800  1.0
  H  H110  1  0.880300  0.335300  0.340800  1.0
  H  H111  1  0.380300  0.835300  0.159200  1.0
  H  H112  1  0.119700  0.664700  0.659200  1.0
  H  H113  1  0.310100  0.961400  0.781100  1.0
  H  H114  1  0.189900  0.538600  0.281100  1.0
  H  H115  1  0.689900  0.038600  0.218900  1.0
  H  H116  1  0.810100  0.461400  0.718900  1.0
  H  H117  1  0.126000  0.957100  0.830900  1.0
  H  H118  1  0.374000  0.542900  0.330900  1.0
  H  H119  1  0.874000  0.042900  0.169100  1.0
  H  H120  1  0.626000  0.457100  0.669100  1.0
  H  H121  1  0.565000  0.014900  0.757300  1.0
  H  H122  1  0.935000  0.485100  0.257300  1.0
  H  H123  1  0.435000  0.985100  0.242700  1.0
  H  H124  1  0.065000  0.514900  0.742700  1.0
  H  H125  1  0.695100  0.056800  0.787100  1.0
  H  H126  1  0.804900  0.443200  0.287100  1.0
  H  H127  1  0.304900  0.943200  0.212900  1.0
  H  H128  1  0.195100  0.556800  0.712900  1.0
  H  H129  1  0.616000  0.133300  0.761400  1.0
  H  H130  1  0.884000  0.366700  0.261400  1.0
  H  H131  1  0.384000  0.866700  0.238600  1.0
  H  H132  1  0.116000  0.633300  0.738600  1.0
  H  H133  1  0.201500  0.075000  0.917800  1.0
  H  H134  1  0.298500  0.425000  0.417800  1.0
  H  H135  1  0.798500  0.925000  0.082200  1.0
  H  H136  1  0.701500  0.575000  0.582200  1.0
  H  H137  1  0.982500  0.163700  0.912500  1.0
  H  H138  1  0.517500  0.336300  0.412500  1.0
  H  H139  1  0.017500  0.836300  0.087500  1.0
  H  H140  1  0.482500  0.663700  0.587500  1.0
  H  H141  1  0.998600  0.161300  0.868200  1.0
  H  H142  1  0.501400  0.338700  0.368200  1.0
  H  H143  1  0.001400  0.838700  0.131800  1.0
  H  H144  1  0.498600  0.661300  0.631800  1.0
  H  H145  1  0.133900  0.222200  0.892700  1.0
  H  H146  1  0.366100  0.277800  0.392700  1.0
  H  H147  1  0.866100  0.777800  0.107300  1.0
  H  H148  1  0.633900  0.722200  0.607300  1.0
  H  H149  1  0.432600  0.161800  0.889400  1.0
  H  H150  1  0.067400  0.338200  0.389400  1.0
  H  H151  1  0.567400  0.838200  0.110600  1.0
  H  H152  1  0.932600  0.661800  0.610600  1.0
  H  H153  1  0.958400  0.977900  0.919500  1.0
  H  H154  1  0.541600  0.522100  0.419500  1.0
  H  H155  1  0.041600  0.022100  0.080500  1.0
  H  H156  1  0.458400  0.477900  0.580500  1.0
  H  H157  1  0.085300  0.916600  0.900900  1.0
  H  H158  1  0.414700  0.583400  0.400900  1.0
  H  H159  1  0.914700  0.083400  0.099100  1.0
  H  H160  1  0.585300  0.416600  0.599100  1.0
  H  H161  1  0.962300  0.964000  0.875300  1.0
  H  H162  1  0.537700  0.536000  0.375300  1.0
  H  H163  1  0.037700  0.036000  0.124700  1.0
  H  H164  1  0.462300  0.464000  0.624700  1.0
  Ru  Ru165  1  0.437970  0.978420  0.852497  1.0
  Ru  Ru166  1  0.062030  0.521580  0.352497  1.0
  Ru  Ru167  1  0.562030  0.021580  0.147503  1.0
  Ru  Ru168  1  0.937970  0.478420  0.647503  1.0
  Ru  Ru169  1  0.713220  0.633790  0.838561  1.0
  Ru  Ru170  1  0.786780  0.866210  0.338561  1.0
  Ru  Ru171  1  0.286780  0.366210  0.161439  1.0
  Ru  Ru172  1  0.213220  0.133790  0.661439  1.0
  C  C173  1  0.079000  0.522600  0.966100  1
  C  C174  1  0.421000  0.977400  0.466100  1
  C  C175  1  0.921000  0.477400  0.033900  1
  C  C176  1  0.579000  0.022600  0.533900  1
  C  C177  1  0.655600  0.838000  0.842540  1.0
  C  C178  1  0.844400  0.662000  0.342540  1.0
  C  C179  1  0.344400  0.162000  0.157460  1.0
  C  C180  1  0.155600  0.338000  0.657460  1.0
  C  C181  1  0.495800  0.775700  0.843030  1.0
  C  C182  1  0.004200  0.724300  0.343030  1.0
  C  C183  1  0.504200  0.224300  0.156970  1.0
  C  C184  1  0.995800  0.275700  0.656970  1.0
  C  C185  1  0.848400  0.627500  0.788100  1.0
  C  C186  1  0.651600  0.872500  0.288100  1.0
  C  C187  1  0.151600  0.372500  0.211900  1.0
  C  C188  1  0.348400  0.127500  0.711900  1.0
  C  C189  1  0.697100  0.580200  0.780800  1.0
  C  C190  1  0.802900  0.919800  0.280800  1.0
  C  C191  1  0.302900  0.419800  0.219200  1.0
  C  C192  1  0.197100  0.080200  0.719200  1.0
  C  C193  1  0.871200  0.520900  0.841500  1.0
  C  C194  1  0.628800  0.979100  0.341500  1.0
  C  C195  1  0.128800  0.479100  0.158500  1.0
  C  C196  1  0.371200  0.020900  0.658500  1.0
  C  C197  1  0.938300  0.599800  0.818800  1.0
  C  C198  1  0.561700  0.900200  0.318800  1.0
  C  C199  1  0.061700  0.400200  0.181200  1.0
  C  C200  1  0.438300  0.099800  0.681200  1.0
  C  C201  1  0.626600  0.500600  0.805600  1.0
  C  C202  1  0.873400  0.999400  0.305600  1.0
  C  C203  1  0.373400  0.499400  0.194400  1.0
  C  C204  1  0.126600  0.000600  0.694400  1.0
  C  C205  1  0.716900  0.471200  0.834980  1.0
  C  C206  1  0.783100  0.028800  0.334980  1.0
  C  C207  1  0.283100  0.528800  0.165020  1.0
  C  C208  1  0.216900  0.971200  0.665020  1.0
  C  C209  1  0.459800  0.457500  0.798200  1.0
  C  C210  1  0.040200  0.042500  0.298200  1.0
  C  C211  1  0.540200  0.542500  0.201800  1.0
  C  C212  1  0.959800  0.957500  0.701800  1.0
  C  C213  1  0.375600  0.411200  0.832600  1.0
  C  C214  1  0.124400  0.088800  0.332600  1.0
  C  C215  1  0.624400  0.588800  0.167400  1.0
  C  C216  1  0.875600  0.911200  0.667400  1.0
  C  C217  1  0.459400  0.384800  0.766400  1.0
  C  C218  1  0.040600  0.115200  0.266400  1.0
  C  C219  1  0.540600  0.615200  0.233600  1.0
  C  C220  1  0.959400  0.884800  0.733600  1.0
  C  C221  1  0.096200  0.654800  0.827000  1.0
  C  C222  1  0.403800  0.845200  0.327000  1.0
  C  C223  1  0.903800  0.345200  0.173000  1.0
  C  C224  1  0.596200  0.154800  0.673000  1.0
  C  C225  1  0.805400  0.703600  0.916350  1.0
  C  C226  1  0.694600  0.796400  0.416350  1.0
  C  C227  1  0.194600  0.296400  0.083650  1.0
  C  C228  1  0.305400  0.203600  0.583650  1.0
  C  C229  1  0.578700  0.594900  0.915800  1.0
  C  C230  1  0.921300  0.905100  0.415800  1.0
  C  C231  1  0.421300  0.405100  0.084200  1.0
  C  C232  1  0.078700  0.094900  0.584200  1.0
  C  C233  1  0.563900  0.599400  0.953900  1.0
  C  C234  1  0.936100  0.900600  0.453900  1.0
  C  C235  1  0.436100  0.400600  0.046100  1.0
  C  C236  1  0.063900  0.099400  0.546100  1.0
  C  C237  1  0.799900  0.714000  0.955160  1.0
  C  C238  1  0.700100  0.786000  0.455160  1.0
  C  C239  1  0.200100  0.286000  0.044840  1.0
  C  C240  1  0.299900  0.214000  0.544840  1.0
  C  C241  1  0.675700  0.659800  0.974000  1.0
  C  C242  1  0.824300  0.840200  0.474000  1.0
  C  C243  1  0.324300  0.340200  0.026000  1.0
  C  C244  1  0.175700  0.159800  0.526000  1.0
  C  C245  1  0.913200  0.781500  0.973600  1.0
  C  C246  1  0.586800  0.718500  0.473600  1.0
  C  C247  1  0.086800  0.218500  0.026400  1.0
  C  C248  1  0.413200  0.281500  0.526400  1.0
  C  C249  1  0.010200  0.840300  0.988800  1.0
  C  C250  1  0.489800  0.659700  0.488800  1.0
  C  C251  1  0.989800  0.159700  0.011200  1.0
  C  C252  1  0.510200  0.340300  0.511200  1.0
  C  C253  1  0.122900  0.908000  0.006100  1.0
  C  C254  1  0.377100  0.592000  0.506100  1.0
  C  C255  1  0.877100  0.092000  0.993900  1.0
  C  C256  1  0.622900  0.408000  0.493900  1.0
  C  C257  1  0.223300  0.962900  0.020640  1.0
  C  C258  1  0.276700  0.537100  0.520640  1.0
  C  C259  1  0.776700  0.037100  0.979360  1.0
  C  C260  1  0.723300  0.462900  0.479360  1.0
  C  C261  1  0.351700  0.023900  0.037950  1.0
  C  C262  1  0.148300  0.476100  0.537950  1.0
  C  C263  1  0.648300  0.976100  0.962050  1.0
  C  C264  1  0.851700  0.523900  0.462050  1.0
  C  C265  1  0.602500  0.998400  0.925760  1.0
  C  C266  1  0.897500  0.501600  0.425760  1.0
  C  C267  1  0.397500  0.001600  0.074240  1.0
  C  C268  1  0.102500  0.498400  0.574240  1.0
  C  C269  1  0.437200  0.105000  0.019600  1.0
  C  C270  1  0.062800  0.395000  0.519600  1.0
  C  C271  1  0.562800  0.895000  0.980400  1.0
  C  C272  1  0.937200  0.605000  0.480400  1.0
  C  C273  1  0.561400  0.160000  0.037160  1.0
  C  C274  1  0.938600  0.340000  0.537160  1.0
  C  C275  1  0.438600  0.840000  0.962840  1.0
  C  C276  1  0.061400  0.660000  0.462840  1.0
  C  C277  1  0.402500  0.866200  0.926800  1.0
  C  C278  1  0.097500  0.633800  0.426800  1.0
  C  C279  1  0.597500  0.133800  0.073200  1.0
  C  C280  1  0.902500  0.366200  0.573200  1.0
  C  C281  1  0.509700  0.133400  0.836100  1.0
  C  C282  1  0.990300  0.366600  0.336100  1.0
  C  C283  1  0.490300  0.866600  0.163900  1.0
  C  C284  1  0.009700  0.633400  0.663900  1.0
  C  C285  1  0.474100  0.074000  0.803300  1.0
  C  C286  1  0.025900  0.426000  0.303300  1.0
  C  C287  1  0.525900  0.926000  0.196700  1.0
  C  C288  1  0.974100  0.574000  0.696700  1.0
  C  C289  1  0.327100  0.014000  0.801000  1.0
  C  C290  1  0.172900  0.486000  0.301000  1.0
  C  C291  1  0.672900  0.986000  0.199000  1.0
  C  C292  1  0.827100  0.514000  0.699000  1.0
  C  C293  1  0.217100  0.011400  0.830700  1.0
  C  C294  1  0.282900  0.488600  0.330700  1.0
  C  C295  1  0.782900  0.988600  0.169300  1.0
  C  C296  1  0.717100  0.511400  0.669300  1.0
  C  C297  1  0.248200  0.070200  0.862800  1.0
  C  C298  1  0.251800  0.429800  0.362800  1.0
  C  C299  1  0.751800  0.929800  0.137200  1.0
  C  C300  1  0.748200  0.570200  0.637200  1.0
  C  C301  1  0.598100  0.069300  0.774900  1.0
  C  C302  1  0.901900  0.430700  0.274900  1.0
  C  C303  1  0.401900  0.930700  0.225100  1.0
  C  C304  1  0.098100  0.569300  0.725100  1.0
  C  C305  1  0.137400  0.068400  0.894600  1.0
  C  C306  1  0.362600  0.431600  0.394600  1.0
  C  C307  1  0.862600  0.931600  0.105400  1.0
  C  C308  1  0.637400  0.568400  0.605400  1.0
  C  C309  1  0.055800  0.162300  0.891700  1.0
  C  C310  1  0.444200  0.337700  0.391700  1.0
  C  C311  1  0.944200  0.837700  0.108300  1.0
  C  C312  1  0.555800  0.662300  0.608300  1.0
  C  C313  1  0.397600  0.132600  0.864800  1.0
  C  C314  1  0.102400  0.367400  0.364800  1.0
  C  C315  1  0.602400  0.867400  0.135200  1.0
  C  C316  1  0.897600  0.632600  0.635200  1.0
  C  C317  1  0.026300  0.973600  0.897900  1.0
  C  C318  1  0.473700  0.526400  0.397900  1.0
  C  C319  1  0.973700  0.026400  0.102100  1.0
  C  C320  1  0.526300  0.473600  0.602100  1.0
  N  N321  1  0.155000  0.528800  0.934000  1
  N  N322  1  0.345000  0.971200  0.434000  1
  N  N323  1  0.845000  0.471200  0.066000  1
  N  N324  1  0.655000  0.028800  0.566000  1
  N  N325  1  0.698400  0.644700  0.896930  1.0
  N  N326  1  0.801600  0.855300  0.396930  1.0
  N  N327  1  0.301600  0.355300  0.103070  1.0
  N  N328  1  0.198400  0.144700  0.603070  1.0
  N  N329  1  0.483300  0.944400  0.908900  1.0
  N  N330  1  0.016700  0.555600  0.408900  1.0
  N  N331  1  0.516700  0.055600  0.091100  1.0
  N  N332  1  0.983300  0.444400  0.591100  1.0
  O  O333  1  0.197400  0.455500  0.937600  1
  O  O334  1  0.302600  0.044500  0.437600  1
  O  O335  1  0.802600  0.544500  0.062400  1
  O  O336  1  0.697400  0.955500  0.562400  1
  O  O337  1  0.143300  0.611100  0.929400  1
  O  O338  1  0.356700  0.888900  0.429400  1
  O  O339  1  0.856700  0.388900  0.070600  1
  O  O340  1  0.643300  0.111100  0.570600  1
  O  O341  1  0.773000  0.791300  0.840660  1.0
  O  O342  1  0.727000  0.708700  0.340660  1.0
  O  O343  1  0.227000  0.208700  0.159340  1.0
  O  O344  1  0.273000  0.291300  0.659340  1.0
  O  O345  1  0.489900  0.681300  0.841010  1.0
  O  O346  1  0.010100  0.818700  0.341010  1.0
  O  O347  1  0.510100  0.318700  0.158990  1.0
  O  O348  1  0.989900  0.181300  0.658990  1.0
  O  O349  1  0.660100  0.932700  0.845220  1.0
  O  O350  1  0.839900  0.567300  0.345220  1.0
  O  O351  1  0.339900  0.067300  0.154780  1.0
  O  O352  1  0.160100  0.432700  0.654780  1.0
  O  O353  1  0.379400  0.822000  0.846950  1.0
  O  O354  1  0.120600  0.678000  0.346950  1.0
  O  O355  1  0.620600  0.178000  0.153050  1.0
  O  O356  1  0.879400  0.322000  0.653050  1.0
  F  F357  1  0.558200  0.221900  0.949430  1
  F  F358  1  0.941800  0.278100  0.449430  1
  F  F359  1  0.441800  0.778100  0.050570  1
  F  F360  1  0.058200  0.721900  0.550570  1
  F  F361  1  0.716100  0.266600  0.900690  1
  F  F362  1  0.783900  0.233400  0.400690  1
  F  F363  1  0.283900  0.733400  0.099310  1
  F  F364  1  0.216100  0.766600  0.599310  1
  F  F365  1  0.525300  0.357300  0.915520  1
  F  F366  1  0.974700  0.142700  0.415520  1
  F  F367  1  0.474700  0.642700  0.084480  1
  F  F368  1  0.025300  0.857300  0.584480  1
  F  F369  1  0.814900  0.286800  0.958310  1
  F  F370  1  0.685100  0.213200  0.458310  1
  F  F371  1  0.185100  0.713200  0.041690  1
  F  F372  1  0.314900  0.786800  0.541690  1
  F  F373  1  0.624200  0.376000  0.974020  1
  F  F374  1  0.875800  0.124000  0.474020  1
  F  F375  1  0.375800  0.624000  0.025980  1
  F  F376  1  0.124200  0.876000  0.525980  1
  F  F377  1  0.779700  0.421700  0.924440  1
  F  F378  1  0.720300  0.078300  0.424440  1
  F  F379  1  0.220300  0.578300  0.075560  1
  F  F380  1  0.279700  0.921700  0.575560  1
  F  F381  1  0.862200  0.242400  0.807770  1
  F  F382  1  0.637800  0.257600  0.307770  1
  F  F383  1  0.137800  0.757600  0.192230  1
  F  F384  1  0.362200  0.742400  0.692230  1
  F  F385  1  0.905000  0.174400  0.751270  1
  F  F386  1  0.595000  0.325600  0.251270  1
  F  F387  1  0.095000  0.825600  0.248730  1
  F  F388  1  0.405000  0.674400  0.748730  1
  F  F389  1  0.811900  0.323600  0.755340  1
  F  F390  1  0.688100  0.176400  0.255340  1
  F  F391  1  0.188100  0.676400  0.244660  1
  F  F392  1  0.311900  0.823600  0.744660  1
  F  F393  1  0.061700  0.314800  0.735370  1
  F  F394  1  0.438300  0.185200  0.235370  1
  F  F395  1  0.938300  0.685200  0.264630  1
  F  F396  1  0.561700  0.814800  0.764630  1
  F  F397  1  0.109300  0.231200  0.787570  1
  F  F398  1  0.390700  0.268800  0.287570  1
  F  F399  1  0.890700  0.768800  0.212430  1
  F  F400  1  0.609300  0.731200  0.712430  1
  F  F401  1  0.019900  0.382400  0.791450  1
  F  F402  1  0.480100  0.117600  0.291450  1
  F  F403  1  0.980100  0.617600  0.208550  1
  F  F404  1  0.519900  0.882400  0.708550  1
