# generated using pymatgen
data_Ni6H405C225S12N79O64
_symmetry_space_group_name_H-M   'P 1'
_cell_length_a   20.48840285
_cell_length_b   20.48840285
_cell_length_c   20.48840285
_cell_angle_alpha   66.68064950
_cell_angle_beta   66.68064950
_cell_angle_gamma   66.68064950
_symmetry_Int_Tables_number   1
_chemical_formula_structural   Ni6H405C225S12N79O64
_chemical_formula_sum   'Ni6 H405 C225 S12 N79 O64'
_cell_volume   6955.03053489
_cell_formula_units_Z   1
loop_
 _symmetry_equiv_pos_site_id
 _symmetry_equiv_pos_as_xyz
  1  'x, y, z'
loop_
 _atom_site_type_symbol
 _atom_site_label
 _atom_site_symmetry_multiplicity
 _atom_site_fract_x
 _atom_site_fract_y
 _atom_site_fract_z
 _atom_site_occupancy
  C  C1  1  0.345470  0.882940  0.834510  1
  C  C2  1  0.834510  0.345470  0.882940  1
  C  C3  1  0.882940  0.834510  0.345470  1
  C  C4  1  0.251210  0.979640  0.781610  1
  C  C5  1  0.781610  0.251210  0.979640  1
  C  C6  1  0.979640  0.781610  0.251210  1
  C  C7  1  0.263010  0.972310  0.904310  1
  C  C8  1  0.904310  0.263010  0.972310  1
  C  C9  1  0.972310  0.904310  0.263010  1
  C  C10  1  0.082760  0.400180  0.316330  1
  C  C11  1  0.316330  0.082760  0.400180  1
  C  C12  1  0.400180  0.316330  0.082760  1
  C  C13  1  0.096220  0.276120  0.412920  1
  C  C14  1  0.412920  0.096220  0.276120  1
  C  C15  1  0.276120  0.412920  0.096220  1
  C  C16  1  0.093660  0.291660  0.289060  1
  C  C17  1  0.289060  0.093660  0.291660  1
  C  C18  1  0.291660  0.289060  0.093660  1
  C  C19  1  0.912900  0.092000  0.710200  1
  C  C20  1  0.710200  0.912900  0.092000  1
  C  C21  1  0.092000  0.710200  0.912900  1
  C  C22  1  0.733360  0.460720  0.511800  1
  C  C23  1  0.511800  0.733360  0.460720  1
  C  C24  1  0.460720  0.511800  0.733360  1
  C  C25  1  0.694920  0.559650  0.387890  1
  C  C26  1  0.387890  0.694920  0.559650  1
  C  C27  1  0.559650  0.387890  0.694920  1
  C  C28  1  0.670680  0.449580  0.443180  1
  C  C29  1  0.443180  0.670680  0.449580  1
  C  C30  1  0.449580  0.443180  0.670680  1
  C  C31  1  0.803550  0.736370  0.538710  1
  C  C32  1  0.538710  0.803550  0.736370  1
  C  C33  1  0.736370  0.538710  0.803550  1
  C  C34  1  0.694140  0.719940  0.533240  1
  C  C35  1  0.533240  0.694140  0.719940  1
  C  C36  1  0.719940  0.533240  0.694140  1
  C  C37  1  0.676220  0.838400  0.533710  1
  C  C38  1  0.533710  0.676220  0.838400  1
  C  C39  1  0.838400  0.533710  0.676220  1
  C  C40  1  0.620720  0.260920  0.589220  1
  C  C41  1  0.589220  0.620720  0.260920  1
  C  C42  1  0.260920  0.589220  0.620720  1
  C  C43  1  0.734590  0.196050  0.623770  1
  C  C44  1  0.623770  0.734590  0.196050  1
  C  C45  1  0.196050  0.623770  0.734590  1
  C  C46  1  0.617030  0.181540  0.710720  1
  C  C47  1  0.710720  0.617030  0.181540  1
  C  C48  1  0.181540  0.710720  0.617030  1
  C  C49  1  0.963260  0.133440  0.639040  1
  C  C50  1  0.639040  0.963260  0.133440  1
  C  C51  1  0.133440  0.639040  0.963260  1
  C  C52  1  0.083903  0.063043  0.669053  1
  C  C53  1  0.669053  0.083903  0.063043  1
  C  C54  1  0.063043  0.669053  0.083903  1
  C  C55  1  0.974840  0.012250  0.737700  1
  C  C56  1  0.737700  0.974840  0.012250  1
  C  C57  1  0.012250  0.737700  0.974840  1
  C  C58  1  0.699970  0.844680  0.507130  1
  C  C59  1  0.507130  0.699970  0.844680  1
  C  C60  1  0.844680  0.507130  0.699970  1
  C  C61  1  0.784010  0.736230  0.506670  1
  C  C62  1  0.506670  0.784010  0.736230  1
  C  C63  1  0.736230  0.506670  0.784010  1
  C  C64  1  0.789810  0.822510  0.556310  1
  C  C65  1  0.556310  0.789810  0.822510  1
  C  C66  1  0.822510  0.556310  0.789810  1
  C  C67  1  0.268790  0.223310  0.491770  1
  C  C68  1  0.491770  0.268790  0.223310  1
  C  C69  1  0.223310  0.491770  0.268790  1
  C  C70  1  0.274080  0.101160  0.575270  1
  C  C71  1  0.575270  0.274080  0.101160  1
  C  C72  1  0.101160  0.575270  0.274080  1
  C  C73  1  0.157310  0.184810  0.556610  1
  C  C74  1  0.556610  0.157310  0.184810  1
  C  C75  1  0.184810  0.556610  0.157310  1
  C  C76  1  0.304700  0.089100  0.573600  1
  C  C77  1  0.573600  0.304700  0.089100  1
  C  C78  1  0.089100  0.573600  0.304700  1
  C  C79  1  0.160510  0.124110  0.987310  1
  C  C80  1  0.987310  0.160510  0.124110  1
  C  C81  1  0.124110  0.987310  0.160510  1
  C  C82  1  0.285070  0.142970  0.942170  1
  C  C83  1  0.942170  0.285070  0.142970  1
  C  C84  1  0.142970  0.942170  0.285070  1
  C  C85  1  0.173140  0.232500  0.994720  1
  C  C86  1  0.994720  0.173140  0.232500  1
  C  C87  1  0.232500  0.994720  0.173140  1
  C  C88  1  0.163400  0.207200  0.889600  1
  C  C89  1  0.889600  0.163400  0.207200  1
  C  C90  1  0.207200  0.889600  0.163400  1
  C  C91  1  0.245360  0.240460  0.677060  1
  C  C92  1  0.677060  0.245360  0.240460  1
  C  C93  1  0.240460  0.677060  0.245360  1
  C  C94  1  0.341840  0.300840  0.646740  1
  C  C95  1  0.646740  0.341840  0.300840  1
  C  C96  1  0.300840  0.646740  0.341840  1
  C  C97  1  0.339440  0.187110  0.742260  1
  C  C98  1  0.742260  0.339440  0.187110  1
  C  C99  1  0.187110  0.742260  0.339440  1
  C  C100  1  0.906720  0.705920  0.885520  1
  C  C101  1  0.885520  0.906720  0.705920  1
  C  C102  1  0.705920  0.885520  0.906720  1
  C  C103  1  0.993800  0.666400  0.777300  1
  C  C104  1  0.777300  0.993800  0.666400  1
  C  C105  1  0.666400  0.777300  0.993800  1
  C  C106  1  0.865690  0.673390  0.804490  1
  C  C107  1  0.804490  0.865690  0.673390  1
  C  C108  1  0.673390  0.804490  0.865690  1
  C  C109  1  0.572880  0.072580  0.608380  1
  C  C110  1  0.608380  0.572880  0.072580  1
  C  C111  1  0.072580  0.608380  0.572880  1
  C  C112  1  0.464340  0.038440  0.625840  1
  C  C113  1  0.625840  0.464340  0.038440  1
  C  C114  1  0.038440  0.625840  0.464340  1
  C  C115  1  0.588150  0.950430  0.604440  1
  C  C116  1  0.604440  0.588150  0.950430  1
  C  C117  1  0.950430  0.604440  0.588150  1
  C  C118  1  0.612560  0.021960  0.592560  1
  C  C119  1  0.592560  0.612560  0.021960  1
  C  C120  1  0.021960  0.592560  0.612560  1
  C  C121  1  0.504370  0.096790  0.821880  1
  C  C122  1  0.821880  0.504370  0.096790  1
  C  C123  1  0.096790  0.821880  0.504370  1
  C  C124  1  0.424260  0.026960  0.831060  1
  C  C125  1  0.831060  0.424260  0.026960  1
  C  C126  1  0.026960  0.831060  0.424260  1
  C  C127  1  0.543410  0.961590  0.859900  1
  C  C128  1  0.859900  0.543410  0.961590  1
  C  C129  1  0.961590  0.859900  0.543410  1
  C  C130  1  0.842390  0.713750  0.109540  1.0
  C  C131  1  0.109540  0.842390  0.713750  1.0
  C  C132  1  0.713750  0.109540  0.842390  1.0
  C  C133  1  0.974260  0.545790  0.143560  1.0
  C  C134  1  0.143560  0.974260  0.545790  1.0
  C  C135  1  0.545790  0.143560  0.974260  1.0
  C  C136  1  0.018980  0.525770  0.073260  1.0
  C  C137  1  0.073260  0.018980  0.525770  1.0
  C  C138  1  0.525770  0.073260  0.018980  1.0
  C  C139  1  0.010230  0.560630  0.005360  1.0
  C  C140  1  0.005360  0.010230  0.560630  1.0
  C  C141  1  0.560630  0.005360  0.010230  1.0
  C  C142  1  0.060530  0.536270  0.942160  1.0
  C  C143  1  0.942160  0.060530  0.536270  1.0
  C  C144  1  0.536270  0.942160  0.060530  1.0
  C  C145  1  0.123670  0.474440  0.943790  1.0
  C  C146  1  0.943790  0.123670  0.474440  1.0
  C  C147  1  0.474440  0.943790  0.123670  1.0
  C  C148  1  0.132430  0.436030  0.020180  1.0
  C  C149  1  0.020180  0.132430  0.436030  1.0
  C  C150  1  0.436030  0.020180  0.132430  1.0
  C  C151  1  0.081960  0.464220  0.078040  1.0
  C  C152  1  0.078040  0.081960  0.464220  1.0
  C  C153  1  0.464220  0.078040  0.081960  1.0
  C  C154  1  0.564580  0.397680  0.886930  1.0
  C  C155  1  0.886930  0.564580  0.397680  1.0
  C  C156  1  0.397680  0.886930  0.564580  1.0
  C  C157  1  0.465450  0.301420  0.883240  1.0
  C  C158  1  0.883240  0.465450  0.301420  1.0
  C  C159  1  0.301420  0.883240  0.465450  1.0
  C  C160  1  0.395100  0.346950  0.876980  1.0
  C  C161  1  0.876980  0.395100  0.346950  1.0
  C  C162  1  0.346950  0.876980  0.395100  1.0
  C  C163  1  0.353070  0.310480  0.869890  1.0
  C  C164  1  0.869890  0.353070  0.310480  1.0
  C  C165  1  0.310480  0.869890  0.353070  1.0
  C  C166  1  0.277630  0.343660  0.870720  1.0
  C  C167  1  0.870720  0.277630  0.343660  1.0
  C  C168  1  0.343660  0.870720  0.277630  1.0
  C  C169  1  0.244830  0.412210  0.883240  1.0
  C  C170  1  0.883240  0.244830  0.412210  1.0
  C  C171  1  0.412210  0.883240  0.244830  1.0
  C  C172  1  0.281820  0.448230  0.894950  1.0
  C  C173  1  0.894950  0.281820  0.448230  1.0
  C  C174  1  0.448230  0.894950  0.281820  1.0
  C  C175  1  0.356820  0.408640  0.897940  1.0
  C  C176  1  0.897940  0.356820  0.408640  1.0
  C  C177  1  0.408640  0.897940  0.356820  1.0
  C  C178  1  0.140420  0.416180  0.530860  1.0
  C  C179  1  0.530860  0.140420  0.416180  1.0
  C  C180  1  0.416180  0.530860  0.140420  1.0
  C  C181  1  0.047400  0.392520  0.713210  1.0
  C  C182  1  0.713210  0.047400  0.392520  1.0
  C  C183  1  0.392520  0.713210  0.047400  1.0
  C  C184  1  0.078910  0.411870  0.755740  1.0
  C  C185  1  0.755740  0.078910  0.411870  1.0
  C  C186  1  0.411870  0.755740  0.078910  1.0
  C  C187  1  0.145140  0.425950  0.725980  1.0
  C  C188  1  0.725980  0.145140  0.425950  1.0
  C  C189  1  0.425950  0.725980  0.145140  1.0
  C  C190  1  0.175540  0.442280  0.769010  1.0
  C  C191  1  0.769010  0.175540  0.442280  1.0
  C  C192  1  0.442280  0.769010  0.175540  1.0
  C  C193  1  0.131640  0.437820  0.845600  1.0
  C  C194  1  0.845600  0.131640  0.437820  1.0
  C  C195  1  0.437820  0.845600  0.131640  1.0
  C  C196  1  0.067180  0.419540  0.870860  1.0
  C  C197  1  0.870860  0.067180  0.419540  1.0
  C  C198  1  0.419540  0.870860  0.067180  1.0
  C  C199  1  0.039790  0.408180  0.827620  1.0
  C  C200  1  0.827620  0.039790  0.408180  1.0
  C  C201  1  0.408180  0.827620  0.039790  1.0
  C  C202  1  0.870090  0.329340  0.658290  1.0
  C  C203  1  0.658290  0.870090  0.329340  1.0
  C  C204  1  0.329340  0.658290  0.870090  1.0
  C  C205  1  0.008010  0.245030  0.744690  1.0
  C  C206  1  0.744690  0.008010  0.245030  1.0
  C  C207  1  0.245030  0.744690  0.008010  1.0
  C  C208  1  0.995650  0.179470  0.805690  1.0
  C  C209  1  0.805690  0.995650  0.179470  1.0
  C  C210  1  0.179470  0.805690  0.995650  1.0
  C  C211  1  0.054570  0.138030  0.831770  1.0
  C  C212  1  0.831770  0.054570  0.138030  1.0
  C  C213  1  0.138030  0.831770  0.054570  1.0
  C  C214  1  0.053160  0.080350  0.885400  1.0
  C  C215  1  0.885400  0.053160  0.080350  1.0
  C  C216  1  0.080350  0.885400  0.053160  1.0
  C  C217  1  0.989980  0.056820  0.914150  1.0
  C  C218  1  0.914150  0.989980  0.056820  1.0
  C  C219  1  0.056820  0.914150  0.989980  1.0
  C  C220  1  0.926670  0.097260  0.892200  1.0
  C  C221  1  0.892200  0.926670  0.097260  1.0
  C  C222  1  0.097260  0.892200  0.926670  1.0
  C  C223  1  0.938630  0.156620  0.836210  1.0
  C  C224  1  0.836210  0.938630  0.156620  1.0
  C  C225  1  0.156620  0.836210  0.938630  1.0
  H  H226  1  0.360500  0.859900  0.796800  1
  H  H227  1  0.796800  0.360500  0.859900  1
  H  H228  1  0.859900  0.796800  0.360500  1
  H  H229  1  0.279800  0.955400  0.742100  1
  H  H230  1  0.742100  0.279800  0.955400  1
  H  H231  1  0.955400  0.742100  0.279800  1
  H  H232  1  0.246500  0.032800  0.761000  1
  H  H233  1  0.761000  0.246500  0.032800  1
  H  H234  1  0.032800  0.761000  0.246500  1
  H  H235  1  0.201800  0.972000  0.803200  1
  H  H236  1  0.803200  0.201800  0.972000  1
  H  H237  1  0.972000  0.803200  0.201800  1
  H  H238  1  0.299900  0.945800  0.932000  1
  H  H239  1  0.932000  0.299900  0.945800  1
  H  H240  1  0.945800  0.932000  0.299900  1
  H  H241  1  0.215800  0.961300  0.935500  1
  H  H242  1  0.935500  0.215800  0.961300  1
  H  H243  1  0.961300  0.935500  0.215800  1
  H  H244  1  0.255900  0.025800  0.890300  1
  H  H245  1  0.890300  0.255900  0.025800  1
  H  H246  1  0.025800  0.890300  0.255900  1
  H  H247  1  0.067500  0.428600  0.349700  1
  H  H248  1  0.349700  0.067500  0.428600  1
  H  H249  1  0.428600  0.349700  0.067500  1
  H  H250  1  0.096800  0.303600  0.442400  1
  H  H251  1  0.442400  0.096800  0.303600  1
  H  H252  1  0.303600  0.442400  0.096800  1
  H  H253  1  0.139400  0.232100  0.412200  1
  H  H254  1  0.412200  0.139400  0.232100  1
  H  H255  1  0.232100  0.412200  0.139400  1
  H  H256  1  0.050800  0.260700  0.435000  1
  H  H257  1  0.435000  0.050800  0.260700  1
  H  H258  1  0.260700  0.435000  0.050800  1
  H  H259  1  0.090100  0.330000  0.242100  1
  H  H260  1  0.242100  0.090100  0.330000  1
  H  H261  1  0.330000  0.242100  0.090100  1
  H  H262  1  0.049500  0.274000  0.311700  1
  H  H263  1  0.311700  0.049500  0.274000  1
  H  H264  1  0.274000  0.311700  0.049500  1
  H  H265  1  0.137900  0.250200  0.279800  1
  H  H266  1  0.279800  0.137900  0.250200  1
  H  H267  1  0.250200  0.279800  0.137900  1
  H  H268  1  0.960000  0.101400  0.676200  1
  H  H269  1  0.676200  0.960000  0.101400  1
  H  H270  1  0.101400  0.676200  0.960000  1
  H  H271  1  0.883000  0.133600  0.731500  1
  H  H272  1  0.731500  0.883000  0.133600  1
  H  H273  1  0.133600  0.731500  0.883000  1
  H  H274  1  0.886000  0.087000  0.683000  1
  H  H275  1  0.683000  0.886000  0.087000  1
  H  H276  1  0.087000  0.683000  0.886000  1
  H  H277  1  0.756100  0.485800  0.523200  1
  H  H278  1  0.523200  0.756100  0.485800  1
  H  H279  1  0.485800  0.523200  0.756100  1
  H  H280  1  0.705800  0.599200  0.393800  1
  H  H281  1  0.393800  0.705800  0.599200  1
  H  H282  1  0.599200  0.393800  0.705800  1
  H  H283  1  0.643600  0.576000  0.386500  1
  H  H284  1  0.386500  0.643600  0.576000  1
  H  H285  1  0.576000  0.386500  0.643600  1
  H  H286  1  0.728400  0.548100  0.341600  1
  H  H287  1  0.341600  0.728400  0.548100  1
  H  H288  1  0.548100  0.341600  0.728400  1
  H  H289  1  0.676300  0.402100  0.481800  1
  H  H290  1  0.481800  0.676300  0.402100  1
  H  H291  1  0.402100  0.481800  0.676300  1
  H  H292  1  0.694000  0.440700  0.394300  1
  H  H293  1  0.394300  0.694000  0.440700  1
  H  H294  1  0.440700  0.394300  0.694000  1
  H  H295  1  0.617900  0.475500  0.448800  1
  H  H296  1  0.448800  0.617900  0.475500  1
  H  H297  1  0.475500  0.448800  0.617900  1
  H  H298  1  0.827700  0.761700  0.548000  1
  H  H299  1  0.548000  0.827700  0.761700  1
  H  H300  1  0.761700  0.548000  0.827700  1
  H  H301  1  0.724900  0.668400  0.544300  1
  H  H302  1  0.544300  0.724900  0.668400  1
  H  H303  1  0.668400  0.544300  0.724900  1
  H  H304  1  0.686500  0.734500  0.484500  1
  H  H305  1  0.484500  0.686500  0.734500  1
  H  H306  1  0.734500  0.484500  0.686500  1
  H  H307  1  0.646100  0.724600  0.571100  1
  H  H308  1  0.571100  0.646100  0.724600  1
  H  H309  1  0.724600  0.571100  0.646100  1
  H  H310  1  0.650000  0.811400  0.527500  1
  H  H311  1  0.527500  0.650000  0.811400  1
  H  H312  1  0.811400  0.527500  0.650000  1
  H  H313  1  0.687000  0.878100  0.488000  1
  H  H314  1  0.488000  0.687000  0.878100  1
  H  H315  1  0.878100  0.488000  0.687000  1
  H  H316  1  0.645200  0.860000  0.574900  1
  H  H317  1  0.574900  0.645200  0.860000  1
  H  H318  1  0.860000  0.574900  0.645200  1
  H  H319  1  0.642600  0.286000  0.539800  1
  H  H320  1  0.539800  0.642600  0.286000  1
  H  H321  1  0.286000  0.539800  0.642600  1
  H  H322  1  0.755300  0.224200  0.573200  1
  H  H323  1  0.573200  0.755300  0.224200  1
  H  H324  1  0.224200  0.573200  0.755300  1
  H  H325  1  0.745100  0.144500  0.625300  1
  H  H326  1  0.625300  0.745100  0.144500  1
  H  H327  1  0.144500  0.625300  0.745100  1
  H  H328  1  0.757200  0.197300  0.657300  1
  H  H329  1  0.657300  0.757200  0.197300  1
  H  H330  1  0.197300  0.657300  0.757200  1
  H  H331  1  0.645200  0.156300  0.747300  1
  H  H332  1  0.747300  0.645200  0.156300  1
  H  H333  1  0.156300  0.747300  0.645200  1
  H  H334  1  0.610900  0.144600  0.696100  1
  H  H335  1  0.696100  0.610900  0.144600  1
  H  H336  1  0.144600  0.696100  0.610900  1
  H  H337  1  0.568200  0.211900  0.732400  1
  H  H338  1  0.732400  0.568200  0.211900  1
  H  H339  1  0.211900  0.732400  0.568200  1
  H  H340  1  0.973800  0.144500  0.586900  1
  H  H341  1  0.586900  0.973800  0.144500  1
  H  H342  1  0.144500  0.586900  0.973800  1
  H  H343  1  0.114600  0.013000  0.665800  1
  H  H344  1  0.665800  0.114600  0.013000  1
  H  H345  1  0.013000  0.665800  0.114600  1
  H  H346  1  0.088700  0.072300  0.710100  1
  H  H347  1  0.710100  0.088700  0.072300  1
  H  H348  1  0.072300  0.710100  0.088700  1
  H  H349  1  0.100400  0.099500  0.622600  1
  H  H350  1  0.622600  0.100400  0.099500  1
  H  H351  1  0.099500  0.622600  0.100400  1
  H  H352  1  0.925100  0.021900  0.734800  1
  H  H353  1  0.734800  0.925100  0.021900  1
  H  H354  1  0.021900  0.734800  0.925100  1
  H  H355  1  0.971400  0.012100  0.786800  1
  H  H356  1  0.786800  0.971400  0.012100  1
  H  H357  1  0.012100  0.786800  0.971400  1
  H  H358  1  0.005800  0.963900  0.729500  1
  H  H359  1  0.729500  0.005800  0.963900  1
  H  H360  1  0.963900  0.729500  0.005800  1
  H  H361  1  0.973100  0.007100  0.761600  1
  H  H362  1  0.761600  0.973100  0.007100  1
  H  H363  1  0.007100  0.761600  0.973100  1
  H  H364  1  0.721300  0.870300  0.521500  1
  H  H365  1  0.521500  0.721300  0.870300  1
  H  H366  1  0.870300  0.521500  0.721300  1
  H  H367  1  0.646100  0.857800  0.529100  1
  H  H368  1  0.529100  0.646100  0.857800  1
  H  H369  1  0.857800  0.529100  0.646100  1
  H  H370  1  0.711300  0.859700  0.453000  1
  H  H371  1  0.453000  0.711300  0.859700  1
  H  H372  1  0.859700  0.453000  0.711300  1
  H  H373  1  0.768700  0.737400  0.468100  1
  H  H374  1  0.468100  0.768700  0.737400  1
  H  H375  1  0.737400  0.468100  0.768700  1
  H  H376  1  0.830600  0.784300  0.575300  1
  H  H377  1  0.575300  0.830600  0.784300  1
  H  H378  1  0.784300  0.575300  0.830600  1
  H  H379  1  0.759400  0.852700  0.590700  1
  H  H380  1  0.590700  0.759400  0.852700  1
  H  H381  1  0.852700  0.590700  0.759400  1
  H  H382  1  0.810100  0.854100  0.507700  1
  H  H383  1  0.507700  0.810100  0.854100  1
  H  H384  1  0.854100  0.507700  0.810100  1
  H  H385  1  0.248000  0.260300  0.453700  1
  H  H386  1  0.453700  0.248000  0.260300  1
  H  H387  1  0.260300  0.453700  0.248000  1
  H  H388  1  0.326500  0.100000  0.556800  1
  H  H389  1  0.556800  0.326500  0.100000  1
  H  H390  1  0.100000  0.556800  0.326500  1
  H  H391  1  0.266300  0.070300  0.554300  1
  H  H392  1  0.554300  0.266300  0.070300  1
  H  H393  1  0.070300  0.554300  0.266300  1
  H  H394  1  0.260000  0.082200  0.629400  1
  H  H395  1  0.629400  0.260000  0.082200  1
  H  H396  1  0.082200  0.629400  0.260000  1
  H  H397  1  0.136700  0.235700  0.528700  1
  H  H398  1  0.528700  0.136700  0.235700  1
  H  H399  1  0.235700  0.528700  0.136700  1
  H  H400  1  0.126700  0.175700  0.608300  1
  H  H401  1  0.608300  0.126700  0.175700  1
  H  H402  1  0.175700  0.608300  0.126700  1
  H  H403  1  0.157700  0.149900  0.534700  1
  H  H404  1  0.534700  0.157700  0.149900  1
  H  H405  1  0.149900  0.534700  0.157700  1
  H  H406  1  0.282200  0.175400  0.495700  1
  H  H407  1  0.495700  0.282200  0.175400  1
  H  H408  1  0.175400  0.495700  0.282200  1
  H  H409  1  0.357700  0.067700  0.552200  1
  H  H410  1  0.552200  0.357700  0.067700  1
  H  H411  1  0.067700  0.552200  0.357700  1
  H  H412  1  0.275700  0.066000  0.566000  1
  H  H413  1  0.566000  0.275700  0.066000  1
  H  H414  1  0.066000  0.566000  0.275700  1
  H  H415  1  0.294700  0.080300  0.626900  1
  H  H416  1  0.626900  0.294700  0.080300  1
  H  H417  1  0.080300  0.626900  0.294700  1
  H  H418  1  0.172900  0.072800  0.992900  1
  H  H419  1  0.992900  0.172900  0.072800  1
  H  H420  1  0.072800  0.992900  0.172900  1
  H  H421  1  0.316600  0.136300  0.971100  1
  H  H422  1  0.971100  0.316600  0.136300  1
  H  H423  1  0.136300  0.971100  0.316600  1
  H  H424  1  0.292100  0.184000  0.896900  1
  H  H425  1  0.896900  0.292100  0.184000  1
  H  H426  1  0.184000  0.896900  0.292100  1
  H  H427  1  0.298400  0.097400  0.928900  1
  H  H428  1  0.928900  0.298400  0.097400  1
  H  H429  1  0.097400  0.928900  0.298400  1
  H  H430  1  0.199400  0.242400  0.019100  1
  H  H431  1  0.019100  0.199400  0.242400  1
  H  H432  1  0.242400  0.019100  0.199400  1
  H  H433  1  0.121900  0.235500  0.025500  1
  H  H434  1  0.025500  0.121900  0.235500  1
  H  H435  1  0.235500  0.025500  0.121900  1
  H  H436  1  0.173400  0.269200  0.946300  1
  H  H437  1  0.946300  0.173400  0.269200  1
  H  H438  1  0.269200  0.946300  0.173400  1
  H  H439  1  0.120100  0.212800  0.876300  1
  H  H440  1  0.876300  0.120100  0.212800  1
  H  H441  1  0.212800  0.876300  0.120100  1
  H  H442  1  0.197900  0.157700  0.889600  1
  H  H443  1  0.889600  0.197900  0.157700  1
  H  H444  1  0.157700  0.889600  0.197900  1
  H  H445  1  0.188300  0.244800  0.853500  1
  H  H446  1  0.853500  0.188300  0.244800  1
  H  H447  1  0.244800  0.853500  0.188300  1
  H  H448  1  0.158900  0.175500  0.984600  1
  H  H449  1  0.984600  0.158900  0.175500  1
  H  H450  1  0.175500  0.984600  0.158900  1
  H  H451  1  0.239700  0.263500  0.628600  1
  H  H452  1  0.628600  0.239700  0.263500  1
  H  H453  1  0.263500  0.628600  0.239700  1
  H  H454  1  0.364600  0.311600  0.674000  1
  H  H455  1  0.674000  0.364600  0.311600  1
  H  H456  1  0.311600  0.674000  0.364600  1
  H  H457  1  0.309000  0.346700  0.623700  1
  H  H458  1  0.623700  0.309000  0.346700  1
  H  H459  1  0.346700  0.623700  0.309000  1
  H  H460  1  0.380800  0.278700  0.608200  1
  H  H461  1  0.608200  0.380800  0.278700  1
  H  H462  1  0.278700  0.608200  0.380800  1
  H  H463  1  0.304900  0.162900  0.785200  1
  H  H464  1  0.785200  0.304900  0.162900  1
  H  H465  1  0.162900  0.785200  0.304900  1
  H  H466  1  0.367600  0.202900  0.759300  1
  H  H467  1  0.759300  0.367600  0.202900  1
  H  H468  1  0.202900  0.759300  0.367600  1
  H  H469  1  0.373600  0.152200  0.713400  1
  H  H470  1  0.713400  0.373600  0.152200  1
  H  H471  1  0.152200  0.713400  0.373600  1
  H  H472  1  0.946300  0.708000  0.897200  1
  H  H473  1  0.897200  0.946300  0.708000  1
  H  H474  1  0.708000  0.897200  0.946300  1
  H  H475  1  0.995300  0.650500  0.737400  1
  H  H476  1  0.737400  0.995300  0.650500  1
  H  H477  1  0.650500  0.737400  0.995300  1
  H  H478  1  0.031100  0.629800  0.802100  1
  H  H479  1  0.802100  0.031100  0.629800  1
  H  H480  1  0.629800  0.802100  0.031100  1
  H  H481  1  0.004100  0.714500  0.756400  1
  H  H482  1  0.756400  0.004100  0.714500  1
  H  H483  1  0.714500  0.756400  0.004100  1
  H  H484  1  0.884900  0.679200  0.751000  1
  H  H485  1  0.751000  0.884900  0.679200  1
  H  H486  1  0.679200  0.751000  0.884900  1
  H  H487  1  0.821500  0.714800  0.814200  1
  H  H488  1  0.814200  0.821500  0.714800  1
  H  H489  1  0.714800  0.814200  0.821500  1
  H  H490  1  0.852600  0.626600  0.830200  1
  H  H491  1  0.830200  0.852600  0.626600  1
  H  H492  1  0.626600  0.830200  0.852600  1
  H  H493  1  0.547200  0.124000  0.598000  1
  H  H494  1  0.598000  0.547200  0.124000  1
  H  H495  1  0.124000  0.598000  0.547200  1
  H  H496  1  0.433300  0.069100  0.659700  1
  H  H497  1  0.659700  0.433300  0.069100  1
  H  H498  1  0.069100  0.659700  0.433300  1
  H  H499  1  0.447100  0.994800  0.641600  1
  H  H500  1  0.641600  0.447100  0.994800  1
  H  H501  1  0.994800  0.641600  0.447100  1
  H  H502  1  0.460800  0.067400  0.575400  1
  H  H503  1  0.575400  0.460800  0.067400  1
  H  H504  1  0.067400  0.575400  0.460800  1
  H  H505  1  0.562100  0.912400  0.625500  1
  H  H506  1  0.625500  0.562100  0.912400  1
  H  H507  1  0.912400  0.625500  0.562100  1
  H  H508  1  0.631800  0.931800  0.622500  1
  H  H509  1  0.622500  0.631800  0.931800  1
  H  H510  1  0.931800  0.622500  0.631800  1
  H  H511  1  0.603800  0.962500  0.550200  1
  H  H512  1  0.550200  0.603800  0.962500  1
  H  H513  1  0.962500  0.550200  0.603800  1
  H  H514  1  0.528200  0.990400  0.660600  1
  H  H515  1  0.660600  0.528200  0.990400  1
  H  H516  1  0.990400  0.660600  0.528200  1
  H  H517  1  0.638400  0.985400  0.629200  1
  H  H518  1  0.629200  0.638400  0.985400  1
  H  H519  1  0.985400  0.629200  0.638400  1
  H  H520  1  0.615200  0.071200  0.584900  1
  H  H521  1  0.584900  0.615200  0.071200  1
  H  H522  1  0.071200  0.584900  0.615200  1
  H  H523  1  0.636100  0.009200  0.545600  1
  H  H524  1  0.545600  0.636100  0.009200  1
  H  H525  1  0.009200  0.545600  0.636100  1
  H  H526  1  0.548300  0.111100  0.792200  1
  H  H527  1  0.792200  0.548300  0.111100  1
  H  H528  1  0.111100  0.792200  0.548300  1
  H  H529  1  0.432600  0.995200  0.801500  1
  H  H530  1  0.801500  0.432600  0.995200  1
  H  H531  1  0.995200  0.801500  0.432600  1
  H  H532  1  0.395300  0.077200  0.810500  1
  H  H533  1  0.810500  0.395300  0.077200  1
  H  H534  1  0.077200  0.810500  0.395300  1
  H  H535  1  0.397100  0.007000  0.882500  1
  H  H536  1  0.882500  0.397100  0.007000  1
  H  H537  1  0.007000  0.882500  0.397100  1
  H  H538  1  0.531200  0.919300  0.861300  1
  H  H539  1  0.861300  0.531200  0.919300  1
  H  H540  1  0.919300  0.861300  0.531200  1
  H  H541  1  0.538400  0.959100  0.910300  1
  H  H542  1  0.910300  0.538400  0.959100  1
  H  H543  1  0.959100  0.910300  0.538400  1
  H  H544  1  0.594500  0.960100  0.829200  1
  H  H545  1  0.829200  0.594500  0.960100  1
  H  H546  1  0.960100  0.829200  0.594500  1
  H  H547  1  0.816900  0.749600  0.016500  1.0
  H  H548  1  0.016500  0.816900  0.749600  1.0
  H  H549  1  0.749600  0.016500  0.816900  1.0
  H  H550  1  0.778900  0.805600  0.061200  1.0
  H  H551  1  0.061200  0.778900  0.805600  1.0
  H  H552  1  0.805600  0.061200  0.778900  1.0
  H  H553  1  0.521100  0.501000  0.893600  1.0
  H  H554  1  0.893600  0.521100  0.501000  1.0
  H  H555  1  0.501000  0.893600  0.521100  1.0
  H  H556  1  0.604800  0.474300  0.880400  1.0
  H  H557  1  0.880400  0.604800  0.474300  1.0
  H  H558  1  0.474300  0.880400  0.604800  1.0
  H  H559  1  0.238000  0.435400  0.486600  1.0
  H  H560  1  0.486600  0.238000  0.435400  1.0
  H  H561  1  0.435400  0.486600  0.238000  1.0
  H  H562  1  0.204700  0.441900  0.428800  1.0
  H  H563  1  0.428800  0.204700  0.441900  1.0
  H  H564  1  0.441900  0.428800  0.204700  1.0
  H  H565  1  0.776800  0.304700  0.708000  1.0
  H  H566  1  0.708000  0.776800  0.304700  1.0
  H  H567  1  0.304700  0.708000  0.776800  1.0
  H  H568  1  0.783700  0.351200  0.627600  1.0
  H  H569  1  0.627600  0.783700  0.351200  1.0
  H  H570  1  0.351200  0.627600  0.783700  1.0
  H  H571  1  0.992100  0.513900  0.185000  1.0
  H  H572  1  0.185000  0.992100  0.513900  1.0
  H  H573  1  0.513900  0.185000  0.992100  1.0
  H  H574  1  0.969100  0.603200  0.999000  1.0
  H  H575  1  0.999000  0.969100  0.603200  1.0
  H  H576  1  0.603200  0.999000  0.969100  1.0
  H  H577  1  0.050700  0.563700  0.895700  1.0
  H  H578  1  0.895700  0.050700  0.563700  1.0
  H  H579  1  0.563700  0.895700  0.050700  1.0
  H  H580  1  0.172300  0.392700  0.028800  1.0
  H  H581  1  0.028800  0.172300  0.392700  1.0
  H  H582  1  0.392700  0.028800  0.172300  1.0
  H  H583  1  0.090500  0.439800  0.125300  1.0
  H  H584  1  0.125300  0.090500  0.439800  1.0
  H  H585  1  0.439800  0.125300  0.090500  1.0
  H  H586  1  0.474800  0.251800  0.884300  1.0
  H  H587  1  0.884300  0.474800  0.251800  1.0
  H  H588  1  0.251800  0.884300  0.474800  1.0
  H  H589  1  0.376400  0.261900  0.864300  1.0
  H  H590  1  0.864300  0.376400  0.261900  1.0
  H  H591  1  0.261900  0.864300  0.376400  1.0
  H  H592  1  0.251100  0.319800  0.863000  1.0
  H  H593  1  0.863000  0.251100  0.319800  1.0
  H  H594  1  0.319800  0.863000  0.251100  1.0
  H  H595  1  0.258900  0.496800  0.900800  1.0
  H  H596  1  0.900800  0.258900  0.496800  1.0
  H  H597  1  0.496800  0.900800  0.258900  1.0
  H  H598  1  0.380200  0.427400  0.915800  1.0
  H  H599  1  0.915800  0.380200  0.427400  1.0
  H  H600  1  0.427400  0.915800  0.380200  1.0
  H  H601  1  0.001700  0.381200  0.741700  1.0
  H  H602  1  0.741700  0.001700  0.381200  1.0
  H  H603  1  0.381200  0.741700  0.001700  1.0
  H  H604  1  0.172300  0.425100  0.676300  1.0
  H  H605  1  0.676300  0.172300  0.425100  1.0
  H  H606  1  0.425100  0.676300  0.172300  1.0
  H  H607  1  0.220800  0.455000  0.748500  1.0
  H  H608  1  0.748500  0.220800  0.455000  1.0
  H  H609  1  0.455000  0.748500  0.220800  1.0
  H  H610  1  0.040100  0.414600  0.921600  1.0
  H  H611  1  0.921600  0.040100  0.414600  1.0
  H  H612  1  0.414600  0.921600  0.040100  1.0
  H  H613  1  0.993400  0.397600  0.847300  1.0
  H  H614  1  0.847300  0.993400  0.397600  1.0
  H  H615  1  0.397600  0.847300  0.993400  1.0
  H  H616  1  0.055900  0.250400  0.732200  1.0
  H  H617  1  0.732200  0.055900  0.250400  1.0
  H  H618  1  0.250400  0.732200  0.055900  1.0
  H  H619  1  0.098800  0.152800  0.808800  1.0
  H  H620  1  0.808800  0.098800  0.152800  1.0
  H  H621  1  0.152800  0.808800  0.098800  1.0
  H  H622  1  0.094100  0.053800  0.905600  1.0
  H  H623  1  0.905600  0.094100  0.053800  1.0
  H  H624  1  0.053800  0.905600  0.094100  1.0
  H  H625  1  0.881300  0.084700  0.913800  1.0
  H  H626  1  0.913800  0.881300  0.084700  1.0
  H  H627  1  0.084700  0.913800  0.881300  1.0
  H  H628  1  0.898100  0.186400  0.816000  1.0
  H  H629  1  0.816000  0.898100  0.186400  1.0
  H  H630  1  0.186400  0.816000  0.898100  1.0
  N  N631  1  0.985333  0.985333  0.985333  1
  N  N632  1  0.288580  0.948610  0.837880  1
  N  N633  1  0.837880  0.288580  0.948610  1
  N  N634  1  0.948610  0.837880  0.288580  1
  N  N635  1  0.099000  0.322440  0.338890  1
  N  N636  1  0.338890  0.099000  0.322440  1
  N  N637  1  0.322440  0.338890  0.099000  1
  N  N638  1  0.705510  0.494090  0.449640  1
  N  N639  1  0.449640  0.705510  0.494090  1
  N  N640  1  0.494090  0.449640  0.705510  1
  N  N641  1  0.730460  0.767090  0.532780  1
  N  N642  1  0.532780  0.730460  0.767090  1
  N  N643  1  0.767090  0.532780  0.730460  1
  N  N644  1  0.656420  0.228130  0.646550  1
  N  N645  1  0.646550  0.656420  0.228130  1
  N  N646  1  0.228130  0.646550  0.656420  1
  N  N647  1  0.007424  0.069420  0.681717  1
  N  N648  1  0.681717  0.007424  0.069420  1
  N  N649  1  0.069420  0.681717  0.007424  1
  N  N650  1  0.745020  0.787980  0.549500  1
  N  N651  1  0.549500  0.745020  0.787980  1
  N  N652  1  0.787980  0.549500  0.745020  1
  N  N653  1  0.229830  0.175320  0.553850  1
  N  N654  1  0.553850  0.229830  0.175320  1
  N  N655  1  0.175320  0.553850  0.229830  1
  N  N656  1  0.209550  0.159350  0.984900  1
  N  N657  1  0.984900  0.209550  0.159350  1
  N  N658  1  0.159350  0.984900  0.209550  1
  N  N659  1  0.299500  0.249270  0.697510  1
  N  N660  1  0.697510  0.299500  0.249270  1
  N  N661  1  0.249270  0.697510  0.299500  1
  N  N662  1  0.920780  0.673040  0.830510  1
  N  N663  1  0.830510  0.920780  0.673040  1
  N  N664  1  0.673040  0.830510  0.920780  1
  N  N665  1  0.539620  0.015500  0.626660  1
  N  N666  1  0.626660  0.539620  0.015500  1
  N  N667  1  0.015500  0.626660  0.539620  1
  N  N668  1  0.493990  0.028970  0.829070  1
  N  N669  1  0.829070  0.493990  0.028970  1
  N  N670  1  0.028970  0.829070  0.493990  1
  N  N671  1  0.808770  0.762040  0.056170  1.0
  N  N672  1  0.056170  0.808770  0.762040  1.0
  N  N673  1  0.762040  0.056170  0.808770  1.0
  N  N674  1  0.888560  0.646260  0.097230  1.0
  N  N675  1  0.097230  0.888560  0.646260  1.0
  N  N676  1  0.646260  0.097230  0.888560  1.0
  N  N677  1  0.913730  0.600430  0.158390  1.0
  N  N678  1  0.158390  0.913730  0.600430  1.0
  N  N679  1  0.600430  0.158390  0.913730  1.0
  N  N680  1  0.563310  0.466030  0.886990  1.0
  N  N681  1  0.886990  0.563310  0.466030  1.0
  N  N682  1  0.466030  0.886990  0.563310  1.0
  N  N683  1  0.505630  0.383840  0.896240  1.0
  N  N684  1  0.896240  0.505630  0.383840  1.0
  N  N685  1  0.383840  0.896240  0.505630  1.0
  N  N686  1  0.521410  0.314480  0.887900  1.0
  N  N687  1  0.887900  0.521410  0.314480  1.0
  N  N688  1  0.314480  0.887900  0.521410  1.0
  N  N689  1  0.201790  0.433200  0.475450  1.0
  N  N690  1  0.475450  0.201790  0.433200  1.0
  N  N691  1  0.433200  0.475450  0.201790  1.0
  N  N692  1  0.132510  0.402770  0.600780  1.0
  N  N693  1  0.600780  0.132510  0.402770  1.0
  N  N694  1  0.402770  0.600780  0.132510  1.0
  N  N695  1  0.068850  0.387680  0.645210  1.0
  N  N696  1  0.645210  0.068850  0.387680  1.0
  N  N697  1  0.387680  0.645210  0.068850  1.0
  N  N698  1  0.170120  0.446340  0.885930  1.0
  N  N699  1  0.885930  0.170120  0.446340  1.0
  N  N700  1  0.446340  0.885930  0.170120  1.0
  N  N701  1  0.802430  0.328290  0.665470  1.0
  N  N702  1  0.665470  0.802430  0.328290  1.0
  N  N703  1  0.328290  0.665470  0.802430  1.0
  N  N704  1  0.899350  0.292900  0.718480  1.0
  N  N705  1  0.718480  0.899350  0.292900  1.0
  N  N706  1  0.292900  0.718480  0.899350  1.0
  N  N707  1  0.966430  0.299060  0.702720  1.0
  N  N708  1  0.702720  0.966430  0.299060  1.0
  N  N709  1  0.299060  0.702720  0.966430  1.0
  Ni  Ni710  1  0.876660  0.623462  0.246051  1.0
  Ni  Ni711  1  0.246051  0.876660  0.623462  1.0
  Ni  Ni712  1  0.623462  0.246051  0.876660  1.0
  Ni  Ni713  1  0.005931  0.366111  0.615338  1.0
  Ni  Ni714  1  0.615338  0.005931  0.366111  1.0
  Ni  Ni715  1  0.366111  0.615338  0.005931  1.0
  O  O716  1  0.373900  0.858070  0.884500  1
  O  O717  1  0.884500  0.373900  0.858070  1
  O  O718  1  0.858070  0.884500  0.373900  1
  O  O719  1  0.090030  0.427410  0.251020  1
  O  O720  1  0.251020  0.090030  0.427410  1
  O  O721  1  0.427410  0.251020  0.090030  1
  O  O722  1  0.927190  0.025390  0.768160  1
  O  O723  1  0.768160  0.927190  0.025390  1
  O  O724  1  0.025390  0.768160  0.927190  1
  O  O725  1  0.728030  0.401740  0.548930  1
  O  O726  1  0.548930  0.728030  0.401740  1
  O  O727  1  0.401740  0.548930  0.728030  1
  O  O728  1  0.832550  0.674580  0.530910  1
  O  O729  1  0.530910  0.832550  0.674580  1
  O  O730  1  0.674580  0.530910  0.832550  1
  O  O731  1  0.559300  0.252900  0.610900  1
  O  O732  1  0.610900  0.559300  0.252900  1
  O  O733  1  0.252900  0.610900  0.559300  1
  O  O734  1  0.897933  0.897967  0.897900  1
  O  O735  1  0.913820  0.170280  0.673450  1
  O  O736  1  0.673450  0.913820  0.170280  1
  O  O737  1  0.170280  0.673450  0.913820  1
  O  O738  1  0.837900  0.691020  0.523910  1
  O  O739  1  0.523910  0.837900  0.691020  1
  O  O740  1  0.691020  0.523910  0.837900  1
  O  O741  1  0.330110  0.211690  0.492950  1
  O  O742  1  0.492950  0.330110  0.211690  1
  O  O743  1  0.211690  0.492950  0.330110  1
  O  O744  1  0.284280  0.167780  0.538380  1
  O  O745  1  0.538380  0.284280  0.167780  1
  O  O746  1  0.167780  0.538380  0.284280  1
  O  O747  1  0.100580  0.168300  0.981240  1
  O  O748  1  0.981240  0.100580  0.168300  1
  O  O749  1  0.168300  0.981240  0.100580  1
  O  O750  1  0.142130  0.215730  0.955230  1
  O  O751  1  0.955230  0.142130  0.215730  1
  O  O752  1  0.215730  0.955230  0.142130  1
  O  O753  1  0.333700  0.121700  0.998900  1
  O  O754  1  0.998900  0.333700  0.121700  1
  O  O755  1  0.121700  0.998900  0.333700  1
  O  O756  1  0.207910  0.202860  0.723460  1
  O  O757  1  0.723460  0.207910  0.202860  1
  O  O758  1  0.202860  0.723460  0.207910  1
  O  O759  1  0.844700  0.730680  0.916240  1
  O  O760  1  0.916240  0.844700  0.730680  1
  O  O761  1  0.730680  0.916240  0.844700  1
  O  O762  1  0.637080  0.048080  0.607680  1
  O  O763  1  0.607680  0.637080  0.048080  1
  O  O764  1  0.048080  0.607680  0.637080  1
  O  O765  1  0.535730  0.022030  0.619130  1
  O  O766  1  0.619130  0.535730  0.022030  1
  O  O767  1  0.022030  0.619130  0.535730  1
  O  O768  1  0.451010  0.133810  0.857660  1
  O  O769  1  0.857660  0.451010  0.133810  1
  O  O770  1  0.133810  0.857660  0.451010  1
  O  O771  1  0.495200  0.031400  0.857800  1
  O  O772  1  0.857800  0.495200  0.031400  1
  O  O773  1  0.031400  0.857800  0.495200  1
  O  O774  1  0.525130  0.307230  0.466330  1
  O  O775  1  0.466330  0.525130  0.307230  1
  O  O776  1  0.307230  0.466330  0.525130  1
  O  O777  1  0.997750  0.089220  0.686570  1
  O  O778  1  0.686570  0.997750  0.089220  1
  O  O779  1  0.089220  0.686570  0.997750  1
  S  S780  1  0.832000  0.734780  0.185630  1.0
  S  S781  1  0.185630  0.832000  0.734780  1.0
  S  S782  1  0.734780  0.185630  0.832000  1.0
  S  S783  1  0.657310  0.341260  0.857400  1.0
  S  S784  1  0.857400  0.657310  0.341260  1.0
  S  S785  1  0.341260  0.857400  0.657310  1.0
  S  S786  1  0.068100  0.415710  0.505430  1.0
  S  S787  1  0.505430  0.068100  0.415710  1.0
  S  S788  1  0.415710  0.505430  0.068100  1.0
  S  S789  1  0.922920  0.372000  0.573840  1.0
  S  S790  1  0.573840  0.922920  0.372000  1.0
  S  S791  1  0.372000  0.573840  0.922920  1.0
