# generated using pymatgen
data_CuP2H30C37N
_symmetry_space_group_name_H-M   'P 1'
_cell_length_a   13.71590000
_cell_length_b   20.38141508
_cell_length_c   20.38141508
_cell_angle_alpha   115.12031984
_cell_angle_beta   102.96291698
_cell_angle_gamma   102.96291698
_symmetry_Int_Tables_number   1
_chemical_formula_structural   CuP2H30C37N
_chemical_formula_sum   'Cu6 P12 H180 C222 N6'
_cell_volume   4685.98689939
_cell_formula_units_Z   6
loop_
 _symmetry_equiv_pos_site_id
 _symmetry_equiv_pos_as_xyz
  1  'x, y, z'
loop_
 _atom_site_type_symbol
 _atom_site_label
 _atom_site_symmetry_multiplicity
 _atom_site_fract_x
 _atom_site_fract_y
 _atom_site_fract_z
 _atom_site_occupancy
  C  C1  1  0.371650  0.768280  0.800230  1.0
  C  C2  1  0.603370  0.031950  0.231720  1.0
  C  C3  1  0.571420  0.199770  0.968050  1.0
  C  C4  1  0.628350  0.231720  0.199770  1.0
  C  C5  1  0.396630  0.968050  0.768280  1.0
  C  C6  1  0.428580  0.800230  0.031950  1.0
  C  C7  1  0.585270  0.780330  0.626600  1.0
  C  C8  1  0.804940  0.846270  0.219670  1.0
  C  C9  1  0.958670  0.373400  0.153730  1.0
  C  C10  1  0.414730  0.219670  0.373400  1.0
  C  C11  1  0.195060  0.153730  0.780330  1.0
  C  C12  1  0.041330  0.626600  0.846270  1.0
  C  C13  1  0.607330  0.840140  0.609810  1.0
  C  C14  1  0.767190  0.769670  0.159860  1.0
  C  C15  1  0.997520  0.390190  0.230330  1.0
  C  C16  1  0.392670  0.159860  0.390190  1.0
  C  C17  1  0.232810  0.230330  0.840140  1.0
  C  C18  1  0.002480  0.609810  0.769670  1.0
  C  C19  1  0.612800  0.825540  0.537920  1.0
  C  C20  1  0.787260  0.712380  0.174460  1.0
  C  C21  1  0.074880  0.462080  0.287620  1.0
  C  C22  1  0.387200  0.174460  0.462080  1.0
  C  C23  1  0.212740  0.287620  0.825540  1.0
  C  C24  1  0.925120  0.537920  0.712380  1.0
  C  C25  1  0.596360  0.751900  0.482530  1.0
  C  C26  1  0.844460  0.730630  0.248100  1.0
  C  C27  1  0.113830  0.517470  0.269370  1.0
  C  C28  1  0.403640  0.248100  0.517470  1.0
  C  C29  1  0.155540  0.269370  0.751900  1.0
  C  C30  1  0.886170  0.482530  0.730630  1.0
  C  C31  1  0.571860  0.691930  0.497650  1.0
  C  C32  1  0.879930  0.805720  0.308070  1.0
  C  C33  1  0.074210  0.502350  0.194280  1.0
  C  C34  1  0.428140  0.308070  0.502350  1.0
  C  C35  1  0.120070  0.194280  0.691930  1.0
  C  C36  1  0.925790  0.497650  0.805720  1.0
  C  C37  1  0.566310  0.705840  0.569450  1.0
  C  C38  1  0.860470  0.863610  0.294160  1.0
  C  C39  1  0.996860  0.430550  0.136390  1.0
  C  C40  1  0.433690  0.294160  0.430550  1.0
  C  C41  1  0.139530  0.136390  0.705840  1.0
  C  C42  1  0.003140  0.569450  0.863610  1.0
  C  C43  1  0.672900  0.893130  0.789770  1.0
  C  C44  1  0.779770  0.896640  0.106870  1.0
  C  C45  1  0.883130  0.210230  0.103360  1.0
  C  C46  1  0.327100  0.106870  0.210230  1.0
  C  C47  1  0.220230  0.103360  0.893130  1.0
  C  C48  1  0.116870  0.789770  0.896640  1.0
  C  C49  1  0.645730  0.947200  0.844660  1.0
  C  C50  1  0.698530  0.897460  0.052800  1.0
  C  C51  1  0.801070  0.155340  0.102540  1.0
  C  C52  1  0.354270  0.052800  0.155340  1.0
  C  C53  1  0.301470  0.102540  0.947200  1.0
  C  C54  1  0.198930  0.844660  0.897460  1.0
  C  C55  1  0.721160  0.020080  0.899940  1.0
  C  C56  1  0.701080  0.879860  0.979920  1.0
  C  C57  1  0.821220  0.100060  0.120140  1.0
  C  C58  1  0.278840  0.979920  0.100060  1.0
  C  C59  1  0.298920  0.120140  0.020080  1.0
  C  C60  1  0.178780  0.899940  0.879860  1.0
  C  C61  1  0.824400  0.039490  0.903150  1.0
  C  C62  1  0.784910  0.863660  0.960510  1.0
  C  C63  1  0.921250  0.096850  0.136340  1.0
  C  C64  1  0.175600  0.960510  0.096850  1.0
  C  C65  1  0.215090  0.136340  0.039490  1.0
  C  C66  1  0.078750  0.903150  0.863660  1.0
  C  C67  1  0.853360  0.986370  0.849110  1.0
  C  C68  1  0.866990  0.862740  0.013630  1.0
  C  C69  1  0.004250  0.150890  0.137260  1.0
  C  C70  1  0.146640  0.013630  0.150890  1.0
  C  C71  1  0.133010  0.137260  0.986370  1.0
  C  C72  1  0.995750  0.849110  0.862740  1.0
  C  C73  1  0.778450  0.914310  0.792560  1.0
  C  C74  1  0.864140  0.878250  0.085690  1.0
  C  C75  1  0.985890  0.207440  0.121750  1.0
  C  C76  1  0.221550  0.085690  0.207440  1.0
  C  C77  1  0.135860  0.121750  0.914310  1.0
  C  C78  1  0.014110  0.792560  0.878250  1.0
  C  C79  1  0.615800  0.727470  0.734720  1.0
  C  C80  1  0.888330  0.007250  0.272530  1.0
  C  C81  1  0.881080  0.265280  0.992750  1.0
  C  C82  1  0.384200  0.272530  0.265280  1.0
  C  C83  1  0.111670  0.992750  0.727470  1.0
  C  C84  1  0.118920  0.734720  0.007250  1.0
  C  C85  1  0.710040  0.717870  0.726260  1.0
  C  C86  1  0.992170  0.008390  0.282130  1.0
  C  C87  1  0.983780  0.273740  0.991610  1.0
  C  C88  1  0.289960  0.282130  0.273740  1.0
  C  C89  1  0.007830  0.991610  0.717870  1.0
  C  C90  1  0.016220  0.726260  0.008390  1.0
  C  C91  1  0.741390  0.661700  0.736380  1.0
  C  C92  1  0.079690  0.074680  0.338300  1.0
  C  C93  1  0.005010  0.263620  0.925320  1.0
  C  C94  1  0.258610  0.338300  0.263620  1.0
  C  C95  1  0.920310  0.925320  0.661700  1.0
  C  C96  1  0.994990  0.736380  0.074680  1.0
  C  C97  1  0.678850  0.614100  0.753950  1.0
  C  C98  1  0.064750  0.139850  0.385900  1.0
  C  C99  1  0.924900  0.246050  0.860150  1.0
  C  C100  1  0.321150  0.385900  0.246050  1.0
  C  C101  1  0.935250  0.860150  0.614100  1.0
  C  C102  1  0.075100  0.753950  0.139850  1.0
  C  C103  1  0.585700  0.622350  0.761570  1.0
  C  C104  1  0.963350  0.139220  0.377650  1.0
  C  C105  1  0.824130  0.238430  0.860780  1.0
  C  C106  1  0.414300  0.377650  0.238430  1.0
  C  C107  1  0.036650  0.860780  0.622350  1.0
  C  C108  1  0.175870  0.761570  0.139220  1.0
  C  C109  1  0.554260  0.679290  0.753200  1.0
  C  C110  1  0.874970  0.073910  0.320710  1.0
  C  C111  1  0.801060  0.246800  0.926090  1.0
  C  C112  1  0.445740  0.320710  0.246800  1.0
  C  C113  1  0.125030  0.926090  0.679290  1.0
  C  C114  1  0.198940  0.753200  0.073910  1.0
  C  C115  1  0.242990  0.739060  0.528850  1.0
  C  C116  1  0.503930  0.789790  0.260940  1.0
  C  C117  1  0.714140  0.471150  0.210210  1.0
  C  C118  1  0.757010  0.260940  0.471150  1.0
  C  C119  1  0.496070  0.210210  0.739060  1.0
  C  C120  1  0.285860  0.528850  0.789790  1.0
  C  C121  1  0.327990  0.792340  0.531580  1.0
  C  C122  1  0.535650  0.739240  0.207660  1.0
  C  C123  1  0.796410  0.468420  0.260760  1.0
  C  C124  1  0.672010  0.207660  0.468420  1.0
  C  C125  1  0.464350  0.260760  0.792340  1.0
  C  C126  1  0.203590  0.531580  0.739240  1.0
  C  C127  1  0.318870  0.810920  0.473670  1.0
  C  C128  1  0.507950  0.662750  0.189080  1.0
  C  C129  1  0.845200  0.526330  0.337250  1.0
  C  C130  1  0.681130  0.189080  0.526330  1.0
  C  C131  1  0.492050  0.337250  0.810920  1.0
  C  C132  1  0.154800  0.473670  0.662750  1.0
  C  C133  1  0.224070  0.777900  0.412610  1.0
  C  C134  1  0.446170  0.634710  0.222100  1.0
  C  C135  1  0.811460  0.587390  0.365290  1.0
  C  C136  1  0.775930  0.222100  0.587390  1.0
  C  C137  1  0.553830  0.365290  0.777900  1.0
  C  C138  1  0.188540  0.412610  0.634710  1.0
  C  C139  1  0.137160  0.726810  0.409670  1.0
  C  C140  1  0.410350  0.682860  0.273190  1.0
  C  C141  1  0.727490  0.590330  0.317140  1.0
  C  C142  1  0.862840  0.273190  0.590330  1.0
  C  C143  1  0.589650  0.317140  0.726810  1.0
  C  C144  1  0.272510  0.409670  0.682860  1.0
  C  C145  1  0.146910  0.707520  0.467810  1.0
  C  C146  1  0.439390  0.760290  0.292480  1.0
  C  C147  1  0.679100  0.532190  0.239710  1.0
  C  C148  1  0.853090  0.292480  0.532190  1.0
  C  C149  1  0.560610  0.239710  0.707520  1.0
  C  C150  1  0.320900  0.467810  0.760290  1.0
  C  C151  1  0.135060  0.680170  0.607660  1.0
  C  C152  1  0.454890  0.927490  0.319830  1.0
  C  C153  1  0.527400  0.392340  0.072510  1.0
  C  C154  1  0.864940  0.319830  0.392340  1.0
  C  C155  1  0.545110  0.072510  0.680170  1.0
  C  C156  1  0.472600  0.607660  0.927490  1.0
  C  C157  1  0.112820  0.733520  0.667260  1.0
  C  C158  1  0.379300  0.933740  0.266480  1.0
  C  C159  1  0.445560  0.332740  0.066260  1.0
  C  C160  1  0.887180  0.266480  0.332740  1.0
  C  C161  1  0.620700  0.066260  0.733520  1.0
  C  C162  1  0.554440  0.667260  0.933740  1.0
  C  C163  1  0.010350  0.718290  0.668360  1.0
  C  C164  1  0.292060  0.950070  0.281710  1.0
  C  C165  1  0.341990  0.331640  0.049930  1.0
  C  C166  1  0.989650  0.281710  0.331640  1.0
  C  C167  1  0.707940  0.049930  0.718290  1.0
  C  C168  1  0.658010  0.668360  0.950070  1.0
  C  C169  1  0.928850  0.650210  0.611730  1.0
  C  C170  1  0.278640  0.961520  0.349790  1.0
  C  C171  1  0.317120  0.388270  0.038480  1.0
  C  C172  1  0.071150  0.349790  0.388270  1.0
  C  C173  1  0.721360  0.038480  0.650210  1.0
  C  C174  1  0.682880  0.611730  0.961520  1.0
  C  C175  1  0.949950  0.595390  0.553960  1.0
  C  C176  1  0.354560  0.958570  0.404610  1.0
  C  C177  1  0.395990  0.446040  0.041430  1.0
  C  C178  1  0.050050  0.404610  0.446040  1.0
  C  C179  1  0.645440  0.041430  0.595390  1.0
  C  C180  1  0.604010  0.553960  0.958570  1.0
  C  C181  1  0.051990  0.609830  0.551730  1.0
  C  C182  1  0.442160  0.941900  0.390170  1.0
  C  C183  1  0.500260  0.448270  0.058100  1.0
  C  C184  1  0.948010  0.390170  0.448270  1.0
  C  C185  1  0.557840  0.058100  0.609830  1.0
  C  C186  1  0.499740  0.551730  0.941900  1.0
  C  C187  1  0.291630  0.620730  0.554210  1.0
  C  C188  1  0.670900  0.933480  0.379270  1.0
  C  C189  1  0.737420  0.445790  0.066520  1.0
  C  C190  1  0.708370  0.379270  0.445790  1.0
  C  C191  1  0.329100  0.066520  0.620730  1.0
  C  C192  1  0.262580  0.554210  0.933480  1.0
  C  C193  1  0.315260  0.583870  0.595720  1.0
  C  C194  1  0.731390  0.011850  0.416130  1.0
  C  C195  1  0.719540  0.404280  0.988150  1.0
  C  C196  1  0.684740  0.416130  0.404280  1.0
  C  C197  1  0.268610  0.988150  0.583870  1.0
  C  C198  1  0.280460  0.595720  0.011850  1.0
  C  C199  1  0.345170  0.520190  0.565470  1.0
  C  C200  1  0.824980  0.045280  0.479810  1.0
  C  C201  1  0.779700  0.434530  0.954720  1.0
  C  C202  1  0.654830  0.479810  0.434530  1.0
  C  C203  1  0.175020  0.954720  0.520190  1.0
  C  C204  1  0.220300  0.565470  0.045280  1.0
  C  C205  1  0.353470  0.493370  0.493770  1.0
  C  C206  1  0.860100  0.000400  0.506630  1.0
  C  C207  1  0.859700  0.506230  0.999600  1.0
  C  C208  1  0.646530  0.506630  0.506230  1.0
  C  C209  1  0.139900  0.999600  0.493370  1.0
  C  C210  1  0.140300  0.493770  0.000400  1.0
  C  C211  1  0.330000  0.528070  0.451750  1.0
  C  C212  1  0.801930  0.923680  0.471930  1.0
  C  C213  1  0.878250  0.548250  0.076320  1.0
  C  C214  1  0.670000  0.471930  0.548250  1.0
  C  C215  1  0.198070  0.076320  0.528070  1.0
  C  C216  1  0.121750  0.451750  0.923680  1.0
  C  C217  1  0.298680  0.591880  0.481870  1.0
  C  C218  1  0.706800  0.889990  0.408120  1.0
  C  C219  1  0.816810  0.518130  0.110010  1.0
  C  C220  1  0.701320  0.408120  0.518130  1.0
  C  C221  1  0.293200  0.110010  0.591880  1.0
  C  C222  1  0.183190  0.481870  0.889990  1.0
  Cu  Cu223  1  0.399371  0.799499  0.724086  1.0
  Cu  Cu224  1  0.599872  0.924587  0.200501  1.0
  Cu  Cu225  1  0.675285  0.275914  0.075413  1.0
  Cu  Cu226  1  0.600629  0.200501  0.275914  1.0
  Cu  Cu227  1  0.400128  0.075413  0.799499  1.0
  Cu  Cu228  1  0.324715  0.724086  0.924587  1.0
  H  H229  1  0.616700  0.892900  0.649000  1.0
  H  H230  1  0.723800  0.756100  0.107100  1.0
  H  H231  1  0.967700  0.351000  0.243900  1.0
  H  H232  1  0.383300  0.107100  0.351000  1.0
  H  H233  1  0.276200  0.243900  0.892900  1.0
  H  H234  1  0.032300  0.649000  0.756100  1.0
  H  H235  1  0.625100  0.862200  0.528200  1.0
  H  H236  1  0.762900  0.666000  0.137800  1.0
  H  H237  1  0.096900  0.471800  0.334000  1.0
  H  H238  1  0.374900  0.137800  0.471800  1.0
  H  H239  1  0.237100  0.334000  0.862200  1.0
  H  H240  1  0.903100  0.528200  0.666000  1.0
  H  H241  1  0.607600  0.743200  0.433600  1.0
  H  H242  1  0.864400  0.690400  0.256800  1.0
  H  H243  1  0.174000  0.566400  0.309600  1.0
  H  H244  1  0.392400  0.256800  0.566400  1.0
  H  H245  1  0.135600  0.309600  0.743200  1.0
  H  H246  1  0.826000  0.433600  0.690400  1.0
  H  H247  1  0.560700  0.644900  0.462600  1.0
  H  H248  1  0.915800  0.817700  0.355100  1.0
  H  H249  1  0.098100  0.537400  0.182300  1.0
  H  H250  1  0.439300  0.355100  0.537400  1.0
  H  H251  1  0.084200  0.182300  0.644900  1.0
  H  H252  1  0.901900  0.462600  0.817700  1.0
  H  H253  1  0.549100  0.665800  0.582100  1.0
  H  H254  1  0.883300  0.916300  0.334200  1.0
  H  H255  1  0.967000  0.417900  0.083700  1.0
  H  H256  1  0.450900  0.334200  0.417900  1.0
  H  H257  1  0.116700  0.083700  0.665800  1.0
  H  H258  1  0.033000  0.582100  0.916300  1.0
  H  H259  1  0.578500  0.933600  0.844400  1.0
  H  H260  1  0.644900  0.910800  0.066400  1.0
  H  H261  1  0.734100  0.155600  0.089200  1.0
  H  H262  1  0.421500  0.066400  0.155600  1.0
  H  H263  1  0.355100  0.089200  0.933600  1.0
  H  H264  1  0.265900  0.844400  0.910800  1.0
  H  H265  1  0.698900  0.054000  0.930100  1.0
  H  H266  1  0.644900  0.876100  0.946000  1.0
  H  H267  1  0.768800  0.069900  0.123900  1.0
  H  H268  1  0.301100  0.946000  0.069900  1.0
  H  H269  1  0.355100  0.123900  0.054000  1.0
  H  H270  1  0.231200  0.930100  0.876100  1.0
  H  H271  1  0.880800  0.090200  0.936500  1.0
  H  H272  1  0.790600  0.846300  0.909800  1.0
  H  H273  1  0.944300  0.063500  0.153700  1.0
  H  H274  1  0.119200  0.909800  0.063500  1.0
  H  H275  1  0.209400  0.153700  0.090200  1.0
  H  H276  1  0.055700  0.936500  0.846300  1.0
  H  H277  1  0.917600  0.998600  0.849600  1.0
  H  H278  1  0.919000  0.851000  0.001400  1.0
  H  H279  1  0.068000  0.150400  0.149000  1.0
  H  H280  1  0.082400  0.001400  0.150400  1.0
  H  H281  1  0.081000  0.149000  0.998600  1.0
  H  H282  1  0.932000  0.849600  0.851000  1.0
  H  H283  1  0.801200  0.881000  0.755700  1.0
  H  H284  1  0.920200  0.874700  0.119000  1.0
  H  H285  1  0.045500  0.244300  0.125300  1.0
  H  H286  1  0.198800  0.119000  0.244300  1.0
  H  H287  1  0.079800  0.125300  0.881000  1.0
  H  H288  1  0.954500  0.755700  0.874700  1.0
  H  H289  1  0.750300  0.747600  0.710900  1.0
  H  H290  1  0.002700  0.963300  0.252400  1.0
  H  H291  1  0.039400  0.289100  0.036700  1.0
  H  H292  1  0.249700  0.252400  0.289100  1.0
  H  H293  1  0.997300  0.036700  0.747600  1.0
  H  H294  1  0.960600  0.710900  0.963300  1.0
  H  H295  1  0.803100  0.659300  0.731100  1.0
  H  H296  1  0.143800  0.071800  0.340700  1.0
  H  H297  1  0.072000  0.268900  0.928200  1.0
  H  H298  1  0.196900  0.340700  0.268900  1.0
  H  H299  1  0.856200  0.928200  0.659300  1.0
  H  H300  1  0.928000  0.731100  0.071800  1.0
  H  H301  1  0.699800  0.571300  0.759400  1.0
  H  H302  1  0.128500  0.188100  0.428700  1.0
  H  H303  1  0.940400  0.240600  0.811900  1.0
  H  H304  1  0.300200  0.428700  0.240600  1.0
  H  H305  1  0.871500  0.811900  0.571300  1.0
  H  H306  1  0.059600  0.759400  0.188100  1.0
  H  H307  1  0.547400  0.594800  0.769800  1.0
  H  H308  1  0.952600  0.175000  0.405200  1.0
  H  H309  1  0.777600  0.230200  0.825000  1.0
  H  H310  1  0.452600  0.405200  0.230200  1.0
  H  H311  1  0.047400  0.825000  0.594800  1.0
  H  H312  1  0.222400  0.769800  0.175000  1.0
  H  H313  1  0.493200  0.682300  0.758200  1.0
  H  H314  1  0.810900  0.075900  0.317700  1.0
  H  H315  1  0.735000  0.241800  0.924100  1.0
  H  H316  1  0.506800  0.317700  0.241800  1.0
  H  H317  1  0.189100  0.924100  0.682300  1.0
  H  H318  1  0.265000  0.758200  0.075900  1.0
  H  H319  1  0.384800  0.818000  0.572700  1.0
  H  H320  1  0.566800  0.754700  0.182000  1.0
  H  H321  1  0.812100  0.427300  0.245300  1.0
  H  H322  1  0.615200  0.182000  0.427300  1.0
  H  H323  1  0.433200  0.245300  0.818000  1.0
  H  H324  1  0.187900  0.572700  0.754700  1.0
  H  H325  1  0.386400  0.850800  0.480500  1.0
  H  H326  1  0.535600  0.629700  0.149200  1.0
  H  H327  1  0.905900  0.519500  0.370300  1.0
  H  H328  1  0.613600  0.149200  0.519500  1.0
  H  H329  1  0.464400  0.370300  0.850800  1.0
  H  H330  1  0.094100  0.480500  0.629700  1.0
  H  H331  1  0.216000  0.794300  0.378900  1.0
  H  H332  1  0.421700  0.584600  0.205700  1.0
  H  H333  1  0.837100  0.621100  0.415400  1.0
  H  H334  1  0.784000  0.205700  0.621100  1.0
  H  H335  1  0.578300  0.415400  0.794300  1.0
  H  H336  1  0.162900  0.378900  0.584600  1.0
  H  H337  1  0.069600  0.707700  0.368300  1.0
  H  H338  1  0.361900  0.660600  0.292300  1.0
  H  H339  1  0.701300  0.631700  0.339400  1.0
  H  H340  1  0.930400  0.292300  0.631700  1.0
  H  H341  1  0.638100  0.339400  0.707700  1.0
  H  H342  1  0.298700  0.368300  0.660600  1.0
  H  H343  1  0.093600  0.678500  0.467400  1.0
  H  H344  1  0.415100  0.788900  0.321500  1.0
  H  H345  1  0.626200  0.532600  0.211100  1.0
  H  H346  1  0.906400  0.321500  0.532600  1.0
  H  H347  1  0.584900  0.211100  0.678500  1.0
  H  H348  1  0.373800  0.467400  0.788900  1.0
  H  H349  1  0.165200  0.780800  0.702000  1.0
  H  H350  1  0.384400  0.921200  0.219200  1.0
  H  H351  1  0.463200  0.298000  0.078800  1.0
  H  H352  1  0.834800  0.219200  0.298000  1.0
  H  H353  1  0.615600  0.078800  0.780800  1.0
  H  H354  1  0.536800  0.702000  0.921200  1.0
  H  H355  1  0.998900  0.752300  0.705900  1.0
  H  H356  1  0.246600  0.953600  0.247700  1.0
  H  H357  1  0.293000  0.294100  0.046400  1.0
  H  H358  1  0.001100  0.247700  0.294100  1.0
  H  H359  1  0.753400  0.046400  0.752300  1.0
  H  H360  1  0.707000  0.705900  0.953600  1.0
  H  H361  1  0.857800  0.641400  0.613700  1.0
  H  H362  1  0.216400  0.972300  0.358600  1.0
  H  H363  1  0.244100  0.386300  0.027700  1.0
  H  H364  1  0.142200  0.358600  0.386300  1.0
  H  H365  1  0.783600  0.027700  0.641400  1.0
  H  H366  1  0.755900  0.613700  0.972300  1.0
  H  H367  1  0.887600  0.543200  0.512700  1.0
  H  H368  1  0.344400  0.969500  0.456800  1.0
  H  H369  1  0.374900  0.487300  0.030500  1.0
  H  H370  1  0.112400  0.456800  0.487300  1.0
  H  H371  1  0.655600  0.030500  0.543200  1.0
  H  H372  1  0.625100  0.512700  0.969500  1.0
  H  H373  1  0.065100  0.573300  0.511100  1.0
  H  H374  1  0.491800  0.937800  0.426700  1.0
  H  H375  1  0.554000  0.488900  0.062200  1.0
  H  H376  1  0.934900  0.426700  0.488900  1.0
  H  H377  1  0.508200  0.062200  0.573300  1.0
  H  H378  1  0.446000  0.511100  0.937800  1.0
  H  H379  1  0.309900  0.601800  0.644300  1.0
  H  H380  1  0.708100  0.042500  0.398200  1.0
  H  H381  1  0.665600  0.355700  0.957500  1.0
  H  H382  1  0.690100  0.398200  0.355700  1.0
  H  H383  1  0.291900  0.957500  0.601800  1.0
  H  H384  1  0.334400  0.644300  0.042500  1.0
  H  H385  1  0.356700  0.496500  0.594800  1.0
  H  H386  1  0.860200  0.098300  0.503500  1.0
  H  H387  1  0.761900  0.405200  0.901700  1.0
  H  H388  1  0.643300  0.503500  0.405200  1.0
  H  H389  1  0.139800  0.901700  0.496500  1.0
  H  H390  1  0.238100  0.594800  0.098300  1.0
  H  H391  1  0.376700  0.452200  0.475900  1.0
  H  H392  1  0.924500  0.023700  0.547800  1.0
  H  H393  1  0.900800  0.524100  0.976300  1.0
  H  H394  1  0.623300  0.547800  0.524100  1.0
  H  H395  1  0.075500  0.976300  0.452200  1.0
  H  H396  1  0.099200  0.475900  0.023700  1.0
  H  H397  1  0.333200  0.508800  0.404000  1.0
  H  H398  1  0.824400  0.895200  0.491200  1.0
  H  H399  1  0.929200  0.596000  0.104800  1.0
  H  H400  1  0.666800  0.491200  0.596000  1.0
  H  H401  1  0.175600  0.104800  0.508800  1.0
  H  H402  1  0.070800  0.404000  0.895200  1.0
  H  H403  1  0.294100  0.621800  0.457500  1.0
  H  H404  1  0.672300  0.835700  0.378200  1.0
  H  H405  1  0.836600  0.542500  0.164300  1.0
  H  H406  1  0.705900  0.378200  0.542500  1.0
  H  H407  1  0.327700  0.164300  0.621800  1.0
  H  H408  1  0.163400  0.457500  0.835700  1.0
  N  N409  1  0.394040  0.905590  0.750460  1.0
  N  N410  1  0.488450  0.844870  0.094410  1.0
  N  N411  1  0.643580  0.249540  0.155130  1.0
  N  N412  1  0.605960  0.094410  0.249540  1.0
  N  N413  1  0.511550  0.155130  0.905590  1.0
  N  N414  1  0.356420  0.750460  0.844870  1.0
  P  P415  1  0.566908  0.798499  0.718555  1.0
  P  P416  1  0.768409  0.920056  0.201501  1.0
  P  P417  1  0.848353  0.281445  0.079944  1.0
  P  P418  1  0.433092  0.201501  0.281445  1.0
  P  P419  1  0.231591  0.079944  0.798499  1.0
  P  P420  1  0.151647  0.718555  0.920056  1.0
  P  P421  1  0.268090  0.711363  0.604067  1.0
  P  P422  1  0.556727  0.892704  0.288637  1.0
  P  P423  1  0.664023  0.395933  0.107296  1.0
  P  P424  1  0.731910  0.288637  0.395933  1.0
  P  P425  1  0.443273  0.107296  0.711363  1.0
  P  P426  1  0.335977  0.604067  0.892704  1.0
