# generated using pymatgen
data_H54Pd3C50N16O29
_symmetry_space_group_name_H-M   'P 1'
_cell_length_a   14.78500000
_cell_length_b   17.42900000
_cell_length_c   27.06100000
_cell_angle_alpha   101.55500000
_cell_angle_beta   90.00000000
_cell_angle_gamma   90.00000000
_symmetry_Int_Tables_number   1
_chemical_formula_structural   H54Pd3C50N16O29
_chemical_formula_sum   'H216 Pd12 C200 N64 O116'
_cell_volume   6831.96008762
_cell_formula_units_Z   4
loop_
 _symmetry_equiv_pos_site_id
 _symmetry_equiv_pos_as_xyz
  1  'x, y, z'
loop_
 _atom_site_type_symbol
 _atom_site_label
 _atom_site_symmetry_multiplicity
 _atom_site_fract_x
 _atom_site_fract_y
 _atom_site_fract_z
 _atom_site_occupancy
  H  H1  1  0.182200  0.234000  0.985000  1.0
  H  H2  1  0.682200  0.266000  0.515000  1.0
  H  H3  1  0.817800  0.766000  0.015000  1.0
  H  H4  1  0.317800  0.734000  0.485000  1.0
  H  H5  1  0.162900  0.228400  0.131700  1.0
  H  H6  1  0.662900  0.271600  0.368300  1.0
  H  H7  1  0.837100  0.771600  0.868300  1.0
  H  H8  1  0.337100  0.728400  0.631700  1.0
  H  H9  1  0.320200  0.230000  0.136300  1.0
  H  H10  1  0.820200  0.270000  0.363700  1.0
  H  H11  1  0.679800  0.770000  0.863700  1.0
  H  H12  1  0.179800  0.730000  0.636300  1.0
  H  H13  1  0.400600  0.235100  0.063600  1.0
  H  H14  1  0.900600  0.264900  0.436400  1.0
  H  H15  1  0.599400  0.764900  0.936400  1.0
  H  H16  1  0.099400  0.735100  0.563600  1.0
  H  H17  1  0.029800  0.277900  0.123700  1.0
  H  H18  1  0.529800  0.222100  0.376300  1.0
  H  H19  1  0.970200  0.722100  0.876300  1.0
  H  H20  1  0.470200  0.777900  0.623700  1.0
  H  H21  1  0.050200  0.181500  0.979500  1.0
  H  H22  1  0.550200  0.318500  0.520500  1.0
  H  H23  1  0.949800  0.818500  0.020500  1.0
  H  H24  1  0.449800  0.681500  0.479500  1.0
  H  H25  1  0.810800  0.242300  0.041700  1.0
  H  H26  1  0.310800  0.257700  0.458300  1.0
  H  H27  1  0.189200  0.757700  0.958300  1.0
  H  H28  1  0.689200  0.742300  0.541700  1.0
  H  H29  1  0.980900  0.205600  0.910900  1.0
  H  H30  1  0.480900  0.294400  0.589100  1.0
  H  H31  1  0.019100  0.794400  0.089100  1.0
  H  H32  1  0.519100  0.705600  0.410900  1.0
  H  H33  1  0.752500  0.159600  0.975900  1.0
  H  H34  1  0.252500  0.340400  0.524100  1.0
  H  H35  1  0.247500  0.840400  0.024100  1.0
  H  H36  1  0.747500  0.659600  0.475900  1.0
  H  H37  1  0.696900  0.113600  0.896800  1.0
  H  H38  1  0.196900  0.386400  0.603200  1.0
  H  H39  1  0.303100  0.886400  0.103200  1.0
  H  H40  1  0.803100  0.613600  0.396800  1.0
  H  H41  1  0.777100  0.124900  0.827800  1.0
  H  H42  1  0.277100  0.375100  0.672200  1.0
  H  H43  1  0.222900  0.875100  0.172200  1.0
  H  H44  1  0.722900  0.624900  0.327800  1.0
  H  H45  1  0.054800  0.315100  0.839400  1.0
  H  H46  1  0.554800  0.184900  0.660600  1.0
  H  H47  1  0.945200  0.684900  0.160600  1.0
  H  H48  1  0.445200  0.815100  0.339400  1.0
  H  H49  1  0.919600  0.497100  0.812700  1.0
  H  H50  1  0.419600  0.002900  0.687300  1.0
  H  H51  1  0.080400  0.502900  0.187300  1.0
  H  H52  1  0.580400  0.997100  0.312700  1.0
  H  H53  1  0.809600  0.409700  0.772300  1.0
  H  H54  1  0.309600  0.090300  0.727700  1.0
  H  H55  1  0.190400  0.590300  0.227700  1.0
  H  H56  1  0.690400  0.909700  0.272300  1.0
  H  H57  1  0.827300  0.278700  0.768200  1.0
  H  H58  1  0.327300  0.221300  0.731800  1.0
  H  H59  1  0.172700  0.721300  0.231800  1.0
  H  H60  1  0.672700  0.778700  0.268200  1.0
  H  H61  1  0.741400  0.409000  0.090600  1.0
  H  H62  1  0.241400  0.091000  0.409400  1.0
  H  H63  1  0.258600  0.591000  0.909400  1.0
  H  H64  1  0.758600  0.909000  0.590600  1.0
  H  H65  1  0.871800  0.609200  0.103900  1.0
  H  H66  1  0.371800  0.890800  0.396100  1.0
  H  H67  1  0.128200  0.390800  0.896100  1.0
  H  H68  1  0.628200  0.109200  0.603900  1.0
  H  H69  1  0.956100  0.444400  0.176400  1.0
  H  H70  1  0.456100  0.055600  0.323600  1.0
  H  H71  1  0.043900  0.555600  0.823600  1.0
  H  H72  1  0.543900  0.944400  0.676400  1.0
  H  H73  1  0.258500  0.344700  0.912400  1.0
  H  H74  1  0.758500  0.155300  0.587600  1.0
  H  H75  1  0.741500  0.655300  0.087600  1.0
  H  H76  1  0.241500  0.844700  0.412400  1.0
  H  H77  1  0.686900  0.435900  0.018900  1.0
  H  H78  1  0.186900  0.064100  0.481100  1.0
  H  H79  1  0.313100  0.564100  0.981100  1.0
  H  H80  1  0.813100  0.935900  0.518900  1.0
  H  H81  1  0.578700  0.484500  0.973700  1.0
  H  H82  1  0.078700  0.015500  0.526300  1.0
  H  H83  1  0.421300  0.515500  0.026300  1.0
  H  H84  1  0.921300  0.984500  0.473700  1.0
  H  H85  1  0.440000  0.382800  0.017700  1.0
  H  H86  1  0.940000  0.117200  0.482300  1.0
  H  H87  1  0.560000  0.617200  0.982300  1.0
  H  H88  1  0.060000  0.882800  0.517700  1.0
  H  H89  1  0.007700  0.160700  0.713800  1.0
  H  H90  1  0.507700  0.339300  0.786200  1.0
  H  H91  1  0.992300  0.839300  0.286200  1.0
  H  H92  1  0.492300  0.660700  0.213800  1.0
  H  H93  1  0.076000  0.207500  0.745400  1.0
  H  H94  1  0.576000  0.292500  0.754600  1.0
  H  H95  1  0.924000  0.792500  0.254600  1.0
  H  H96  1  0.424000  0.707500  0.245400  1.0
  H  H97  1  0.037200  0.053200  0.823600  1.0
  H  H98  1  0.537200  0.446800  0.676400  1.0
  H  H99  1  0.962800  0.946800  0.176400  1.0
  H  H100  1  0.462800  0.553200  0.323600  1.0
  H  H101  1  0.952100  0.026700  0.798800  1.0
  H  H102  1  0.452100  0.473300  0.701200  1.0
  H  H103  1  0.047900  0.973300  0.201200  1.0
  H  H104  1  0.547900  0.526700  0.298800  1.0
  H  H105  1  0.123900  0.079500  0.703600  1.0
  H  H106  1  0.623900  0.420500  0.796400  1.0
  H  H107  1  0.876100  0.920500  0.296400  1.0
  H  H108  1  0.376100  0.579500  0.203600  1.0
  H  H109  1  0.150800  0.105500  0.760500  1.0
  H  H110  1  0.650800  0.394500  0.739500  1.0
  H  H111  1  0.849200  0.894500  0.239500  1.0
  H  H112  1  0.349200  0.605500  0.260500  1.0
  H  H113  1  0.092500  0.985400  0.753300  1.0
  H  H114  1  0.592500  0.514600  0.746700  1.0
  H  H115  1  0.907500  0.014600  0.246700  1.0
  H  H116  1  0.407500  0.485400  0.253300  1.0
  H  H117  1  0.008800  0.006100  0.722400  1.0
  H  H118  1  0.508800  0.493900  0.777600  1.0
  H  H119  1  0.991200  0.993900  0.277600  1.0
  H  H120  1  0.491200  0.506100  0.222400  1.0
  H  H121  1  0.804600  0.166300  0.138100  1.0
  H  H122  1  0.304600  0.333700  0.361900  1.0
  H  H123  1  0.195400  0.833700  0.861900  1.0
  H  H124  1  0.695400  0.666300  0.638100  1.0
  H  H125  1  0.870000  0.186200  0.179000  1.0
  H  H126  1  0.370000  0.313800  0.321000  1.0
  H  H127  1  0.130000  0.813800  0.821000  1.0
  H  H128  1  0.630000  0.686200  0.679000  1.0
  H  H129  1  0.781600  0.385500  0.230800  1.0
  H  H130  1  0.281600  0.114500  0.269200  1.0
  H  H131  1  0.218400  0.614500  0.769200  1.0
  H  H132  1  0.718400  0.885500  0.730800  1.0
  H  H133  1  0.701400  0.357800  0.201000  1.0
  H  H134  1  0.201400  0.142200  0.299000  1.0
  H  H135  1  0.298600  0.642200  0.799000  1.0
  H  H136  1  0.798600  0.857800  0.701000  1.0
  H  H137  1  0.688500  0.196200  0.185500  1.0
  H  H138  1  0.188500  0.303800  0.314500  1.0
  H  H139  1  0.311500  0.803800  0.814500  1.0
  H  H140  1  0.811500  0.696200  0.685500  1.0
  H  H141  1  0.754600  0.163200  0.221700  1.0
  H  H142  1  0.254600  0.336800  0.278300  1.0
  H  H143  1  0.245400  0.836800  0.778300  1.0
  H  H144  1  0.745400  0.663200  0.721700  1.0
  H  H145  1  0.798000  0.282700  0.260000  1.0
  H  H146  1  0.298000  0.217300  0.240000  1.0
  H  H147  1  0.202000  0.717300  0.740000  1.0
  H  H148  1  0.702000  0.782700  0.760000  1.0
  H  H149  1  0.692400  0.287500  0.256400  1.0
  H  H150  1  0.192400  0.212500  0.243600  1.0
  H  H151  1  0.307600  0.712500  0.743600  1.0
  H  H152  1  0.807600  0.787500  0.756400  1.0
  H  H153  1  0.407900  0.260300  0.871000  1.0
  H  H154  1  0.907900  0.239700  0.629000  1.0
  H  H155  1  0.592100  0.739700  0.129000  1.0
  H  H156  1  0.092100  0.760300  0.371000  1.0
  H  H157  1  0.492600  0.258500  0.898100  1.0
  H  H158  1  0.992600  0.241500  0.601900  1.0
  H  H159  1  0.507400  0.741500  0.101900  1.0
  H  H160  1  0.007400  0.758500  0.398100  1.0
  H  H161  1  0.415300  0.107500  0.968400  1.0
  H  H162  1  0.915300  0.392500  0.531600  1.0
  H  H163  1  0.584700  0.892500  0.031600  1.0
  H  H164  1  0.084700  0.607500  0.468400  1.0
  H  H165  1  0.341200  0.096200  0.932000  1.0
  H  H166  1  0.841200  0.403800  0.568000  1.0
  H  H167  1  0.658800  0.903800  0.068000  1.0
  H  H168  1  0.158800  0.596200  0.432000  1.0
  H  H169  1  0.513600  0.151700  0.845200  1.0
  H  H170  1  0.013600  0.348300  0.654800  1.0
  H  H171  1  0.486400  0.848300  0.154800  1.0
  H  H172  1  0.986400  0.651700  0.345200  1.0
  H  H173  1  0.408600  0.137900  0.838300  1.0
  H  H174  1  0.908600  0.362100  0.661700  1.0
  H  H175  1  0.591400  0.862100  0.161700  1.0
  H  H176  1  0.091400  0.637900  0.338300  1.0
  H  H177  1  0.448100  0.051200  0.882300  1.0
  H  H178  1  0.948100  0.448800  0.617700  1.0
  H  H179  1  0.551900  0.948800  0.117700  1.0
  H  H180  1  0.051900  0.551200  0.382300  1.0
  H  H181  1  0.518100  0.107500  0.914300  1.0
  H  H182  1  0.018100  0.392500  0.585700  1.0
  H  H183  1  0.481900  0.892500  0.085700  1.0
  H  H184  1  0.981900  0.607500  0.414300  1.0
  H  H185  1  0.823300  0.596800  0.927900  1.0
  H  H186  1  0.323300  0.903200  0.572100  1.0
  H  H187  1  0.176700  0.403200  0.072100  1.0
  H  H188  1  0.676700  0.096800  0.427900  1.0
  H  H189  1  0.949300  0.609300  0.980000  1.0
  H  H190  1  0.449300  0.890700  0.520000  1.0
  H  H191  1  0.050700  0.390700  0.020000  1.0
  H  H192  1  0.550700  0.109300  0.480000  1.0
  H  H193  1  0.943600  0.378000  0.977100  1.0
  H  H194  1  0.443600  0.122000  0.522900  1.0
  H  H195  1  0.056400  0.622000  0.022900  1.0
  H  H196  1  0.556400  0.878000  0.477100  1.0
  H  H197  1  0.817700  0.365500  0.925000  1.0
  H  H198  1  0.317700  0.134500  0.575000  1.0
  H  H199  1  0.182300  0.634500  0.075000  1.0
  H  H200  1  0.682300  0.865500  0.425000  1.0
  H  H201  1  0.002400  0.045700  0.137100  1.0
  H  H202  1  0.502400  0.454300  0.362900  1.0
  H  H203  1  0.997600  0.954300  0.862900  1.0
  H  H204  1  0.497600  0.545700  0.637100  1.0
  H  H205  1  0.925700  0.015900  0.060900  1.0
  H  H206  1  0.425700  0.484100  0.439100  1.0
  H  H207  1  0.074300  0.984100  0.939100  1.0
  H  H208  1  0.574300  0.515900  0.560900  1.0
  H  H209  1  0.162100  0.004700  0.986500  1.0
  H  H210  1  0.662100  0.495300  0.513500  1.0
  H  H211  1  0.837900  0.995300  0.013500  1.0
  H  H212  1  0.337900  0.504700  0.486500  1.0
  H  H213  1  0.238800  0.034500  0.062700  1.0
  H  H214  1  0.738800  0.465500  0.437300  1.0
  H  H215  1  0.761200  0.965500  0.937300  1.0
  H  H216  1  0.261200  0.534500  0.562700  1.0
  Pd  Pd217  1  0.963500  0.169000  0.801200  1.0
  Pd  Pd218  1  0.463500  0.331000  0.698800  1.0
  Pd  Pd219  1  0.036500  0.831000  0.198800  1.0
  Pd  Pd220  1  0.536500  0.669000  0.301200  1.0
  Pd  Pd221  1  0.834800  0.306400  0.149600  1.0
  Pd  Pd222  1  0.334800  0.193600  0.350400  1.0
  Pd  Pd223  1  0.165200  0.693600  0.850400  1.0
  Pd  Pd224  1  0.665200  0.806400  0.649600  1.0
  Pd  Pd225  1  0.370400  0.237400  0.955200  1.0
  Pd  Pd226  1  0.870400  0.262600  0.544800  1.0
  Pd  Pd227  1  0.629600  0.762600  0.044800  1.0
  Pd  Pd228  1  0.129600  0.737400  0.455200  1.0
  C  C229  1  0.209900  0.233500  0.015800  1.0
  C  C230  1  0.709900  0.266500  0.484200  1.0
  C  C231  1  0.790100  0.766500  0.984200  1.0
  C  C232  1  0.290100  0.733500  0.515800  1.0
  C  C233  1  0.155700  0.232300  0.057700  1.0
  C  C234  1  0.655700  0.267700  0.442300  1.0
  C  C235  1  0.844300  0.767700  0.942300  1.0
  C  C236  1  0.344300  0.732300  0.557700  1.0
  C  C237  1  0.197400  0.230300  0.103300  1.0
  C  C238  1  0.697400  0.269700  0.396700  1.0
  C  C239  1  0.802600  0.769700  0.896700  1.0
  C  C240  1  0.302600  0.730300  0.603300  1.0
  C  C241  1  0.290400  0.231100  0.106200  1.0
  C  C242  1  0.790400  0.268900  0.393800  1.0
  C  C243  1  0.709600  0.768900  0.893800  1.0
  C  C244  1  0.209600  0.731100  0.606200  1.0
  C  C245  1  0.337800  0.233500  0.062100  1.0
  C  C246  1  0.837800  0.266500  0.437900  1.0
  C  C247  1  0.662200  0.766500  0.937900  1.0
  C  C248  1  0.162200  0.733500  0.562100  1.0
  C  C249  1  0.002200  0.260500  0.092500  1.0
  C  C250  1  0.502200  0.239500  0.407500  1.0
  C  C251  1  0.997800  0.739500  0.907500  1.0
  C  C252  1  0.497800  0.760500  0.592500  1.0
  C  C253  1  0.055100  0.231900  0.051100  1.0
  C  C254  1  0.555100  0.268100  0.448900  1.0
  C  C255  1  0.944900  0.768100  0.948900  1.0
  C  C256  1  0.444900  0.731900  0.551100  1.0
  C  C257  1  0.014900  0.204500  0.006900  1.0
  C  C258  1  0.514900  0.295500  0.493100  1.0
  C  C259  1  0.985100  0.795500  0.993100  1.0
  C  C260  1  0.485100  0.704500  0.506900  1.0
  C  C261  1  0.920800  0.209400  0.000500  1.0
  C  C262  1  0.420800  0.290600  0.499500  1.0
  C  C263  1  0.079200  0.790600  0.999500  1.0
  C  C264  1  0.579200  0.709400  0.500500  1.0
  C  C265  1  0.873400  0.239200  0.044000  1.0
  C  C266  1  0.373400  0.260800  0.456000  1.0
  C  C267  1  0.126600  0.760800  0.956000  1.0
  C  C268  1  0.626600  0.739200  0.544000  1.0
  C  C269  1  0.921500  0.187700  0.908100  1.0
  C  C270  1  0.421500  0.312300  0.591900  1.0
  C  C271  1  0.078500  0.812300  0.091900  1.0
  C  C272  1  0.578500  0.687700  0.408100  1.0
  C  C273  1  0.876600  0.185000  0.951100  1.0
  C  C274  1  0.376600  0.315000  0.548900  1.0
  C  C275  1  0.123400  0.815000  0.048900  1.0
  C  C276  1  0.623400  0.685000  0.451100  1.0
  C  C277  1  0.787700  0.159600  0.947400  1.0
  C  C278  1  0.287700  0.340400  0.552600  1.0
  C  C279  1  0.212300  0.840400  0.052600  1.0
  C  C280  1  0.712300  0.659600  0.447400  1.0
  C  C281  1  0.754800  0.134900  0.900700  1.0
  C  C282  1  0.254800  0.365100  0.599300  1.0
  C  C283  1  0.245200  0.865100  0.099300  1.0
  C  C284  1  0.745200  0.634900  0.400700  1.0
  C  C285  1  0.803200  0.140200  0.859500  1.0
  C  C286  1  0.303200  0.359800  0.640500  1.0
  C  C287  1  0.196800  0.859800  0.140500  1.0
  C  C288  1  0.696800  0.640200  0.359500  1.0
  C  C289  1  0.003600  0.334500  0.826100  1.0
  C  C290  1  0.503600  0.165500  0.673900  1.0
  C  C291  1  0.996400  0.665500  0.173900  1.0
  C  C292  1  0.496400  0.834500  0.326100  1.0
  C  C293  1  0.997500  0.412700  0.829900  1.0
  C  C294  1  0.497500  0.087300  0.670100  1.0
  C  C295  1  0.002500  0.587300  0.170100  1.0
  C  C296  1  0.502500  0.912700  0.329900  1.0
  C  C297  1  0.925400  0.443400  0.810400  1.0
  C  C298  1  0.425400  0.056600  0.689600  1.0
  C  C299  1  0.074600  0.556600  0.189600  1.0
  C  C300  1  0.574600  0.943400  0.310400  1.0
  C  C301  1  0.860300  0.391300  0.786700  1.0
  C  C302  1  0.360300  0.108700  0.713300  1.0
  C  C303  1  0.139700  0.608700  0.213300  1.0
  C  C304  1  0.639700  0.891300  0.286700  1.0
  C  C305  1  0.871300  0.312700  0.784500  1.0
  C  C306  1  0.371300  0.187300  0.715500  1.0
  C  C307  1  0.128700  0.687300  0.215500  1.0
  C  C308  1  0.628700  0.812700  0.284500  1.0
  C  C309  1  0.788500  0.441800  0.104300  1.0
  C  C310  1  0.288500  0.058200  0.395700  1.0
  C  C311  1  0.211500  0.558200  0.895700  1.0
  C  C312  1  0.711500  0.941800  0.604300  1.0
  C  C313  1  0.794600  0.514200  0.091900  1.0
  C  C314  1  0.294600  0.985800  0.408100  1.0
  C  C315  1  0.205400  0.485800  0.908100  1.0
  C  C316  1  0.705400  0.014200  0.591900  1.0
  C  C317  1  0.864900  0.560200  0.112100  1.0
  C  C318  1  0.364900  0.939800  0.387900  1.0
  C  C319  1  0.135100  0.439800  0.887900  1.0
  C  C320  1  0.635100  0.060200  0.612100  1.0
  C  C321  1  0.073800  0.463500  0.855700  1.0
  C  C322  1  0.573800  0.036500  0.644300  1.0
  C  C323  1  0.926200  0.536500  0.144300  1.0
  C  C324  1  0.426200  0.963500  0.355700  1.0
  C  C325  1  0.915000  0.461700  0.155000  1.0
  C  C326  1  0.415000  0.038300  0.345000  1.0
  C  C327  1  0.085000  0.538300  0.845000  1.0
  C  C328  1  0.585000  0.961700  0.655000  1.0
  C  C329  1  0.289500  0.380300  0.936700  1.0
  C  C330  1  0.789500  0.119700  0.563300  1.0
  C  C331  1  0.710500  0.619700  0.063300  1.0
  C  C332  1  0.210500  0.880300  0.436700  1.0
  C  C333  1  0.729100  0.541500  0.058600  1.0
  C  C334  1  0.229100  0.958500  0.441400  1.0
  C  C335  1  0.270900  0.458500  0.941400  1.0
  C  C336  1  0.770900  0.041500  0.558600  1.0
  C  C337  1  0.677600  0.489600  0.023500  1.0
  C  C338  1  0.177600  0.010400  0.476500  1.0
  C  C339  1  0.322400  0.510400  0.976500  1.0
  C  C340  1  0.822400  0.989600  0.523500  1.0
  C  C341  1  0.614500  0.518600  0.996400  1.0
  C  C342  1  0.114500  0.981400  0.503600  1.0
  C  C343  1  0.385500  0.481400  0.003600  1.0
  C  C344  1  0.885500  0.018600  0.496400  1.0
  C  C345  1  0.397500  0.402000  0.998000  1.0
  C  C346  1  0.897500  0.098000  0.502000  1.0
  C  C347  1  0.602500  0.598000  0.002000  1.0
  C  C348  1  0.102500  0.902000  0.498000  1.0
  C  C349  1  0.100000  0.093400  0.737600  1.0
  C  C350  1  0.600000  0.406600  0.762400  1.0
  C  C351  1  0.900000  0.906600  0.262400  1.0
  C  C352  1  0.400000  0.593400  0.237600  1.0
  C  C353  1  0.051000  0.026700  0.749300  1.0
  C  C354  1  0.551000  0.473300  0.750700  1.0
  C  C355  1  0.949000  0.973300  0.250700  1.0
  C  C356  1  0.449000  0.526700  0.249300  1.0
  C  C357  1  0.746400  0.204300  0.202600  1.0
  C  C358  1  0.246400  0.295700  0.297400  1.0
  C  C359  1  0.253600  0.795700  0.797400  1.0
  C  C360  1  0.753600  0.704300  0.702600  1.0
  C  C361  1  0.748000  0.280900  0.236700  1.0
  C  C362  1  0.248000  0.219100  0.263300  1.0
  C  C363  1  0.252000  0.719100  0.763300  1.0
  C  C364  1  0.752000  0.780900  0.736700  1.0
  C  C365  1  0.456200  0.154300  0.862800  1.0
  C  C366  1  0.956200  0.345700  0.637200  1.0
  C  C367  1  0.543800  0.845700  0.137200  1.0
  C  C368  1  0.043800  0.654300  0.362800  1.0
  C  C369  1  0.458000  0.104800  0.899800  1.0
  C  C370  1  0.958000  0.395200  0.600200  1.0
  C  C371  1  0.542000  0.895200  0.100200  1.0
  C  C372  1  0.042000  0.604800  0.399800  1.0
  C  C373  1  0.808000  0.479900  0.921300  1.0
  C  C374  1  0.308000  0.020100  0.578700  1.0
  C  C375  1  0.192000  0.520100  0.078700  1.0
  C  C376  1  0.692000  0.979900  0.421300  1.0
  C  C377  1  0.847400  0.553000  0.937700  1.0
  C  C378  1  0.347400  0.947000  0.562300  1.0
  C  C379  1  0.152600  0.447000  0.062300  1.0
  C  C380  1  0.652600  0.053000  0.437700  1.0
  C  C381  1  0.922900  0.560400  0.969000  1.0
  C  C382  1  0.422900  0.939600  0.531000  1.0
  C  C383  1  0.077100  0.439600  0.031000  1.0
  C  C384  1  0.577100  0.060400  0.469000  1.0
  C  C385  1  0.958900  0.494900  0.983700  1.0
  C  C386  1  0.458900  0.005100  0.516300  1.0
  C  C387  1  0.041100  0.505100  0.016300  1.0
  C  C388  1  0.541100  0.994900  0.483700  1.0
  C  C389  1  0.919500  0.421800  0.967200  1.0
  C  C390  1  0.419500  0.078200  0.532800  1.0
  C  C391  1  0.080500  0.578200  0.032800  1.0
  C  C392  1  0.580500  0.921800  0.467200  1.0
  C  C393  1  0.844100  0.414300  0.936000  1.0
  C  C394  1  0.344100  0.085700  0.564000  1.0
  C  C395  1  0.155900  0.585700  0.064000  1.0
  C  C396  1  0.655900  0.914300  0.436000  1.0
  C  C397  1  0.724800  0.469900  0.889500  1.0
  C  C398  1  0.224800  0.030100  0.610500  1.0
  C  C399  1  0.275200  0.530100  0.110500  1.0
  C  C400  1  0.775200  0.969900  0.389500  1.0
  C  C401  1  0.128200  0.043100  0.107500  1.0
  C  C402  1  0.628200  0.456900  0.392500  1.0
  C  C403  1  0.871800  0.956900  0.892500  1.0
  C  C404  1  0.371800  0.543100  0.607500  1.0
  C  C405  1  0.034400  0.037500  0.106900  1.0
  C  C406  1  0.534400  0.462500  0.393100  1.0
  C  C407  1  0.965600  0.962500  0.893100  1.0
  C  C408  1  0.465600  0.537500  0.606900  1.0
  C  C409  1  0.988500  0.019700  0.061200  1.0
  C  C410  1  0.488500  0.480300  0.438800  1.0
  C  C411  1  0.011500  0.980300  0.938800  1.0
  C  C412  1  0.511500  0.519700  0.561200  1.0
  C  C413  1  0.036300  0.007400  0.016100  1.0
  C  C414  1  0.536300  0.492600  0.483900  1.0
  C  C415  1  0.963700  0.992600  0.983900  1.0
  C  C416  1  0.463700  0.507400  0.516100  1.0
  C  C417  1  0.130100  0.012900  0.016700  1.0
  C  C418  1  0.630100  0.487100  0.483300  1.0
  C  C419  1  0.869900  0.987100  0.983300  1.0
  C  C420  1  0.369900  0.512900  0.516700  1.0
  C  C421  1  0.176000  0.030800  0.062300  1.0
  C  C422  1  0.676000  0.469200  0.437700  1.0
  C  C423  1  0.824000  0.969200  0.937700  1.0
  C  C424  1  0.324000  0.530800  0.562300  1.0
  C  C425  1  0.182000  0.041000  0.154800  1.0
  C  C426  1  0.682000  0.459000  0.345200  1.0
  C  C427  1  0.818000  0.959000  0.845200  1.0
  C  C428  1  0.318000  0.541000  0.654800  1.0
  N  N429  1  0.164000  0.181100  0.877900  1
  N  N430  1  0.664000  0.318900  0.622100  1
  N  N431  1  0.836000  0.818900  0.122100  1
  N  N432  1  0.336000  0.681100  0.377900  1
  N  N433  1  0.622500  0.275200  0.045100  1
  N  N434  1  0.122500  0.224800  0.454900  1
  N  N435  1  0.377500  0.724800  0.954900  1
  N  N436  1  0.877500  0.775200  0.545100  1
  N  N437  1  0.723000  0.051000  0.066000  1
  N  N438  1  0.223000  0.449000  0.434000  1
  N  N439  1  0.277000  0.949000  0.934000  1
  N  N440  1  0.777000  0.551000  0.566000  1
  N  N441  1  0.496000  0.670000  0.716600  1
  N  N442  1  0.996000  0.830000  0.783400  1
  N  N443  1  0.504000  0.330000  0.283400  1
  N  N444  1  0.004000  0.170000  0.216600  1
  N  N445  1  0.298900  0.233800  0.018100  1.0
  N  N446  1  0.798900  0.266200  0.481900  1.0
  N  N447  1  0.701100  0.766200  0.981900  1.0
  N  N448  1  0.201100  0.733800  0.518100  1.0
  N  N449  1  0.911200  0.263900  0.089100  1.0
  N  N450  1  0.411200  0.236100  0.410900  1.0
  N  N451  1  0.088800  0.736100  0.910900  1.0
  N  N452  1  0.588800  0.763900  0.589100  1.0
  N  N453  1  0.887900  0.167100  0.863100  1.0
  N  N454  1  0.387900  0.332900  0.636900  1.0
  N  N455  1  0.112100  0.832900  0.136900  1.0
  N  N456  1  0.612100  0.667100  0.363100  1.0
  N  N457  1  0.941300  0.282700  0.804500  1.0
  N  N458  1  0.441300  0.217300  0.695500  1.0
  N  N459  1  0.058700  0.717300  0.195500  1.0
  N  N460  1  0.558700  0.782700  0.304500  1.0
  N  N461  1  0.848300  0.415100  0.135900  1.0
  N  N462  1  0.348300  0.084900  0.364100  1.0
  N  N463  1  0.151700  0.584900  0.864100  1.0
  N  N464  1  0.651700  0.915100  0.635900  1.0
  N  N465  1  0.349600  0.353200  0.965100  1.0
  N  N466  1  0.849600  0.146800  0.534900  1.0
  N  N467  1  0.650400  0.646800  0.034900  1.0
  N  N468  1  0.150400  0.853200  0.465100  1.0
  N  N469  1  0.041600  0.164100  0.741800  1.0
  N  N470  1  0.541600  0.335900  0.758200  1.0
  N  N471  1  0.958400  0.835900  0.258200  1.0
  N  N472  1  0.458400  0.664100  0.241800  1.0
  N  N473  1  0.001300  0.056400  0.797300  1.0
  N  N474  1  0.501300  0.443600  0.702700  1.0
  N  N475  1  0.998700  0.943600  0.202700  1.0
  N  N476  1  0.498700  0.556400  0.297300  1.0
  N  N477  1  0.818300  0.201400  0.166300  1.0
  N  N478  1  0.318300  0.298600  0.333700  1.0
  N  N479  1  0.181700  0.798600  0.833700  1.0
  N  N480  1  0.681700  0.701400  0.666300  1.0
  N  N481  1  0.756200  0.343800  0.210600  1.0
  N  N482  1  0.256200  0.156200  0.289400  1.0
  N  N483  1  0.243800  0.656200  0.789400  1.0
  N  N484  1  0.743800  0.843800  0.710600  1.0
  N  N485  1  0.439300  0.234000  0.890800  1.0
  N  N486  1  0.939300  0.266000  0.609200  1.0
  N  N487  1  0.560700  0.766000  0.109200  1.0
  N  N488  1  0.060700  0.734000  0.390800  1.0
  N  N489  1  0.393200  0.122300  0.940700  1.0
  N  N490  1  0.893200  0.377700  0.559300  1.0
  N  N491  1  0.606800  0.877700  0.059300  1.0
  N  N492  1  0.106800  0.622300  0.440700  1.0
  O  O493  1  0.217600  0.185100  0.844000  1
  O  O494  1  0.717600  0.314900  0.656000  1
  O  O495  1  0.782400  0.814900  0.156000  1
  O  O496  1  0.282400  0.685100  0.344000  1
  O  O497  1  0.142400  0.125400  0.890300  1
  O  O498  1  0.642400  0.374600  0.609700  1
  O  O499  1  0.857600  0.874600  0.109700  1
  O  O500  1  0.357600  0.625400  0.390300  1
  O  O501  1  0.132000  0.247700  0.902200  1
  O  O502  1  0.632000  0.252300  0.597800  1
  O  O503  1  0.868000  0.752300  0.097800  1
  O  O504  1  0.368000  0.747700  0.402200  1
  O  O505  1  0.548600  0.252400  0.029200  1
  O  O506  1  0.048600  0.247600  0.470800  1
  O  O507  1  0.451400  0.747600  0.970800  1
  O  O508  1  0.951400  0.752400  0.529200  1
  O  O509  1  0.673700  0.296800  0.020900  1
  O  O510  1  0.173700  0.203200  0.479100  1
  O  O511  1  0.326300  0.703200  0.979100  1
  O  O512  1  0.826300  0.796800  0.520900  1
  O  O513  1  0.626000  0.302000  0.095100  1
  O  O514  1  0.126000  0.198000  0.404900  1
  O  O515  1  0.374000  0.698000  0.904900  1
  O  O516  1  0.874000  0.802000  0.595100  1
  O  O517  1  0.719000  0.011300  0.100000  1
  O  O518  1  0.219000  0.488700  0.400000  1
  O  O519  1  0.281000  0.988700  0.900000  1
  O  O520  1  0.781000  0.511300  0.600000  1
  O  O521  1  0.738000  0.116000  0.077600  1
  O  O522  1  0.238000  0.384000  0.422400  1
  O  O523  1  0.262000  0.884000  0.922400  1
  O  O524  1  0.762000  0.616000  0.577600  1
  O  O525  1  0.679000  0.021000  0.023400  1
  O  O526  1  0.179000  0.479000  0.476600  1
  O  O527  1  0.321000  0.979000  0.976600  1
  O  O528  1  0.821000  0.521000  0.523400  1
  O  O529  1  0.496000  0.737000  0.709900  1
  O  O530  1  0.996000  0.763000  0.790100  1
  O  O531  1  0.504000  0.263000  0.290100  1
  O  O532  1  0.004000  0.237000  0.209900  1
  O  O533  1  0.486000  0.620000  0.682800  1
  O  O534  1  0.986000  0.880000  0.817200  1
  O  O535  1  0.514000  0.380000  0.317200  1
  O  O536  1  0.014000  0.120000  0.182800  1
  O  O537  1  0.557000  0.662000  0.752200  1
  O  O538  1  0.057000  0.838000  0.747800  1
  O  O539  1  0.443000  0.338000  0.247800  1
  O  O540  1  0.943000  0.162000  0.252200  1
  O  O541  1  0.887000  0.455000  0.403000  1
  O  O542  1  0.387000  0.045000  0.097000  1
  O  O543  1  0.113000  0.545000  0.597000  1
  O  O544  1  0.613000  0.955000  0.903000  1
  O  O545  1  0.362000  0.345000  0.824400  1
  O  O546  1  0.862000  0.155000  0.675600  1
  O  O547  1  0.638000  0.655000  0.175600  1
  O  O548  1  0.138000  0.845000  0.324400  1
  O  O549  1  0.007000  0.342000  0.330000  1
  O  O550  1  0.507000  0.158000  0.170000  1
  O  O551  1  0.993000  0.658000  0.670000  1
  O  O552  1  0.493000  0.842000  0.830000  1
  O  O553  1  0.369000  0.041000  0.222000  1
  O  O554  1  0.869000  0.459000  0.278000  1
  O  O555  1  0.631000  0.959000  0.778000  1
  O  O556  1  0.131000  0.541000  0.722000  1
  O  O557  1  0.609800  0.299900  0.921800  1
  O  O558  1  0.109800  0.200100  0.578200  1
  O  O559  1  0.390200  0.700100  0.078200  1
  O  O560  1  0.890200  0.799900  0.421800  1
  O  O561  1  0.019000  0.928000  0.370500  1
  O  O562  1  0.519000  0.572000  0.129500  1
  O  O563  1  0.981000  0.072000  0.629500  1
  O  O564  1  0.481000  0.428000  0.870500  1
  O  O565  1  0.982100  0.066000  0.377000  1
  O  O566  1  0.482100  0.434000  0.123000  1
  O  O567  1  0.017900  0.934000  0.623000  1
  O  O568  1  0.517900  0.566000  0.877000  1
  O  O569  1  0.757800  0.583800  0.791400  1
  O  O570  1  0.257800  0.916200  0.708600  1
  O  O571  1  0.242200  0.416200  0.208600  1
  O  O572  1  0.742200  0.083800  0.291400  1
  O  O573  1  0.445000  0.930000  0.785700  1
  O  O574  1  0.945000  0.570000  0.714300  1
  O  O575  1  0.555000  0.070000  0.214300  1
  O  O576  1  0.055000  0.430000  0.285700  1
  O  O577  1  0.426600  0.850100  0.708000  1
  O  O578  1  0.926600  0.649900  0.792000  1
  O  O579  1  0.573400  0.149900  0.292000  1
  O  O580  1  0.073400  0.350100  0.208000  1
  O  O581  1  0.469000  0.062000  0.037000  1
  O  O582  1  0.969000  0.438000  0.463000  1
  O  O583  1  0.531000  0.938000  0.963000  1
  O  O584  1  0.031000  0.562000  0.537000  1
  O  O585  1  0.168300  0.341300  0.749100  1
  O  O586  1  0.668300  0.158700  0.750900  1
  O  O587  1  0.831700  0.658700  0.250900  1
  O  O588  1  0.331700  0.841300  0.249100  1
  O  O589  1  0.745000  0.504400  0.692200  1
  O  O590  1  0.245000  0.995600  0.807800  1
  O  O591  1  0.255000  0.495600  0.307800  1
  O  O592  1  0.755000  0.004400  0.192200  1
  O  O593  1  0.681100  0.409800  0.881900  1.0
  O  O594  1  0.181100  0.090200  0.618100  1.0
  O  O595  1  0.318900  0.590200  0.118100  1.0
  O  O596  1  0.818900  0.909800  0.381900  1.0
  O  O597  1  0.698200  0.528900  0.874500  1.0
  O  O598  1  0.198200  0.971100  0.625500  1.0
  O  O599  1  0.301800  0.471100  0.125500  1.0
  O  O600  1  0.801800  0.028900  0.374500  1.0
  O  O601  1  0.141000  0.061700  0.195200  1.0
  O  O602  1  0.641000  0.438300  0.304800  1.0
  O  O603  1  0.859000  0.938300  0.804800  1.0
  O  O604  1  0.359000  0.561700  0.695200  1.0
  O  O605  1  0.260700  0.064000  0.152800  1.0
  O  O606  1  0.760700  0.436000  0.347200  1.0
  O  O607  1  0.739300  0.936000  0.847200  1.0
  O  O608  1  0.239300  0.564000  0.652800  1.0
