# generated using pymatgen
data_LaH57C51N12(Cl2O9)3
_symmetry_space_group_name_H-M   'P 1'
_cell_length_a   13.85570000
_cell_length_b   13.85570000
_cell_length_c   40.12900000
_cell_angle_alpha   90.00000000
_cell_angle_beta   90.00000000
_cell_angle_gamma   120.00000000
_symmetry_Int_Tables_number   1
_chemical_formula_structural   LaH57C51N12(Cl2O9)3
_chemical_formula_sum   'La4 H228 C204 N48 Cl24 O108'
_cell_volume   6671.84444628
_cell_formula_units_Z   4
loop_
 _symmetry_equiv_pos_site_id
 _symmetry_equiv_pos_as_xyz
  1  'x, y, z'
loop_
 _atom_site_type_symbol
 _atom_site_label
 _atom_site_symmetry_multiplicity
 _atom_site_fract_x
 _atom_site_fract_y
 _atom_site_fract_z
 _atom_site_occupancy
  La  La1  1  0.000000  0.000000  0.601010  1.0
  La  La2  1  0.000000  0.000000  0.101010  1.0
  La  La3  1  0.000000  0.000000  0.398990  1.0
  La  La4  1  0.000000  0.000000  0.898990  1.0
  H  H5  1  0.822100  0.628300  0.722300  1.0
  H  H6  1  0.806200  0.177900  0.722300  1.0
  H  H7  1  0.371700  0.193800  0.722300  1.0
  H  H8  1  0.193800  0.822100  0.222300  1.0
  H  H9  1  0.628300  0.806200  0.222300  1.0
  H  H10  1  0.177900  0.371700  0.222300  1.0
  H  H11  1  0.177900  0.371700  0.277700  1.0
  H  H12  1  0.193800  0.822100  0.277700  1.0
  H  H13  1  0.628300  0.806200  0.277700  1.0
  H  H14  1  0.806200  0.177900  0.777700  1.0
  H  H15  1  0.371700  0.193800  0.777700  1.0
  H  H16  1  0.822100  0.628300  0.777700  1.0
  H  H17  1  0.823200  0.922400  0.721200  1.0
  H  H18  1  0.099200  0.176800  0.721200  1.0
  H  H19  1  0.077600  0.900800  0.721200  1.0
  H  H20  1  0.900800  0.823200  0.221200  1.0
  H  H21  1  0.922400  0.099200  0.221200  1.0
  H  H22  1  0.176800  0.077600  0.221200  1.0
  H  H23  1  0.176800  0.077600  0.278800  1.0
  H  H24  1  0.900800  0.823200  0.278800  1.0
  H  H25  1  0.922400  0.099200  0.278800  1.0
  H  H26  1  0.099200  0.176800  0.778800  1.0
  H  H27  1  0.077600  0.900800  0.778800  1.0
  H  H28  1  0.823200  0.922400  0.778800  1.0
  H  H29  1  0.906300  0.814900  0.670500  1.0
  H  H30  1  0.908600  0.093700  0.670500  1.0
  H  H31  1  0.185100  0.091400  0.670500  1.0
  H  H32  1  0.091400  0.906300  0.170500  1.0
  H  H33  1  0.814900  0.908600  0.170500  1.0
  H  H34  1  0.093700  0.185100  0.170500  1.0
  H  H35  1  0.093700  0.185100  0.329500  1.0
  H  H36  1  0.091400  0.906300  0.329500  1.0
  H  H37  1  0.814900  0.908600  0.329500  1.0
  H  H38  1  0.908600  0.093700  0.829500  1.0
  H  H39  1  0.185100  0.091400  0.829500  1.0
  H  H40  1  0.906300  0.814900  0.829500  1.0
  H  H41  1  0.799200  0.696400  0.670000  1.0
  H  H42  1  0.897200  0.200800  0.670000  1.0
  H  H43  1  0.303600  0.102800  0.670000  1.0
  H  H44  1  0.102800  0.799200  0.170000  1.0
  H  H45  1  0.696400  0.897200  0.170000  1.0
  H  H46  1  0.200800  0.303600  0.170000  1.0
  H  H47  1  0.200800  0.303600  0.330000  1.0
  H  H48  1  0.102800  0.799200  0.330000  1.0
  H  H49  1  0.696400  0.897200  0.330000  1.0
  H  H50  1  0.897200  0.200800  0.830000  1.0
  H  H51  1  0.303600  0.102800  0.830000  1.0
  H  H52  1  0.799200  0.696400  0.830000  1.0
  H  H53  1  0.603200  0.725200  0.677800  1.0
  H  H54  1  0.122000  0.396800  0.677800  1.0
  H  H55  1  0.274800  0.878000  0.677800  1.0
  H  H56  1  0.878000  0.603200  0.177800  1.0
  H  H57  1  0.725200  0.122000  0.177800  1.0
  H  H58  1  0.396800  0.274800  0.177800  1.0
  H  H59  1  0.396800  0.274800  0.322200  1.0
  H  H60  1  0.878000  0.603200  0.322200  1.0
  H  H61  1  0.725200  0.122000  0.322200  1.0
  H  H62  1  0.122000  0.396800  0.822200  1.0
  H  H63  1  0.274800  0.878000  0.822200  1.0
  H  H64  1  0.603200  0.725200  0.822200  1.0
  H  H65  1  0.572600  0.867000  0.649000  1.0
  H  H66  1  0.294400  0.427400  0.649000  1.0
  H  H67  1  0.133000  0.705600  0.649000  1.0
  H  H68  1  0.705600  0.572600  0.149000  1.0
  H  H69  1  0.867000  0.294400  0.149000  1.0
  H  H70  1  0.427400  0.133000  0.149000  1.0
  H  H71  1  0.427400  0.133000  0.351000  1.0
  H  H72  1  0.705600  0.572600  0.351000  1.0
  H  H73  1  0.867000  0.294400  0.351000  1.0
  H  H74  1  0.294400  0.427400  0.851000  1.0
  H  H75  1  0.133000  0.705600  0.851000  1.0
  H  H76  1  0.572600  0.867000  0.851000  1.0
  H  H77  1  0.618700  0.031200  0.617700  1.0
  H  H78  1  0.412500  0.381300  0.617700  1.0
  H  H79  1  0.968800  0.587500  0.617700  1.0
  H  H80  1  0.587500  0.618700  0.117700  1.0
  H  H81  1  0.031200  0.412500  0.117700  1.0
  H  H82  1  0.381300  0.968800  0.117700  1.0
  H  H83  1  0.381300  0.968800  0.382300  1.0
  H  H84  1  0.587500  0.618700  0.382300  1.0
  H  H85  1  0.031200  0.412500  0.382300  1.0
  H  H86  1  0.412500  0.381300  0.882300  1.0
  H  H87  1  0.968800  0.587500  0.882300  1.0
  H  H88  1  0.618700  0.031200  0.882300  1.0
  H  H89  1  0.672200  0.190100  0.584700  1.0
  H  H90  1  0.517900  0.327800  0.584700  1.0
  H  H91  1  0.809900  0.482100  0.584700  1.0
  H  H92  1  0.482100  0.672200  0.084700  1.0
  H  H93  1  0.190100  0.517900  0.084700  1.0
  H  H94  1  0.327800  0.809900  0.084700  1.0
  H  H95  1  0.327800  0.809900  0.415300  1.0
  H  H96  1  0.482100  0.672200  0.415300  1.0
  H  H97  1  0.190100  0.517900  0.415300  1.0
  H  H98  1  0.517900  0.327800  0.915300  1.0
  H  H99  1  0.809900  0.482100  0.915300  1.0
  H  H100  1  0.672200  0.190100  0.915300  1.0
  H  H101  1  0.844600  0.279400  0.561700  1.0
  H  H102  1  0.434800  0.155400  0.561700  1.0
  H  H103  1  0.720600  0.565200  0.561700  1.0
  H  H104  1  0.565200  0.844600  0.061700  1.0
  H  H105  1  0.279400  0.434800  0.061700  1.0
  H  H106  1  0.155400  0.720600  0.061700  1.0
  H  H107  1  0.155400  0.720600  0.438300  1.0
  H  H108  1  0.565200  0.844600  0.438300  1.0
  H  H109  1  0.279400  0.434800  0.438300  1.0
  H  H110  1  0.434800  0.155400  0.938300  1.0
  H  H111  1  0.720600  0.565200  0.938300  1.0
  H  H112  1  0.844600  0.279400  0.938300  1.0
  H  H113  1  0.131900  0.479800  0.588500  1.0
  H  H114  1  0.347900  0.868100  0.588500  1.0
  H  H115  1  0.520200  0.652100  0.588500  1.0
  H  H116  1  0.652100  0.131900  0.088500  1.0
  H  H117  1  0.479800  0.347900  0.088500  1.0
  H  H118  1  0.868100  0.520200  0.088500  1.0
  H  H119  1  0.868100  0.520200  0.411500  1.0
  H  H120  1  0.652100  0.131900  0.411500  1.0
  H  H121  1  0.479800  0.347900  0.411500  1.0
  H  H122  1  0.347900  0.868100  0.911500  1.0
  H  H123  1  0.520200  0.652100  0.911500  1.0
  H  H124  1  0.131900  0.479800  0.911500  1.0
  H  H125  1  0.003200  0.398000  0.590900  1.0
  H  H126  1  0.394800  0.996800  0.590900  1.0
  H  H127  1  0.602000  0.605200  0.590900  1.0
  H  H128  1  0.605200  0.003200  0.090900  1.0
  H  H129  1  0.398000  0.394800  0.090900  1.0
  H  H130  1  0.996800  0.602000  0.090900  1.0
  H  H131  1  0.996800  0.602000  0.409100  1.0
  H  H132  1  0.605200  0.003200  0.409100  1.0
  H  H133  1  0.398000  0.394800  0.409100  1.0
  H  H134  1  0.394800  0.996800  0.909100  1.0
  H  H135  1  0.602000  0.605200  0.909100  1.0
  H  H136  1  0.003200  0.398000  0.909100  1.0
  H  H137  1  0.113700  0.530300  0.535100  1.0
  H  H138  1  0.416600  0.886300  0.535100  1.0
  H  H139  1  0.469700  0.583400  0.535100  1.0
  H  H140  1  0.583400  0.113700  0.035100  1.0
  H  H141  1  0.530300  0.416600  0.035100  1.0
  H  H142  1  0.886300  0.469700  0.035100  1.0
  H  H143  1  0.886300  0.469700  0.464900  1.0
  H  H144  1  0.583400  0.113700  0.464900  1.0
  H  H145  1  0.530300  0.416600  0.464900  1.0
  H  H146  1  0.416600  0.886300  0.964900  1.0
  H  H147  1  0.469700  0.583400  0.964900  1.0
  H  H148  1  0.113700  0.530300  0.964900  1.0
  H  H149  1  0.031100  0.545600  0.558200  1.0
  H  H150  1  0.514500  0.968900  0.558200  1.0
  H  H151  1  0.454400  0.485500  0.558200  1.0
  H  H152  1  0.485500  0.031100  0.058200  1.0
  H  H153  1  0.545600  0.514500  0.058200  1.0
  H  H154  1  0.968900  0.454400  0.058200  1.0
  H  H155  1  0.968900  0.454400  0.441800  1.0
  H  H156  1  0.485500  0.031100  0.441800  1.0
  H  H157  1  0.545600  0.514500  0.441800  1.0
  H  H158  1  0.514500  0.968900  0.941800  1.0
  H  H159  1  0.454400  0.485500  0.941800  1.0
  H  H160  1  0.031100  0.545600  0.941800  1.0
  H  H161  1  0.986300  0.441100  0.534800  1.0
  H  H162  1  0.454800  0.013700  0.534800  1.0
  H  H163  1  0.558900  0.545200  0.534800  1.0
  H  H164  1  0.545200  0.986300  0.034800  1.0
  H  H165  1  0.441100  0.454800  0.034800  1.0
  H  H166  1  0.013700  0.558900  0.034800  1.0
  H  H167  1  0.013700  0.558900  0.465200  1.0
  H  H168  1  0.545200  0.986300  0.465200  1.0
  H  H169  1  0.441100  0.454800  0.465200  1.0
  H  H170  1  0.454800  0.013700  0.965200  1.0
  H  H171  1  0.558900  0.545200  0.965200  1.0
  H  H172  1  0.986300  0.441100  0.965200  1.0
  H  H173  1  0.223300  0.330600  0.557400  1.0
  H  H174  1  0.107300  0.776700  0.557400  1.0
  H  H175  1  0.669400  0.892700  0.557400  1.0
  H  H176  1  0.892700  0.223300  0.057400  1.0
  H  H177  1  0.330600  0.107300  0.057400  1.0
  H  H178  1  0.776700  0.669400  0.057400  1.0
  H  H179  1  0.776700  0.669400  0.442600  1.0
  H  H180  1  0.892700  0.223300  0.442600  1.0
  H  H181  1  0.330600  0.107300  0.442600  1.0
  H  H182  1  0.107300  0.776700  0.942600  1.0
  H  H183  1  0.669400  0.892700  0.942600  1.0
  H  H184  1  0.223300  0.330600  0.942600  1.0
  H  H185  1  0.239600  0.449200  0.550600  1.0
  H  H186  1  0.209600  0.760400  0.550600  1.0
  H  H187  1  0.550800  0.790400  0.550600  1.0
  H  H188  1  0.790400  0.239600  0.050600  1.0
  H  H189  1  0.449200  0.209600  0.050600  1.0
  H  H190  1  0.760400  0.550800  0.050600  1.0
  H  H191  1  0.760400  0.550800  0.449400  1.0
  H  H192  1  0.790400  0.239600  0.449400  1.0
  H  H193  1  0.449200  0.209600  0.449400  1.0
  H  H194  1  0.209600  0.760400  0.949400  1.0
  H  H195  1  0.550800  0.790400  0.949400  1.0
  H  H196  1  0.239600  0.449200  0.949400  1.0
  H  H197  1  0.134100  0.268500  0.506800  1.0
  H  H198  1  0.134400  0.865900  0.506800  1.0
  H  H199  1  0.731500  0.865600  0.506800  1.0
  H  H200  1  0.865600  0.134100  0.006800  1.0
  H  H201  1  0.268500  0.134400  0.006800  1.0
  H  H202  1  0.865900  0.731500  0.006800  1.0
  H  H203  1  0.865900  0.731500  0.493200  1.0
  H  H204  1  0.865600  0.134100  0.493200  1.0
  H  H205  1  0.268500  0.134400  0.493200  1.0
  H  H206  1  0.134400  0.865900  0.993200  1.0
  H  H207  1  0.731500  0.865600  0.993200  1.0
  H  H208  1  0.134100  0.268500  0.993200  1.0
  H  H209  1  0.252300  0.373100  0.501200  1.0
  H  H210  1  0.120800  0.747700  0.501200  1.0
  H  H211  1  0.626900  0.879200  0.501200  1.0
  H  H212  1  0.879200  0.252300  0.001200  1.0
  H  H213  1  0.373100  0.120800  0.001200  1.0
  H  H214  1  0.747700  0.626900  0.001200  1.0
  H  H215  1  0.747700  0.626900  0.498800  1.0
  H  H216  1  0.879200  0.252300  0.498800  1.0
  H  H217  1  0.373100  0.120800  0.498800  1.0
  H  H218  1  0.120800  0.747700  0.998800  1.0
  H  H219  1  0.626900  0.879200  0.998800  1.0
  H  H220  1  0.252300  0.373100  0.998800  1.0
  H  H221  1  0.145800  0.385400  0.500100  1.0
  H  H222  1  0.239600  0.854200  0.500100  1.0
  H  H223  1  0.614600  0.760400  0.500100  1.0
  H  H224  1  0.760400  0.145800  0.000100  1.0
  H  H225  1  0.385400  0.239600  0.000100  1.0
  H  H226  1  0.854200  0.614600  0.000100  1.0
  H  H227  1  0.854200  0.614600  0.499900  1.0
  H  H228  1  0.760400  0.145800  0.499900  1.0
  H  H229  1  0.385400  0.239600  0.499900  1.0
  H  H230  1  0.239600  0.854200  0.999900  1.0
  H  H231  1  0.614600  0.760400  0.999900  1.0
  H  H232  1  0.145800  0.385400  0.999900  1.0
  C  C233  1  0.822300  0.687100  0.733600  1.0
  C  C234  1  0.864800  0.177700  0.733600  1.0
  C  C235  1  0.312900  0.135200  0.733600  1.0
  C  C236  1  0.135200  0.822300  0.233600  1.0
  C  C237  1  0.687100  0.864800  0.233600  1.0
  C  C238  1  0.177700  0.312900  0.233600  1.0
  C  C239  1  0.177700  0.312900  0.266400  1.0
  C  C240  1  0.135200  0.822300  0.266400  1.0
  C  C241  1  0.687100  0.864800  0.266400  1.0
  C  C242  1  0.864800  0.177700  0.766400  1.0
  C  C243  1  0.312900  0.135200  0.766400  1.0
  C  C244  1  0.822300  0.687100  0.766400  1.0
  C  C245  1  0.822500  0.775200  0.714600  1.0
  C  C246  1  0.952700  0.177500  0.714600  1.0
  C  C247  1  0.224800  0.047300  0.714600  1.0
  C  C248  1  0.047300  0.822500  0.214600  1.0
  C  C249  1  0.775200  0.952700  0.214600  1.0
  C  C250  1  0.177500  0.224800  0.214600  1.0
  C  C251  1  0.177500  0.224800  0.285400  1.0
  C  C252  1  0.047300  0.822500  0.285400  1.0
  C  C253  1  0.775200  0.952700  0.285400  1.0
  C  C254  1  0.952700  0.177500  0.785400  1.0
  C  C255  1  0.224800  0.047300  0.785400  1.0
  C  C256  1  0.822500  0.775200  0.785400  1.0
  C  C257  1  0.822900  0.864000  0.732700  1.0
  C  C258  1  0.041100  0.177100  0.732700  1.0
  C  C259  1  0.136000  0.958900  0.732700  1.0
  C  C260  1  0.958900  0.822900  0.232700  1.0
  C  C261  1  0.864000  0.041100  0.232700  1.0
  C  C262  1  0.177100  0.136000  0.232700  1.0
  C  C263  1  0.177100  0.136000  0.267300  1.0
  C  C264  1  0.958900  0.822900  0.267300  1.0
  C  C265  1  0.864000  0.041100  0.267300  1.0
  C  C266  1  0.041100  0.177100  0.767300  1.0
  C  C267  1  0.136000  0.958900  0.767300  1.0
  C  C268  1  0.822900  0.864000  0.767300  1.0
  C  C269  1  0.828900  0.772800  0.677300  1.0
  C  C270  1  0.943900  0.171100  0.677300  1.0
  C  C271  1  0.227200  0.056100  0.677300  1.0
  C  C272  1  0.056100  0.828900  0.177300  1.0
  C  C273  1  0.772800  0.943900  0.177300  1.0
  C  C274  1  0.171100  0.227200  0.177300  1.0
  C  C275  1  0.171100  0.227200  0.322700  1.0
  C  C276  1  0.056100  0.828900  0.322700  1.0
  C  C277  1  0.772800  0.943900  0.322700  1.0
  C  C278  1  0.943900  0.171100  0.822700  1.0
  C  C279  1  0.227200  0.056100  0.822700  1.0
  C  C280  1  0.828900  0.772800  0.822700  1.0
  C  C281  1  0.655800  0.787100  0.666000  1.0
  C  C282  1  0.131300  0.344200  0.666000  1.0
  C  C283  1  0.212900  0.868700  0.666000  1.0
  C  C284  1  0.868700  0.655800  0.166000  1.0
  C  C285  1  0.787100  0.131300  0.166000  1.0
  C  C286  1  0.344200  0.212900  0.166000  1.0
  C  C287  1  0.344200  0.212900  0.334000  1.0
  C  C288  1  0.868700  0.655800  0.334000  1.0
  C  C289  1  0.787100  0.131300  0.334000  1.0
  C  C290  1  0.131300  0.344200  0.834000  1.0
  C  C291  1  0.212900  0.868700  0.834000  1.0
  C  C292  1  0.655800  0.787100  0.834000  1.0
  C  C293  1  0.638400  0.864400  0.649700  1.0
  C  C294  1  0.226000  0.361600  0.649700  1.0
  C  C295  1  0.135600  0.774000  0.649700  1.0
  C  C296  1  0.774000  0.638400  0.149700  1.0
  C  C297  1  0.864400  0.226000  0.149700  1.0
  C  C298  1  0.361600  0.135600  0.149700  1.0
  C  C299  1  0.361600  0.135600  0.350300  1.0
  C  C300  1  0.774000  0.638400  0.350300  1.0
  C  C301  1  0.864400  0.226000  0.350300  1.0
  C  C302  1  0.226000  0.361600  0.850300  1.0
  C  C303  1  0.135600  0.774000  0.850300  1.0
  C  C304  1  0.638400  0.864400  0.850300  1.0
  C  C305  1  0.736500  0.935900  0.635000  1.0
  C  C306  1  0.199400  0.263500  0.635000  1.0
  C  C307  1  0.064100  0.800600  0.635000  1.0
  C  C308  1  0.800600  0.736500  0.135000  1.0
  C  C309  1  0.935900  0.199400  0.135000  1.0
  C  C310  1  0.263500  0.064100  0.135000  1.0
  C  C311  1  0.263500  0.064100  0.365000  1.0
  C  C312  1  0.800600  0.736500  0.365000  1.0
  C  C313  1  0.935900  0.199400  0.365000  1.0
  C  C314  1  0.199400  0.263500  0.865000  1.0
  C  C315  1  0.064100  0.800600  0.865000  1.0
  C  C316  1  0.736500  0.935900  0.865000  1.0
  C  C317  1  0.768500  0.037200  0.614800  1.0
  C  C318  1  0.268700  0.231500  0.614800  1.0
  C  C319  1  0.962800  0.731300  0.614800  1.0
  C  C320  1  0.731300  0.768500  0.114800  1.0
  C  C321  1  0.037200  0.268700  0.114800  1.0
  C  C322  1  0.231500  0.962800  0.114800  1.0
  C  C323  1  0.231500  0.962800  0.385200  1.0
  C  C324  1  0.731300  0.768500  0.385200  1.0
  C  C325  1  0.037200  0.268700  0.385200  1.0
  C  C326  1  0.268700  0.231500  0.885200  1.0
  C  C327  1  0.962800  0.731300  0.885200  1.0
  C  C328  1  0.768500  0.037200  0.885200  1.0
  C  C329  1  0.690100  0.070500  0.608800  1.0
  C  C330  1  0.380400  0.309900  0.608800  1.0
  C  C331  1  0.929500  0.619600  0.608800  1.0
  C  C332  1  0.619600  0.690100  0.108800  1.0
  C  C333  1  0.070500  0.380400  0.108800  1.0
  C  C334  1  0.309900  0.929500  0.108800  1.0
  C  C335  1  0.309900  0.929500  0.391200  1.0
  C  C336  1  0.619600  0.690100  0.391200  1.0
  C  C337  1  0.070500  0.380400  0.391200  1.0
  C  C338  1  0.380400  0.309900  0.891200  1.0
  C  C339  1  0.929500  0.619600  0.891200  1.0
  C  C340  1  0.690100  0.070500  0.891200  1.0
  C  C341  1  0.722100  0.165100  0.588800  1.0
  C  C342  1  0.443000  0.277900  0.588800  1.0
  C  C343  1  0.834900  0.557000  0.588800  1.0
  C  C344  1  0.557000  0.722100  0.088800  1.0
  C  C345  1  0.165100  0.443000  0.088800  1.0
  C  C346  1  0.277900  0.834900  0.088800  1.0
  C  C347  1  0.277900  0.834900  0.411200  1.0
  C  C348  1  0.557000  0.722100  0.411200  1.0
  C  C349  1  0.165100  0.443000  0.411200  1.0
  C  C350  1  0.443000  0.277900  0.911200  1.0
  C  C351  1  0.834900  0.557000  0.911200  1.0
  C  C352  1  0.722100  0.165100  0.911200  1.0
  C  C353  1  0.824500  0.219000  0.575700  1.0
  C  C354  1  0.394500  0.175500  0.575700  1.0
  C  C355  1  0.781000  0.605500  0.575700  1.0
  C  C356  1  0.605500  0.824500  0.075700  1.0
  C  C357  1  0.219000  0.394500  0.075700  1.0
  C  C358  1  0.175500  0.781000  0.075700  1.0
  C  C359  1  0.175500  0.781000  0.424300  1.0
  C  C360  1  0.605500  0.824500  0.424300  1.0
  C  C361  1  0.219000  0.394500  0.424300  1.0
  C  C362  1  0.394500  0.175500  0.924300  1.0
  C  C363  1  0.781000  0.605500  0.924300  1.0
  C  C364  1  0.824500  0.219000  0.924300  1.0
  C  C365  1  0.902000  0.184600  0.583100  1.0
  C  C366  1  0.282600  0.098000  0.583100  1.0
  C  C367  1  0.815400  0.717400  0.583100  1.0
  C  C368  1  0.717400  0.902000  0.083100  1.0
  C  C369  1  0.184600  0.282600  0.083100  1.0
  C  C370  1  0.098000  0.815400  0.083100  1.0
  C  C371  1  0.098000  0.815400  0.416900  1.0
  C  C372  1  0.717400  0.902000  0.416900  1.0
  C  C373  1  0.184600  0.282600  0.416900  1.0
  C  C374  1  0.282600  0.098000  0.916900  1.0
  C  C375  1  0.815400  0.717400  0.916900  1.0
  C  C376  1  0.902000  0.184600  0.916900  1.0
  C  C377  1  0.020100  0.233300  0.569600  1.0
  C  C378  1  0.213200  0.979900  0.569600  1.0
  C  C379  1  0.766700  0.786800  0.569600  1.0
  C  C380  1  0.786800  0.020100  0.069600  1.0
  C  C381  1  0.233300  0.213200  0.069600  1.0
  C  C382  1  0.979900  0.766700  0.069600  1.0
  C  C383  1  0.979900  0.766700  0.430400  1.0
  C  C384  1  0.786800  0.020100  0.430400  1.0
  C  C385  1  0.233300  0.213200  0.430400  1.0
  C  C386  1  0.213200  0.979900  0.930400  1.0
  C  C387  1  0.766700  0.786800  0.930400  1.0
  C  C388  1  0.020100  0.233300  0.930400  1.0
  C  C389  1  0.066500  0.428400  0.575900  1.0
  C  C390  1  0.361900  0.933500  0.575900  1.0
  C  C391  1  0.571600  0.638100  0.575900  1.0
  C  C392  1  0.638100  0.066500  0.075900  1.0
  C  C393  1  0.428400  0.361900  0.075900  1.0
  C  C394  1  0.933500  0.571600  0.075900  1.0
  C  C395  1  0.933500  0.571600  0.424100  1.0
  C  C396  1  0.638100  0.066500  0.424100  1.0
  C  C397  1  0.428400  0.361900  0.424100  1.0
  C  C398  1  0.361900  0.933500  0.924100  1.0
  C  C399  1  0.571600  0.638100  0.924100  1.0
  C  C400  1  0.066500  0.428400  0.924100  1.0
  C  C401  1  0.047700  0.492200  0.548500  1.0
  C  C402  1  0.444500  0.952300  0.548500  1.0
  C  C403  1  0.507800  0.555500  0.548500  1.0
  C  C404  1  0.555500  0.047700  0.048500  1.0
  C  C405  1  0.492200  0.444500  0.048500  1.0
  C  C406  1  0.952300  0.507800  0.048500  1.0
  C  C407  1  0.952300  0.507800  0.451500  1.0
  C  C408  1  0.555500  0.047700  0.451500  1.0
  C  C409  1  0.492200  0.444500  0.451500  1.0
  C  C410  1  0.444500  0.952300  0.951500  1.0
  C  C411  1  0.507800  0.555500  0.951500  1.0
  C  C412  1  0.047700  0.492200  0.951500  1.0
  C  C413  1  0.189900  0.370200  0.547100  1.0
  C  C414  1  0.180300  0.810100  0.547100  1.0
  C  C415  1  0.629800  0.819700  0.547100  1.0
  C  C416  1  0.819700  0.189900  0.047100  1.0
  C  C417  1  0.370200  0.180300  0.047100  1.0
  C  C418  1  0.810100  0.629800  0.047100  1.0
  C  C419  1  0.810100  0.629800  0.452900  1.0
  C  C420  1  0.819700  0.189900  0.452900  1.0
  C  C421  1  0.370200  0.180300  0.452900  1.0
  C  C422  1  0.180300  0.810100  0.952900  1.0
  C  C423  1  0.629800  0.819700  0.952900  1.0
  C  C424  1  0.189900  0.370200  0.952900  1.0
  C  C425  1  0.179600  0.347200  0.510600  1.0
  C  C426  1  0.167600  0.820400  0.510600  1.0
  C  C427  1  0.652800  0.832400  0.510600  1.0
  C  C428  1  0.832400  0.179600  0.010600  1.0
  C  C429  1  0.347200  0.167600  0.010600  1.0
  C  C430  1  0.820400  0.652800  0.010600  1.0
  C  C431  1  0.820400  0.652800  0.489400  1.0
  C  C432  1  0.832400  0.179600  0.489400  1.0
  C  C433  1  0.347200  0.167600  0.489400  1.0
  C  C434  1  0.167600  0.820400  0.989400  1.0
  C  C435  1  0.652800  0.832400  0.989400  1.0
  C  C436  1  0.179600  0.347200  0.989400  1.0
  N  N437  1  0.766700  0.819500  0.661400  1.0
  N  N438  1  0.052800  0.233300  0.661400  1.0
  N  N439  1  0.180500  0.947200  0.661400  1.0
  N  N440  1  0.947200  0.766700  0.161400  1.0
  N  N441  1  0.819500  0.052800  0.161400  1.0
  N  N442  1  0.233300  0.180500  0.161400  1.0
  N  N443  1  0.233300  0.180500  0.338600  1.0
  N  N444  1  0.947200  0.766700  0.338600  1.0
  N  N445  1  0.819500  0.052800  0.338600  1.0
  N  N446  1  0.052800  0.233300  0.838600  1.0
  N  N447  1  0.180500  0.947200  0.838600  1.0
  N  N448  1  0.766700  0.819500  0.838600  1.0
  N  N449  1  0.820700  0.916700  0.643100  1.0
  N  N450  1  0.096000  0.179300  0.643100  1.0
  N  N451  1  0.083300  0.904000  0.643100  1.0
  N  N452  1  0.904000  0.820700  0.143100  1.0
  N  N453  1  0.916700  0.096000  0.143100  1.0
  N  N454  1  0.179300  0.083300  0.143100  1.0
  N  N455  1  0.179300  0.083300  0.356900  1.0
  N  N456  1  0.904000  0.820700  0.356900  1.0
  N  N457  1  0.916700  0.096000  0.356900  1.0
  N  N458  1  0.096000  0.179300  0.856900  1.0
  N  N459  1  0.083300  0.904000  0.856900  1.0
  N  N460  1  0.820700  0.916700  0.856900  1.0
  N  N461  1  0.870800  0.092300  0.602200  1.0
  N  N462  1  0.221500  0.129200  0.602200  1.0
  N  N463  1  0.907700  0.778500  0.602200  1.0
  N  N464  1  0.778500  0.870800  0.102200  1.0
  N  N465  1  0.092300  0.221500  0.102200  1.0
  N  N466  1  0.129200  0.907700  0.102200  1.0
  N  N467  1  0.129200  0.907700  0.397800  1.0
  N  N468  1  0.778500  0.870800  0.397800  1.0
  N  N469  1  0.092300  0.221500  0.397800  1.0
  N  N470  1  0.221500  0.129200  0.897800  1.0
  N  N471  1  0.907700  0.778500  0.897800  1.0
  N  N472  1  0.870800  0.092300  0.897800  1.0
  N  N473  1  0.082100  0.336700  0.563500  1.0
  N  N474  1  0.254600  0.917900  0.563500  1.0
  N  N475  1  0.663300  0.745400  0.563500  1.0
  N  N476  1  0.745400  0.082100  0.063500  1.0
  N  N477  1  0.336700  0.254600  0.063500  1.0
  N  N478  1  0.917900  0.663300  0.063500  1.0
  N  N479  1  0.917900  0.663300  0.436500  1.0
  N  N480  1  0.745400  0.082100  0.436500  1.0
  N  N481  1  0.336700  0.254600  0.436500  1.0
  N  N482  1  0.254600  0.917900  0.936500  1.0
  N  N483  1  0.663300  0.745400  0.936500  1.0
  N  N484  1  0.082100  0.336700  0.936500  1.0
  Cl  Cl485  1  0.333333  0.666667  0.485500  1
  Cl  Cl486  1  0.666667  0.333333  0.985500  1
  Cl  Cl487  1  0.666667  0.333333  0.514500  1
  Cl  Cl488  1  0.333333  0.666667  0.014500  1
  Cl  Cl489  1  0.333333  0.666667  0.637700  1
  Cl  Cl490  1  0.666667  0.333333  0.137700  1
  Cl  Cl491  1  0.666667  0.333333  0.362300  1
  Cl  Cl492  1  0.333333  0.666667  0.862300  1
  Cl  Cl493  1  0.572900  0.200400  0.661100  1
  Cl  Cl494  1  0.627500  0.427100  0.661100  1
  Cl  Cl495  1  0.799600  0.372500  0.661100  1
  Cl  Cl496  1  0.372500  0.572900  0.161100  1
  Cl  Cl497  1  0.200400  0.627500  0.161100  1
  Cl  Cl498  1  0.427100  0.799600  0.161100  1
  Cl  Cl499  1  0.427100  0.799600  0.338900  1
  Cl  Cl500  1  0.372500  0.572900  0.338900  1
  Cl  Cl501  1  0.200400  0.627500  0.338900  1
  Cl  Cl502  1  0.627500  0.427100  0.838900  1
  Cl  Cl503  1  0.799600  0.372500  0.838900  1
  Cl  Cl504  1  0.572900  0.200400  0.838900  1
  Cl  Cl505  1  0.333333  0.666667  0.652800  1
  Cl  Cl506  1  0.666667  0.333333  0.152800  1
  Cl  Cl507  1  0.666667  0.333333  0.347200  1
  Cl  Cl508  1  0.333333  0.666667  0.847200  1
  O  O509  1  0.333333  0.666667  0.522400  1
  O  O510  1  0.666667  0.333333  0.022400  1
  O  O511  1  0.666667  0.333333  0.477600  1
  O  O512  1  0.333333  0.666667  0.977600  1
  O  O513  1  0.333333  0.666667  0.602900  1
  O  O514  1  0.666667  0.333333  0.102900  1
  O  O515  1  0.666667  0.333333  0.397100  1
  O  O516  1  0.333333  0.666667  0.897100  1
  O  O517  1  0.519000  0.242000  0.682000  1
  O  O518  1  0.723000  0.481000  0.682000  1
  O  O519  1  0.758000  0.277000  0.682000  1
  O  O520  1  0.277000  0.519000  0.182000  1
  O  O521  1  0.242000  0.723000  0.182000  1
  O  O522  1  0.481000  0.758000  0.182000  1
  O  O523  1  0.481000  0.758000  0.318000  1
  O  O524  1  0.277000  0.519000  0.318000  1
  O  O525  1  0.242000  0.723000  0.318000  1
  O  O526  1  0.723000  0.481000  0.818000  1
  O  O527  1  0.758000  0.277000  0.818000  1
  O  O528  1  0.519000  0.242000  0.818000  1
  O  O529  1  0.624000  0.150000  0.679800  1
  O  O530  1  0.526000  0.376000  0.679800  1
  O  O531  1  0.850000  0.474000  0.679800  1
  O  O532  1  0.474000  0.624000  0.179800  1
  O  O533  1  0.150000  0.526000  0.179800  1
  O  O534  1  0.376000  0.850000  0.179800  1
  O  O535  1  0.376000  0.850000  0.320200  1
  O  O536  1  0.474000  0.624000  0.320200  1
  O  O537  1  0.150000  0.526000  0.320200  1
  O  O538  1  0.526000  0.376000  0.820200  1
  O  O539  1  0.850000  0.474000  0.820200  1
  O  O540  1  0.624000  0.150000  0.820200  1
  O  O541  1  0.484000  0.109000  0.644000  1
  O  O542  1  0.625000  0.516000  0.644000  1
  O  O543  1  0.891000  0.375000  0.644000  1
  O  O544  1  0.375000  0.484000  0.144000  1
  O  O545  1  0.109000  0.625000  0.144000  1
  O  O546  1  0.516000  0.891000  0.144000  1
  O  O547  1  0.516000  0.891000  0.356000  1
  O  O548  1  0.375000  0.484000  0.356000  1
  O  O549  1  0.109000  0.625000  0.356000  1
  O  O550  1  0.625000  0.516000  0.856000  1
  O  O551  1  0.891000  0.375000  0.856000  1
  O  O552  1  0.484000  0.109000  0.856000  1
  O  O553  1  0.650000  0.284000  0.639000  1
  O  O554  1  0.634000  0.350000  0.639000  1
  O  O555  1  0.716000  0.366000  0.639000  1
  O  O556  1  0.366000  0.650000  0.139000  1
  O  O557  1  0.284000  0.634000  0.139000  1
  O  O558  1  0.350000  0.716000  0.139000  1
  O  O559  1  0.350000  0.716000  0.361000  1
  O  O560  1  0.366000  0.650000  0.361000  1
  O  O561  1  0.284000  0.634000  0.361000  1
  O  O562  1  0.634000  0.350000  0.861000  1
  O  O563  1  0.716000  0.366000  0.861000  1
  O  O564  1  0.650000  0.284000  0.861000  1
  O  O565  1  0.366000  0.769000  0.637100  1
  O  O566  1  0.403000  0.634000  0.637100  1
  O  O567  1  0.231000  0.597000  0.637100  1
  O  O568  1  0.597000  0.366000  0.137100  1
  O  O569  1  0.769000  0.403000  0.137100  1
  O  O570  1  0.634000  0.231000  0.137100  1
  O  O571  1  0.634000  0.231000  0.362900  1
  O  O572  1  0.597000  0.366000  0.362900  1
  O  O573  1  0.769000  0.403000  0.362900  1
  O  O574  1  0.403000  0.634000  0.862900  1
  O  O575  1  0.231000  0.597000  0.862900  1
  O  O576  1  0.366000  0.769000  0.862900  1
  O  O577  1  0.333333  0.666667  0.687700  1
  O  O578  1  0.666667  0.333333  0.187700  1
  O  O579  1  0.666667  0.333333  0.312300  1
  O  O580  1  0.333333  0.666667  0.812300  1
  O  O581  1  0.220100  0.613800  0.473460  1.0
  O  O582  1  0.393700  0.779900  0.473460  1.0
  O  O583  1  0.386200  0.606300  0.473460  1.0
  O  O584  1  0.606300  0.220100  0.973460  1.0
  O  O585  1  0.613800  0.393700  0.973460  1.0
  O  O586  1  0.779900  0.386200  0.973460  1.0
  O  O587  1  0.779900  0.386200  0.526540  1.0
  O  O588  1  0.606300  0.220100  0.526540  1.0
  O  O589  1  0.613800  0.393700  0.526540  1.0
  O  O590  1  0.393700  0.779900  0.026540  1.0
  O  O591  1  0.386200  0.606300  0.026540  1.0
  O  O592  1  0.220100  0.613800  0.026540  1.0
  O  O593  1  0.368000  0.770000  0.653500  1.0
  O  O594  1  0.402000  0.632000  0.653500  1.0
  O  O595  1  0.230000  0.598000  0.653500  1.0
  O  O596  1  0.598000  0.368000  0.153500  1.0
  O  O597  1  0.770000  0.402000  0.153500  1.0
  O  O598  1  0.632000  0.230000  0.153500  1.0
  O  O599  1  0.632000  0.230000  0.346500  1.0
  O  O600  1  0.598000  0.368000  0.346500  1.0
  O  O601  1  0.770000  0.402000  0.346500  1.0
  O  O602  1  0.402000  0.632000  0.846500  1.0
  O  O603  1  0.230000  0.598000  0.846500  1.0
  O  O604  1  0.368000  0.770000  0.846500  1.0
  O  O605  1  0.047600  0.159100  0.563900  1.0
  O  O606  1  0.111500  0.952400  0.563900  1.0
  O  O607  1  0.840900  0.888500  0.563900  1.0
  O  O608  1  0.888500  0.047600  0.063900  1.0
  O  O609  1  0.159100  0.111500  0.063900  1.0
  O  O610  1  0.952400  0.840900  0.063900  1.0
  O  O611  1  0.952400  0.840900  0.436100  1.0
  O  O612  1  0.888500  0.047600  0.436100  1.0
  O  O613  1  0.159100  0.111500  0.436100  1.0
  O  O614  1  0.111500  0.952400  0.936100  1.0
  O  O615  1  0.840900  0.888500  0.936100  1.0
  O  O616  1  0.047600  0.159100  0.936100  1.0
