# generated using pymatgen
data_NdH57C51N12(Cl2O9)3
_symmetry_space_group_name_H-M   'P 1'
_cell_length_a   13.64890000
_cell_length_b   13.64890000
_cell_length_c   40.21100000
_cell_angle_alpha   90.00000000
_cell_angle_beta   90.00000000
_cell_angle_gamma   120.00000000
_symmetry_Int_Tables_number   1
_chemical_formula_structural   NdH57C51N12(Cl2O9)3
_chemical_formula_sum   'Nd4 H228 C204 N48 Cl24 O108'
_cell_volume   6487.40198072
_cell_formula_units_Z   4
loop_
 _symmetry_equiv_pos_site_id
 _symmetry_equiv_pos_as_xyz
  1  'x, y, z'
loop_
 _atom_site_type_symbol
 _atom_site_label
 _atom_site_symmetry_multiplicity
 _atom_site_fract_x
 _atom_site_fract_y
 _atom_site_fract_z
 _atom_site_occupancy
  Nd  Nd1  1  0.000000  0.000000  0.602630  1.0
  Nd  Nd2  1  0.000000  0.000000  0.102630  1.0
  Nd  Nd3  1  0.000000  0.000000  0.397370  1.0
  Nd  Nd4  1  0.000000  0.000000  0.897370  1.0
  H  H5  1  0.823000  0.617000  0.721600  1.0
  H  H6  1  0.794000  0.177000  0.721600  1.0
  H  H7  1  0.383000  0.206000  0.721600  1.0
  H  H8  1  0.206000  0.823000  0.221600  1.0
  H  H9  1  0.617000  0.794000  0.221600  1.0
  H  H10  1  0.177000  0.383000  0.221600  1.0
  H  H11  1  0.177000  0.383000  0.278400  1.0
  H  H12  1  0.206000  0.823000  0.278400  1.0
  H  H13  1  0.617000  0.794000  0.278400  1.0
  H  H14  1  0.794000  0.177000  0.778400  1.0
  H  H15  1  0.383000  0.206000  0.778400  1.0
  H  H16  1  0.823000  0.617000  0.778400  1.0
  H  H17  1  0.828200  0.913500  0.721100  1.0
  H  H18  1  0.085300  0.171800  0.721100  1.0
  H  H19  1  0.086500  0.914700  0.721100  1.0
  H  H20  1  0.914700  0.828200  0.221100  1.0
  H  H21  1  0.913500  0.085300  0.221100  1.0
  H  H22  1  0.171800  0.086500  0.221100  1.0
  H  H23  1  0.171800  0.086500  0.278900  1.0
  H  H24  1  0.914700  0.828200  0.278900  1.0
  H  H25  1  0.913500  0.085300  0.278900  1.0
  H  H26  1  0.085300  0.171800  0.778900  1.0
  H  H27  1  0.086500  0.914700  0.778900  1.0
  H  H28  1  0.828200  0.913500  0.778900  1.0
  H  H29  1  0.907400  0.808300  0.670700  1.0
  H  H30  1  0.900900  0.092600  0.670700  1.0
  H  H31  1  0.191700  0.099100  0.670700  1.0
  H  H32  1  0.099100  0.907400  0.170700  1.0
  H  H33  1  0.808300  0.900900  0.170700  1.0
  H  H34  1  0.092600  0.191700  0.170700  1.0
  H  H35  1  0.092600  0.191700  0.329300  1.0
  H  H36  1  0.099100  0.907400  0.329300  1.0
  H  H37  1  0.808300  0.900900  0.329300  1.0
  H  H38  1  0.900900  0.092600  0.829300  1.0
  H  H39  1  0.191700  0.099100  0.829300  1.0
  H  H40  1  0.907400  0.808300  0.829300  1.0
  H  H41  1  0.799600  0.687800  0.669600  1.0
  H  H42  1  0.888200  0.200400  0.669600  1.0
  H  H43  1  0.312200  0.111800  0.669600  1.0
  H  H44  1  0.111800  0.799600  0.169600  1.0
  H  H45  1  0.687800  0.888200  0.169600  1.0
  H  H46  1  0.200400  0.312200  0.169600  1.0
  H  H47  1  0.200400  0.312200  0.330400  1.0
  H  H48  1  0.111800  0.799600  0.330400  1.0
  H  H49  1  0.687800  0.888200  0.330400  1.0
  H  H50  1  0.888200  0.200400  0.830400  1.0
  H  H51  1  0.312200  0.111800  0.830400  1.0
  H  H52  1  0.799600  0.687800  0.830400  1.0
  H  H53  1  0.603600  0.710300  0.676800  1.0
  H  H54  1  0.106700  0.396400  0.676800  1.0
  H  H55  1  0.289700  0.893300  0.676800  1.0
  H  H56  1  0.893300  0.603600  0.176800  1.0
  H  H57  1  0.710300  0.106700  0.176800  1.0
  H  H58  1  0.396400  0.289700  0.176800  1.0
  H  H59  1  0.396400  0.289700  0.323200  1.0
  H  H60  1  0.893300  0.603600  0.323200  1.0
  H  H61  1  0.710300  0.106700  0.323200  1.0
  H  H62  1  0.106700  0.396400  0.823200  1.0
  H  H63  1  0.289700  0.893300  0.823200  1.0
  H  H64  1  0.603600  0.710300  0.823200  1.0
  H  H65  1  0.563600  0.849500  0.647200  1.0
  H  H66  1  0.285900  0.436400  0.647200  1.0
  H  H67  1  0.150500  0.714100  0.647200  1.0
  H  H68  1  0.714100  0.563600  0.147200  1.0
  H  H69  1  0.849500  0.285900  0.147200  1.0
  H  H70  1  0.436400  0.150500  0.147200  1.0
  H  H71  1  0.436400  0.150500  0.352800  1.0
  H  H72  1  0.714100  0.563600  0.352800  1.0
  H  H73  1  0.849500  0.285900  0.352800  1.0
  H  H74  1  0.285900  0.436400  0.852800  1.0
  H  H75  1  0.150500  0.714100  0.852800  1.0
  H  H76  1  0.563600  0.849500  0.852800  1.0
  H  H77  1  0.612100  0.024900  0.620300  1.0
  H  H78  1  0.412800  0.387900  0.620300  1.0
  H  H79  1  0.975100  0.587200  0.620300  1.0
  H  H80  1  0.587200  0.612100  0.120300  1.0
  H  H81  1  0.024900  0.412800  0.120300  1.0
  H  H82  1  0.387900  0.975100  0.120300  1.0
  H  H83  1  0.387900  0.975100  0.379700  1.0
  H  H84  1  0.587200  0.612100  0.379700  1.0
  H  H85  1  0.024900  0.412800  0.379700  1.0
  H  H86  1  0.412800  0.387900  0.879700  1.0
  H  H87  1  0.975100  0.587200  0.879700  1.0
  H  H88  1  0.612100  0.024900  0.879700  1.0
  H  H89  1  0.662000  0.183700  0.585800  1.0
  H  H90  1  0.521700  0.338000  0.585800  1.0
  H  H91  1  0.816300  0.478300  0.585800  1.0
  H  H92  1  0.478300  0.662000  0.085800  1.0
  H  H93  1  0.183700  0.521700  0.085800  1.0
  H  H94  1  0.338000  0.816300  0.085800  1.0
  H  H95  1  0.338000  0.816300  0.414200  1.0
  H  H96  1  0.478300  0.662000  0.414200  1.0
  H  H97  1  0.183700  0.521700  0.414200  1.0
  H  H98  1  0.521700  0.338000  0.914200  1.0
  H  H99  1  0.816300  0.478300  0.914200  1.0
  H  H100  1  0.662000  0.183700  0.914200  1.0
  H  H101  1  0.840800  0.276100  0.562700  1.0
  H  H102  1  0.435300  0.159200  0.562700  1.0
  H  H103  1  0.723900  0.564700  0.562700  1.0
  H  H104  1  0.564700  0.840800  0.062700  1.0
  H  H105  1  0.276100  0.435300  0.062700  1.0
  H  H106  1  0.159200  0.723900  0.062700  1.0
  H  H107  1  0.159200  0.723900  0.437300  1.0
  H  H108  1  0.564700  0.840800  0.437300  1.0
  H  H109  1  0.276100  0.435300  0.437300  1.0
  H  H110  1  0.435300  0.159200  0.937300  1.0
  H  H111  1  0.723900  0.564700  0.937300  1.0
  H  H112  1  0.840800  0.276100  0.937300  1.0
  H  H113  1  0.130500  0.478700  0.588800  1.0
  H  H114  1  0.348200  0.869500  0.588800  1.0
  H  H115  1  0.521300  0.651800  0.588800  1.0
  H  H116  1  0.651800  0.130500  0.088800  1.0
  H  H117  1  0.478700  0.348200  0.088800  1.0
  H  H118  1  0.869500  0.521300  0.088800  1.0
  H  H119  1  0.869500  0.521300  0.411200  1.0
  H  H120  1  0.651800  0.130500  0.411200  1.0
  H  H121  1  0.478700  0.348200  0.411200  1.0
  H  H122  1  0.348200  0.869500  0.911200  1.0
  H  H123  1  0.521300  0.651800  0.911200  1.0
  H  H124  1  0.130500  0.478700  0.911200  1.0
  H  H125  1  0.999200  0.396400  0.590500  1.0
  H  H126  1  0.397200  0.000800  0.590500  1.0
  H  H127  1  0.603600  0.602800  0.590500  1.0
  H  H128  1  0.602800  0.999200  0.090500  1.0
  H  H129  1  0.396400  0.397200  0.090500  1.0
  H  H130  1  0.000800  0.603600  0.090500  1.0
  H  H131  1  0.000800  0.603600  0.409500  1.0
  H  H132  1  0.602800  0.999200  0.409500  1.0
  H  H133  1  0.396400  0.397200  0.409500  1.0
  H  H134  1  0.397200  0.000800  0.909500  1.0
  H  H135  1  0.603600  0.602800  0.909500  1.0
  H  H136  1  0.999200  0.396400  0.909500  1.0
  H  H137  1  0.114800  0.525000  0.533500  1.0
  H  H138  1  0.410200  0.885200  0.533500  1.0
  H  H139  1  0.475000  0.589800  0.533500  1.0
  H  H140  1  0.589800  0.114800  0.033500  1.0
  H  H141  1  0.525000  0.410200  0.033500  1.0
  H  H142  1  0.885200  0.475000  0.033500  1.0
  H  H143  1  0.885200  0.475000  0.466500  1.0
  H  H144  1  0.589800  0.114800  0.466500  1.0
  H  H145  1  0.525000  0.410200  0.466500  1.0
  H  H146  1  0.410200  0.885200  0.966500  1.0
  H  H147  1  0.475000  0.589800  0.966500  1.0
  H  H148  1  0.114800  0.525000  0.966500  1.0
  H  H149  1  0.035000  0.548800  0.555900  1.0
  H  H150  1  0.513800  0.965000  0.555900  1.0
  H  H151  1  0.451200  0.486200  0.555900  1.0
  H  H152  1  0.486200  0.035000  0.055900  1.0
  H  H153  1  0.548800  0.513800  0.055900  1.0
  H  H154  1  0.965000  0.451200  0.055900  1.0
  H  H155  1  0.965000  0.451200  0.444100  1.0
  H  H156  1  0.486200  0.035000  0.444100  1.0
  H  H157  1  0.548800  0.513800  0.444100  1.0
  H  H158  1  0.513800  0.965000  0.944100  1.0
  H  H159  1  0.451200  0.486200  0.944100  1.0
  H  H160  1  0.035000  0.548800  0.944100  1.0
  H  H161  1  0.984300  0.439200  0.534000  1.0
  H  H162  1  0.454900  0.015700  0.534000  1.0
  H  H163  1  0.560800  0.545100  0.534000  1.0
  H  H164  1  0.545100  0.984300  0.034000  1.0
  H  H165  1  0.439200  0.454900  0.034000  1.0
  H  H166  1  0.015700  0.560800  0.034000  1.0
  H  H167  1  0.015700  0.560800  0.466000  1.0
  H  H168  1  0.545100  0.984300  0.466000  1.0
  H  H169  1  0.439200  0.454900  0.466000  1.0
  H  H170  1  0.454900  0.015700  0.966000  1.0
  H  H171  1  0.560800  0.545100  0.966000  1.0
  H  H172  1  0.984300  0.439200  0.966000  1.0
  H  H173  1  0.224200  0.330200  0.557000  1.0
  H  H174  1  0.106000  0.775800  0.557000  1.0
  H  H175  1  0.669800  0.894000  0.557000  1.0
  H  H176  1  0.894000  0.224200  0.057000  1.0
  H  H177  1  0.330200  0.106000  0.057000  1.0
  H  H178  1  0.775800  0.669800  0.057000  1.0
  H  H179  1  0.775800  0.669800  0.443000  1.0
  H  H180  1  0.894000  0.224200  0.443000  1.0
  H  H181  1  0.330200  0.106000  0.443000  1.0
  H  H182  1  0.106000  0.775800  0.943000  1.0
  H  H183  1  0.669800  0.894000  0.943000  1.0
  H  H184  1  0.224200  0.330200  0.943000  1.0
  H  H185  1  0.236800  0.448500  0.549200  1.0
  H  H186  1  0.211700  0.763200  0.549200  1.0
  H  H187  1  0.551500  0.788300  0.549200  1.0
  H  H188  1  0.788300  0.236800  0.049200  1.0
  H  H189  1  0.448500  0.211700  0.049200  1.0
  H  H190  1  0.763200  0.551500  0.049200  1.0
  H  H191  1  0.763200  0.551500  0.450800  1.0
  H  H192  1  0.788300  0.236800  0.450800  1.0
  H  H193  1  0.448500  0.211700  0.450800  1.0
  H  H194  1  0.211700  0.763200  0.950800  1.0
  H  H195  1  0.551500  0.788300  0.950800  1.0
  H  H196  1  0.236800  0.448500  0.950800  1.0
  H  H197  1  0.132500  0.258800  0.506700  1.0
  H  H198  1  0.126300  0.867500  0.506700  1.0
  H  H199  1  0.741200  0.873700  0.506700  1.0
  H  H200  1  0.873700  0.132500  0.006700  1.0
  H  H201  1  0.258800  0.126300  0.006700  1.0
  H  H202  1  0.867500  0.741200  0.006700  1.0
  H  H203  1  0.867500  0.741200  0.493300  1.0
  H  H204  1  0.873700  0.132500  0.493300  1.0
  H  H205  1  0.258800  0.126300  0.493300  1.0
  H  H206  1  0.126300  0.867500  0.993300  1.0
  H  H207  1  0.741200  0.873700  0.993300  1.0
  H  H208  1  0.132500  0.258800  0.993300  1.0
  H  H209  1  0.247100  0.369900  0.499500  1.0
  H  H210  1  0.122800  0.752900  0.499500  1.0
  H  H211  1  0.630100  0.877200  0.499500  1.0
  H  H212  1  0.877200  0.247100  0.999500  1.0
  H  H213  1  0.369900  0.122800  0.999500  1.0
  H  H214  1  0.752900  0.630100  0.999500  1.0
  H  H215  1  0.752900  0.630100  0.500500  1.0
  H  H216  1  0.877200  0.247100  0.500500  1.0
  H  H217  1  0.369900  0.122800  0.500500  1.0
  H  H218  1  0.122800  0.752900  0.000500  1.0
  H  H219  1  0.630100  0.877200  0.000500  1.0
  H  H220  1  0.247100  0.369900  0.000500  1.0
  H  H221  1  0.133200  0.371900  0.499300  1.0
  H  H222  1  0.238700  0.866800  0.499300  1.0
  H  H223  1  0.628100  0.761300  0.499300  1.0
  H  H224  1  0.761300  0.133200  0.999300  1.0
  H  H225  1  0.371900  0.238700  0.999300  1.0
  H  H226  1  0.866800  0.628100  0.999300  1.0
  H  H227  1  0.866800  0.628100  0.500700  1.0
  H  H228  1  0.761300  0.133200  0.500700  1.0
  H  H229  1  0.371900  0.238700  0.500700  1.0
  H  H230  1  0.238700  0.866800  0.000700  1.0
  H  H231  1  0.628100  0.761300  0.000700  1.0
  H  H232  1  0.133200  0.371900  0.000700  1.0
  C  C233  1  0.822900  0.676300  0.732970  1.0
  C  C234  1  0.853400  0.177100  0.732970  1.0
  C  C235  1  0.323700  0.146600  0.732970  1.0
  C  C236  1  0.146600  0.822900  0.232970  1.0
  C  C237  1  0.676300  0.853400  0.232970  1.0
  C  C238  1  0.177100  0.323700  0.232970  1.0
  C  C239  1  0.177100  0.323700  0.267030  1.0
  C  C240  1  0.146600  0.822900  0.267030  1.0
  C  C241  1  0.676300  0.853400  0.267030  1.0
  C  C242  1  0.853400  0.177100  0.767030  1.0
  C  C243  1  0.323700  0.146600  0.767030  1.0
  C  C244  1  0.822900  0.676300  0.767030  1.0
  C  C245  1  0.822800  0.763400  0.715090  1.0
  C  C246  1  0.940600  0.177200  0.715090  1.0
  C  C247  1  0.236600  0.059400  0.715090  1.0
  C  C248  1  0.059400  0.822800  0.215090  1.0
  C  C249  1  0.763400  0.940600  0.215090  1.0
  C  C250  1  0.177200  0.236600  0.215090  1.0
  C  C251  1  0.177200  0.236600  0.284910  1.0
  C  C252  1  0.059400  0.822800  0.284910  1.0
  C  C253  1  0.763400  0.940600  0.284910  1.0
  C  C254  1  0.940600  0.177200  0.784910  1.0
  C  C255  1  0.236600  0.059400  0.784910  1.0
  C  C256  1  0.822800  0.763400  0.784910  1.0
  C  C257  1  0.826000  0.853400  0.732600  1.0
  C  C258  1  0.027400  0.174000  0.732600  1.0
  C  C259  1  0.146600  0.972600  0.732600  1.0
  C  C260  1  0.972600  0.826000  0.232600  1.0
  C  C261  1  0.853400  0.027400  0.232600  1.0
  C  C262  1  0.174000  0.146600  0.232600  1.0
  C  C263  1  0.174000  0.146600  0.267400  1.0
  C  C264  1  0.972600  0.826000  0.267400  1.0
  C  C265  1  0.853400  0.027400  0.267400  1.0
  C  C266  1  0.027400  0.174000  0.767400  1.0
  C  C267  1  0.146600  0.972600  0.767400  1.0
  C  C268  1  0.826000  0.853400  0.767400  1.0
  C  C269  1  0.828800  0.764700  0.677430  1.0
  C  C270  1  0.935900  0.171200  0.677430  1.0
  C  C271  1  0.235300  0.064100  0.677430  1.0
  C  C272  1  0.064100  0.828800  0.177430  1.0
  C  C273  1  0.764700  0.935900  0.177430  1.0
  C  C274  1  0.171200  0.235300  0.177430  1.0
  C  C275  1  0.171200  0.235300  0.322570  1.0
  C  C276  1  0.064100  0.828800  0.322570  1.0
  C  C277  1  0.764700  0.935900  0.322570  1.0
  C  C278  1  0.935900  0.171200  0.822570  1.0
  C  C279  1  0.235300  0.064100  0.822570  1.0
  C  C280  1  0.828800  0.764700  0.822570  1.0
  C  C281  1  0.655500  0.774700  0.665310  1.0
  C  C282  1  0.119200  0.344500  0.665310  1.0
  C  C283  1  0.225300  0.880800  0.665310  1.0
  C  C284  1  0.880800  0.655500  0.165310  1.0
  C  C285  1  0.774700  0.119200  0.165310  1.0
  C  C286  1  0.344500  0.225300  0.165310  1.0
  C  C287  1  0.344500  0.225300  0.334690  1.0
  C  C288  1  0.880800  0.655500  0.334690  1.0
  C  C289  1  0.774700  0.119200  0.334690  1.0
  C  C290  1  0.119200  0.344500  0.834690  1.0
  C  C291  1  0.225300  0.880800  0.834690  1.0
  C  C292  1  0.655500  0.774700  0.834690  1.0
  C  C293  1  0.632400  0.851200  0.648790  1.0
  C  C294  1  0.218800  0.367600  0.648790  1.0
  C  C295  1  0.148800  0.781200  0.648790  1.0
  C  C296  1  0.781200  0.632400  0.148790  1.0
  C  C297  1  0.851200  0.218800  0.148790  1.0
  C  C298  1  0.367600  0.148800  0.148790  1.0
  C  C299  1  0.367600  0.148800  0.351210  1.0
  C  C300  1  0.781200  0.632400  0.351210  1.0
  C  C301  1  0.851200  0.218800  0.351210  1.0
  C  C302  1  0.218800  0.367600  0.851210  1.0
  C  C303  1  0.148800  0.781200  0.851210  1.0
  C  C304  1  0.632400  0.851200  0.851210  1.0
  C  C305  1  0.734300  0.928800  0.635560  1.0
  C  C306  1  0.194500  0.265700  0.635560  1.0
  C  C307  1  0.071200  0.805500  0.635560  1.0
  C  C308  1  0.805500  0.734300  0.135560  1.0
  C  C309  1  0.928800  0.194500  0.135560  1.0
  C  C310  1  0.265700  0.071200  0.135560  1.0
  C  C311  1  0.265700  0.071200  0.364440  1.0
  C  C312  1  0.805500  0.734300  0.364440  1.0
  C  C313  1  0.928800  0.194500  0.364440  1.0
  C  C314  1  0.194500  0.265700  0.864440  1.0
  C  C315  1  0.071200  0.805500  0.864440  1.0
  C  C316  1  0.734300  0.928800  0.864440  1.0
  C  C317  1  0.762900  0.030800  0.615830  1.0
  C  C318  1  0.267900  0.237100  0.615830  1.0
  C  C319  1  0.969200  0.732100  0.615830  1.0
  C  C320  1  0.732100  0.762900  0.115830  1.0
  C  C321  1  0.030800  0.267900  0.115830  1.0
  C  C322  1  0.237100  0.969200  0.115830  1.0
  C  C323  1  0.237100  0.969200  0.384170  1.0
  C  C324  1  0.732100  0.762900  0.384170  1.0
  C  C325  1  0.030800  0.267900  0.384170  1.0
  C  C326  1  0.267900  0.237100  0.884170  1.0
  C  C327  1  0.969200  0.732100  0.884170  1.0
  C  C328  1  0.762900  0.030800  0.884170  1.0
  C  C329  1  0.683400  0.064200  0.610600  1.0
  C  C330  1  0.380800  0.316600  0.610600  1.0
  C  C331  1  0.935800  0.619200  0.610600  1.0
  C  C332  1  0.619200  0.683400  0.110600  1.0
  C  C333  1  0.064200  0.380800  0.110600  1.0
  C  C334  1  0.316600  0.935800  0.110600  1.0
  C  C335  1  0.316600  0.935800  0.389400  1.0
  C  C336  1  0.619200  0.683400  0.389400  1.0
  C  C337  1  0.064200  0.380800  0.389400  1.0
  C  C338  1  0.380800  0.316600  0.889400  1.0
  C  C339  1  0.935800  0.619200  0.889400  1.0
  C  C340  1  0.683400  0.064200  0.889400  1.0
  C  C341  1  0.713400  0.159400  0.590070  1.0
  C  C342  1  0.446000  0.286600  0.590070  1.0
  C  C343  1  0.840600  0.554000  0.590070  1.0
  C  C344  1  0.554000  0.713400  0.090070  1.0
  C  C345  1  0.159400  0.446000  0.090070  1.0
  C  C346  1  0.286600  0.840600  0.090070  1.0
  C  C347  1  0.286600  0.840600  0.409930  1.0
  C  C348  1  0.554000  0.713400  0.409930  1.0
  C  C349  1  0.159400  0.446000  0.409930  1.0
  C  C350  1  0.446000  0.286600  0.909930  1.0
  C  C351  1  0.840600  0.554000  0.909930  1.0
  C  C352  1  0.713400  0.159400  0.909930  1.0
  C  C353  1  0.819800  0.214500  0.576750  1.0
  C  C354  1  0.394700  0.180200  0.576750  1.0
  C  C355  1  0.785500  0.605300  0.576750  1.0
  C  C356  1  0.605300  0.819800  0.076750  1.0
  C  C357  1  0.214500  0.394700  0.076750  1.0
  C  C358  1  0.180200  0.785500  0.076750  1.0
  C  C359  1  0.180200  0.785500  0.423250  1.0
  C  C360  1  0.605300  0.819800  0.423250  1.0
  C  C361  1  0.214500  0.394700  0.423250  1.0
  C  C362  1  0.394700  0.180200  0.923250  1.0
  C  C363  1  0.785500  0.605300  0.923250  1.0
  C  C364  1  0.819800  0.214500  0.923250  1.0
  C  C365  1  0.897000  0.178800  0.584060  1.0
  C  C366  1  0.281800  0.103000  0.584060  1.0
  C  C367  1  0.821200  0.718200  0.584060  1.0
  C  C368  1  0.718200  0.897000  0.084060  1.0
  C  C369  1  0.178800  0.281800  0.084060  1.0
  C  C370  1  0.103000  0.821200  0.084060  1.0
  C  C371  1  0.103000  0.821200  0.415940  1.0
  C  C372  1  0.718200  0.897000  0.415940  1.0
  C  C373  1  0.178800  0.281800  0.415940  1.0
  C  C374  1  0.281800  0.103000  0.915940  1.0
  C  C375  1  0.821200  0.718200  0.915940  1.0
  C  C376  1  0.897000  0.178800  0.915940  1.0
  C  C377  1  0.015000  0.225300  0.569980  1.0
  C  C378  1  0.210300  0.985000  0.569980  1.0
  C  C379  1  0.774700  0.789700  0.569980  1.0
  C  C380  1  0.789700  0.015000  0.069980  1.0
  C  C381  1  0.225300  0.210300  0.069980  1.0
  C  C382  1  0.985000  0.774700  0.069980  1.0
  C  C383  1  0.985000  0.774700  0.430020  1.0
  C  C384  1  0.789700  0.015000  0.430020  1.0
  C  C385  1  0.225300  0.210300  0.430020  1.0
  C  C386  1  0.210300  0.985000  0.930020  1.0
  C  C387  1  0.774700  0.789700  0.930020  1.0
  C  C388  1  0.015000  0.225300  0.930020  1.0
  C  C389  1  0.064600  0.426700  0.575950  1.0
  C  C390  1  0.362100  0.935400  0.575950  1.0
  C  C391  1  0.573300  0.637900  0.575950  1.0
  C  C392  1  0.637900  0.064600  0.075950  1.0
  C  C393  1  0.426700  0.362100  0.075950  1.0
  C  C394  1  0.935400  0.573300  0.075950  1.0
  C  C395  1  0.935400  0.573300  0.424050  1.0
  C  C396  1  0.637900  0.064600  0.424050  1.0
  C  C397  1  0.426700  0.362100  0.424050  1.0
  C  C398  1  0.362100  0.935400  0.924050  1.0
  C  C399  1  0.573300  0.637900  0.924050  1.0
  C  C400  1  0.064600  0.426700  0.924050  1.0
  C  C401  1  0.048100  0.490900  0.547100  1.0
  C  C402  1  0.442800  0.951900  0.547100  1.0
  C  C403  1  0.509100  0.557200  0.547100  1.0
  C  C404  1  0.557200  0.048100  0.047100  1.0
  C  C405  1  0.490900  0.442800  0.047100  1.0
  C  C406  1  0.951900  0.509100  0.047100  1.0
  C  C407  1  0.951900  0.509100  0.452900  1.0
  C  C408  1  0.557200  0.048100  0.452900  1.0
  C  C409  1  0.490900  0.442800  0.452900  1.0
  C  C410  1  0.442800  0.951900  0.952900  1.0
  C  C411  1  0.509100  0.557200  0.952900  1.0
  C  C412  1  0.048100  0.490900  0.952900  1.0
  C  C413  1  0.187700  0.367500  0.546510  1.0
  C  C414  1  0.179800  0.812300  0.546510  1.0
  C  C415  1  0.632500  0.820200  0.546510  1.0
  C  C416  1  0.820200  0.187700  0.046510  1.0
  C  C417  1  0.367500  0.179800  0.046510  1.0
  C  C418  1  0.812300  0.632500  0.046510  1.0
  C  C419  1  0.812300  0.632500  0.453490  1.0
  C  C420  1  0.820200  0.187700  0.453490  1.0
  C  C421  1  0.367500  0.179800  0.453490  1.0
  C  C422  1  0.179800  0.812300  0.953490  1.0
  C  C423  1  0.632500  0.820200  0.953490  1.0
  C  C424  1  0.187700  0.367500  0.953490  1.0
  C  C425  1  0.173900  0.339500  0.509580  1.0
  C  C426  1  0.165600  0.826100  0.509580  1.0
  C  C427  1  0.660500  0.834400  0.509580  1.0
  C  C428  1  0.834400  0.173900  0.009580  1.0
  C  C429  1  0.339500  0.165600  0.009580  1.0
  C  C430  1  0.826100  0.660500  0.009580  1.0
  C  C431  1  0.826100  0.660500  0.490420  1.0
  C  C432  1  0.834400  0.173900  0.490420  1.0
  C  C433  1  0.339500  0.165600  0.490420  1.0
  C  C434  1  0.165600  0.826100  0.990420  1.0
  C  C435  1  0.660500  0.834400  0.990420  1.0
  C  C436  1  0.173900  0.339500  0.990420  1.0
  N  N437  1  0.766900  0.811300  0.661590  1.0
  N  N438  1  0.044400  0.233100  0.661590  1.0
  N  N439  1  0.188700  0.955600  0.661590  1.0
  N  N440  1  0.955600  0.766900  0.161590  1.0
  N  N441  1  0.811300  0.044400  0.161590  1.0
  N  N442  1  0.233100  0.188700  0.161590  1.0
  N  N443  1  0.233100  0.188700  0.338410  1.0
  N  N444  1  0.955600  0.766900  0.338410  1.0
  N  N445  1  0.811300  0.044400  0.338410  1.0
  N  N446  1  0.044400  0.233100  0.838410  1.0
  N  N447  1  0.188700  0.955600  0.838410  1.0
  N  N448  1  0.766900  0.811300  0.838410  1.0
  N  N449  1  0.819400  0.907700  0.643500  1.0
  N  N450  1  0.088300  0.180600  0.643500  1.0
  N  N451  1  0.092300  0.911700  0.643500  1.0
  N  N452  1  0.911700  0.819400  0.143500  1.0
  N  N453  1  0.907700  0.088300  0.143500  1.0
  N  N454  1  0.180600  0.092300  0.143500  1.0
  N  N455  1  0.180600  0.092300  0.356500  1.0
  N  N456  1  0.911700  0.819400  0.356500  1.0
  N  N457  1  0.907700  0.088300  0.356500  1.0
  N  N458  1  0.088300  0.180600  0.856500  1.0
  N  N459  1  0.092300  0.911700  0.856500  1.0
  N  N460  1  0.819400  0.907700  0.856500  1.0
  N  N461  1  0.868800  0.086900  0.602780  1.0
  N  N462  1  0.218100  0.131200  0.602780  1.0
  N  N463  1  0.913100  0.781900  0.602780  1.0
  N  N464  1  0.781900  0.868800  0.102780  1.0
  N  N465  1  0.086900  0.218100  0.102780  1.0
  N  N466  1  0.131200  0.913100  0.102780  1.0
  N  N467  1  0.131200  0.913100  0.397220  1.0
  N  N468  1  0.781900  0.868800  0.397220  1.0
  N  N469  1  0.086900  0.218100  0.397220  1.0
  N  N470  1  0.218100  0.131200  0.897220  1.0
  N  N471  1  0.913100  0.781900  0.897220  1.0
  N  N472  1  0.868800  0.086900  0.897220  1.0
  N  N473  1  0.079900  0.332900  0.563400  1.0
  N  N474  1  0.253000  0.920100  0.563400  1.0
  N  N475  1  0.667100  0.747000  0.563400  1.0
  N  N476  1  0.747000  0.079900  0.063400  1.0
  N  N477  1  0.332900  0.253000  0.063400  1.0
  N  N478  1  0.920100  0.667100  0.063400  1.0
  N  N479  1  0.920100  0.667100  0.436600  1.0
  N  N480  1  0.747000  0.079900  0.436600  1.0
  N  N481  1  0.332900  0.253000  0.436600  1.0
  N  N482  1  0.253000  0.920100  0.936600  1.0
  N  N483  1  0.667100  0.747000  0.936600  1.0
  N  N484  1  0.079900  0.332900  0.936600  1.0
  Cl  Cl485  1  0.333333  0.666667  0.485660  1
  Cl  Cl486  1  0.666667  0.333333  0.985660  1
  Cl  Cl487  1  0.666667  0.333333  0.514340  1
  Cl  Cl488  1  0.333333  0.666667  0.014340  1
  Cl  Cl489  1  0.333333  0.666667  0.634300  1
  Cl  Cl490  1  0.666667  0.333333  0.134300  1
  Cl  Cl491  1  0.666667  0.333333  0.365700  1
  Cl  Cl492  1  0.333333  0.666667  0.865700  1
  Cl  Cl493  1  0.588600  0.218300  0.659560  1
  Cl  Cl494  1  0.629700  0.411400  0.659560  1
  Cl  Cl495  1  0.781700  0.370300  0.659560  1
  Cl  Cl496  1  0.370300  0.588600  0.159560  1
  Cl  Cl497  1  0.218300  0.629700  0.159560  1
  Cl  Cl498  1  0.411400  0.781700  0.159560  1
  Cl  Cl499  1  0.411400  0.781700  0.340440  1
  Cl  Cl500  1  0.370300  0.588600  0.340440  1
  Cl  Cl501  1  0.218300  0.629700  0.340440  1
  Cl  Cl502  1  0.629700  0.411400  0.840440  1
  Cl  Cl503  1  0.781700  0.370300  0.840440  1
  Cl  Cl504  1  0.588600  0.218300  0.840440  1
  Cl  Cl505  1  0.333333  0.666667  0.655600  1
  Cl  Cl506  1  0.666667  0.333333  0.155600  1
  Cl  Cl507  1  0.666667  0.333333  0.344400  1
  Cl  Cl508  1  0.333333  0.666667  0.844400  1
  O  O509  1  0.333333  0.666667  0.521900  1
  O  O510  1  0.666667  0.333333  0.021900  1
  O  O511  1  0.666667  0.333333  0.478100  1
  O  O512  1  0.333333  0.666667  0.978100  1
  O  O513  1  0.333333  0.666667  0.600100  1
  O  O514  1  0.666667  0.333333  0.100100  1
  O  O515  1  0.666667  0.333333  0.399900  1
  O  O516  1  0.333333  0.666667  0.899900  1
  O  O517  1  0.533000  0.260000  0.679300  1
  O  O518  1  0.727000  0.467000  0.679300  1
  O  O519  1  0.740000  0.273000  0.679300  1
  O  O520  1  0.273000  0.533000  0.179300  1
  O  O521  1  0.260000  0.727000  0.179300  1
  O  O522  1  0.467000  0.740000  0.179300  1
  O  O523  1  0.467000  0.740000  0.320700  1
  O  O524  1  0.273000  0.533000  0.320700  1
  O  O525  1  0.260000  0.727000  0.320700  1
  O  O526  1  0.727000  0.467000  0.820700  1
  O  O527  1  0.740000  0.273000  0.820700  1
  O  O528  1  0.533000  0.260000  0.820700  1
  O  O529  1  0.663000  0.192000  0.675800  1
  O  O530  1  0.529000  0.337000  0.675800  1
  O  O531  1  0.808000  0.471000  0.675800  1
  O  O532  1  0.471000  0.663000  0.175800  1
  O  O533  1  0.192000  0.529000  0.175800  1
  O  O534  1  0.337000  0.808000  0.175800  1
  O  O535  1  0.337000  0.808000  0.324200  1
  O  O536  1  0.471000  0.663000  0.324200  1
  O  O537  1  0.192000  0.529000  0.324200  1
  O  O538  1  0.529000  0.337000  0.824200  1
  O  O539  1  0.808000  0.471000  0.824200  1
  O  O540  1  0.663000  0.192000  0.824200  1
  O  O541  1  0.494000  0.121000  0.644600  1
  O  O542  1  0.627000  0.506000  0.644600  1
  O  O543  1  0.879000  0.373000  0.644600  1
  O  O544  1  0.373000  0.494000  0.144600  1
  O  O545  1  0.121000  0.627000  0.144600  1
  O  O546  1  0.506000  0.879000  0.144600  1
  O  O547  1  0.506000  0.879000  0.355400  1
  O  O548  1  0.373000  0.494000  0.355400  1
  O  O549  1  0.121000  0.627000  0.355400  1
  O  O550  1  0.627000  0.506000  0.855400  1
  O  O551  1  0.879000  0.373000  0.855400  1
  O  O552  1  0.494000  0.121000  0.855400  1
  O  O553  1  0.657000  0.303000  0.636800  1
  O  O554  1  0.646000  0.343000  0.636800  1
  O  O555  1  0.697000  0.354000  0.636800  1
  O  O556  1  0.354000  0.657000  0.136800  1
  O  O557  1  0.303000  0.646000  0.136800  1
  O  O558  1  0.343000  0.697000  0.136800  1
  O  O559  1  0.343000  0.697000  0.363200  1
  O  O560  1  0.354000  0.657000  0.363200  1
  O  O561  1  0.303000  0.646000  0.363200  1
  O  O562  1  0.646000  0.343000  0.863200  1
  O  O563  1  0.697000  0.354000  0.863200  1
  O  O564  1  0.657000  0.303000  0.863200  1
  O  O565  1  0.377000  0.779400  0.639900  1
  O  O566  1  0.402400  0.623000  0.639900  1
  O  O567  1  0.220600  0.597600  0.639900  1
  O  O568  1  0.597600  0.377000  0.139900  1
  O  O569  1  0.779400  0.402400  0.139900  1
  O  O570  1  0.623000  0.220600  0.139900  1
  O  O571  1  0.623000  0.220600  0.360100  1
  O  O572  1  0.597600  0.377000  0.360100  1
  O  O573  1  0.779400  0.402400  0.360100  1
  O  O574  1  0.402400  0.623000  0.860100  1
  O  O575  1  0.220600  0.597600  0.860100  1
  O  O576  1  0.377000  0.779400  0.860100  1
  O  O577  1  0.333333  0.666667  0.689100  1
  O  O578  1  0.666667  0.333333  0.189100  1
  O  O579  1  0.666667  0.333333  0.310900  1
  O  O580  1  0.333333  0.666667  0.810900  1
  O  O581  1  0.218700  0.610100  0.473970  1.0
  O  O582  1  0.391400  0.781300  0.473970  1.0
  O  O583  1  0.389900  0.608600  0.473970  1.0
  O  O584  1  0.608600  0.218700  0.973970  1.0
  O  O585  1  0.610100  0.391400  0.973970  1.0
  O  O586  1  0.781300  0.389900  0.973970  1.0
  O  O587  1  0.781300  0.389900  0.526030  1.0
  O  O588  1  0.608600  0.218700  0.526030  1.0
  O  O589  1  0.610100  0.391400  0.526030  1.0
  O  O590  1  0.391400  0.781300  0.026030  1.0
  O  O591  1  0.389900  0.608600  0.026030  1.0
  O  O592  1  0.218700  0.610100  0.026030  1.0
  O  O593  1  0.376000  0.776000  0.654600  1.0
  O  O594  1  0.400000  0.624000  0.654600  1.0
  O  O595  1  0.224000  0.600000  0.654600  1.0
  O  O596  1  0.600000  0.376000  0.154600  1.0
  O  O597  1  0.776000  0.400000  0.154600  1.0
  O  O598  1  0.624000  0.224000  0.154600  1.0
  O  O599  1  0.624000  0.224000  0.345400  1.0
  O  O600  1  0.600000  0.376000  0.345400  1.0
  O  O601  1  0.776000  0.400000  0.345400  1.0
  O  O602  1  0.400000  0.624000  0.845400  1.0
  O  O603  1  0.224000  0.600000  0.845400  1.0
  O  O604  1  0.376000  0.776000  0.845400  1.0
  O  O605  1  0.046000  0.153900  0.564630  1.0
  O  O606  1  0.107900  0.954000  0.564630  1.0
  O  O607  1  0.846100  0.892100  0.564630  1.0
  O  O608  1  0.892100  0.046000  0.064630  1.0
  O  O609  1  0.153900  0.107900  0.064630  1.0
  O  O610  1  0.954000  0.846100  0.064630  1.0
  O  O611  1  0.954000  0.846100  0.435370  1.0
  O  O612  1  0.892100  0.046000  0.435370  1.0
  O  O613  1  0.153900  0.107900  0.435370  1.0
  O  O614  1  0.107900  0.954000  0.935370  1.0
  O  O615  1  0.846100  0.892100  0.935370  1.0
  O  O616  1  0.046000  0.153900  0.935370  1.0
