# generated using pymatgen
data_P4H85Pt2C65N4O7
_symmetry_space_group_name_H-M   'P 1'
_cell_length_a   10.05000000
_cell_length_b   18.31900000
_cell_length_c   21.39600000
_cell_angle_alpha   76.93200000
_cell_angle_beta   80.90400000
_cell_angle_gamma   78.55300000
_symmetry_Int_Tables_number   1
_chemical_formula_structural   P4H85Pt2C65N4O7
_chemical_formula_sum   'P8 H170 Pt4 C130 N8 O14'
_cell_volume   3734.25545451
_cell_formula_units_Z   2
loop_
 _symmetry_equiv_pos_site_id
 _symmetry_equiv_pos_as_xyz
  1  'x, y, z'
loop_
 _atom_site_type_symbol
 _atom_site_label
 _atom_site_symmetry_multiplicity
 _atom_site_fract_x
 _atom_site_fract_y
 _atom_site_fract_z
 _atom_site_occupancy
  P  P1  1  0.869000  0.715800  0.222600  1.0
  P  P2  1  0.131000  0.284200  0.777400  1.0
  P  P3  1  0.498300  0.686200  0.376800  1.0
  P  P4  1  0.501700  0.313800  0.623200  1.0
  P  P5  1  0.655000  0.161700  0.196200  1.0
  P  P6  1  0.345000  0.838300  0.803800  1.0
  P  P7  1  0.351300  0.132300  0.382000  1.0
  P  P8  1  0.648700  0.867700  0.618000  1.0
  H  H9  1  0.036100  0.654800  0.297900  1.0
  H  H10  1  0.963900  0.345200  0.702100  1.0
  H  H11  1  0.110200  0.660300  0.226500  1.0
  H  H12  1  0.889800  0.339700  0.773500  1.0
  H  H13  1  0.034400  0.554200  0.213400  1.0
  H  H14  1  0.965600  0.445800  0.786600  1.0
  H  H15  1  0.040600  0.531000  0.288100  1.0
  H  H16  1  0.959400  0.469000  0.711900  1.0
  H  H17  1  0.901100  0.568100  0.261300  1.0
  H  H18  1  0.098900  0.431900  0.738700  1.0
  H  H19  1  0.787800  0.717800  0.129000  1.0
  H  H20  1  0.212200  0.282200  0.871000  1.0
  H  H21  1  0.846100  0.634300  0.160900  1.0
  H  H22  1  0.153900  0.365700  0.839100  1.0
  H  H23  1  0.071000  0.648700  0.115100  1.0
  H  H24  1  0.929000  0.351300  0.884900  1.0
  H  H25  1  0.981300  0.683300  0.058400  1.0
  H  H26  1  0.018700  0.316700  0.941600  1.0
  H  H27  1  0.029300  0.737100  0.094700  1.0
  H  H28  1  0.970700  0.262900  0.905300  1.0
  H  H29  1  0.945000  0.835500  0.151700  1.0
  H  H30  1  0.055000  0.164500  0.848300  1.0
  H  H31  1  0.924000  0.845200  0.224300  1.0
  H  H32  1  0.076000  0.154800  0.775700  1.0
  H  H33  1  0.700600  0.874500  0.226500  1.0
  H  H34  1  0.299400  0.125500  0.773500  1.0
  H  H35  1  0.745200  0.911400  0.154500  1.0
  H  H36  1  0.254800  0.088600  0.845500  1.0
  H  H37  1  0.698600  0.831800  0.171000  1.0
  H  H38  1  0.301400  0.168200  0.829000  1.0
  H  H39  1  0.475200  0.622900  0.481900  1.0
  H  H40  1  0.524800  0.377100  0.518100  1.0
  H  H41  1  0.612800  0.655200  0.465800  1.0
  H  H42  1  0.387200  0.344800  0.534200  1.0
  H  H43  1  0.715400  0.555000  0.410600  1.0
  H  H44  1  0.284600  0.445000  0.589400  1.0
  H  H45  1  0.658100  0.519000  0.481000  1.0
  H  H46  1  0.341900  0.481000  0.519000  1.0
  H  H47  1  0.577100  0.523900  0.422900  1.0
  H  H48  1  0.422900  0.476100  0.577100  1.0
  H  H49  1  0.416300  0.590000  0.351400  1.0
  H  H50  1  0.583700  0.410000  0.648600  1.0
  H  H51  1  0.335500  0.668000  0.320900  1.0
  H  H52  1  0.664500  0.332000  0.679100  1.0
  H  H53  1  0.278600  0.591900  0.445000  1.0
  H  H54  1  0.721400  0.408100  0.555000  1.0
  H  H55  1  0.196800  0.670400  0.413900  1.0
  H  H56  1  0.803200  0.329600  0.586100  1.0
  H  H57  1  0.196500  0.597500  0.387100  1.0
  H  H58  1  0.803500  0.402500  0.612900  1.0
  H  H59  1  0.346500  0.760800  0.437900  1.0
  H  H60  1  0.653500  0.239200  0.562100  1.0
  H  H61  1  0.480400  0.796900  0.412800  1.0
  H  H62  1  0.519600  0.203100  0.587200  1.0
  H  H63  1  0.271200  0.799600  0.322000  1.0
  H  H64  1  0.728800  0.200400  0.678000  1.0
  H  H65  1  0.297200  0.874700  0.337900  1.0
  H  H66  1  0.702800  0.125300  0.662100  1.0
  H  H67  1  0.408600  0.829700  0.294200  1.0
  H  H68  1  0.591400  0.170300  0.705800  1.0
  H  H69  1  0.486300  0.753500  0.193500  1.0
  H  H70  1  0.513700  0.246500  0.806500  1.0
  H  H71  1  0.375400  0.707600  0.127100  1.0
  H  H72  1  0.624600  0.292400  0.872900  1.0
  H  H73  1  0.569000  0.498000  0.198300  1.0
  H  H74  1  0.431000  0.502000  0.801700  1.0
  H  H75  1  0.666000  0.548800  0.263000  1.0
  H  H76  1  0.334000  0.451200  0.737000  1.0
  H  H77  1  0.389600  0.413600  0.045100  1.0
  H  H78  1  0.610400  0.586400  0.954900  1.0
  H  H79  1  0.466600  0.295300  0.995500  1.0
  H  H80  1  0.533400  0.704700  0.004500  1.0
  H  H81  1  0.346400  0.295400  0.052400  1.0
  H  H82  1  0.653600  0.704600  0.947600  1.0
  H  H83  1  0.148500  0.228900  0.031700  1.0
  H  H84  1  0.851500  0.771100  0.968300  1.0
  H  H85  1  0.110500  0.112300  0.020500  1.0
  H  H86  1  0.889500  0.887700  0.979500  1.0
  H  H87  1  0.289300  0.028500  0.984200  1.0
  H  H88  1  0.710700  0.971500  0.015800  1.0
  H  H89  1  0.494700  0.062600  0.946300  1.0
  H  H90  1  0.505300  0.937400  0.053700  1.0
  H  H91  1  0.541500  0.176800  0.966300  1.0
  H  H92  1  0.458500  0.823200  0.033700  1.0
  H  H93  1  0.177000  0.625700  0.991000  1.0
  H  H94  1  0.823000  0.374300  0.009000  1.0
  H  H95  1  0.128500  0.455300  0.910700  1.0
  H  H96  1  0.871500  0.544700  0.089300  1.0
  H  H97  1  0.667500  0.856300  0.322100  1.0
  H  H98  1  0.332500  0.143700  0.677900  1.0
  H  H99  1  0.981000  0.713200  0.457100  1.0
  H  H100  1  0.019000  0.286800  0.542900  1.0
  H  H101  1  0.865100  0.657100  0.401700  1.0
  H  H102  1  0.134900  0.342900  0.598300  1.0
  H  H103  1  0.012200  0.957000  0.464700  1.0
  H  H104  1  0.987800  0.043000  0.535300  1.0
  H  H105  1  0.049100  0.831400  0.477200  1.0
  H  H106  1  0.950900  0.168600  0.522800  1.0
  H  H107  1  0.625900  0.979500  0.316900  1.0
  H  H108  1  0.374100  0.020500  0.683100  1.0
  H  H109  1  0.720200  0.158200  0.367100  1.0
  H  H110  1  0.279800  0.841800  0.632900  1.0
  H  H111  1  0.879700  0.079600  0.427900  1.0
  H  H112  1  0.120300  0.920400  0.572100  1.0
  H  H113  1  0.845200  0.086300  0.233000  1.0
  H  H114  1  0.154800  0.913700  0.767000  1.0
  H  H115  1  0.855200  0.172100  0.226400  1.0
  H  H116  1  0.144800  0.827900  0.773600  1.0
  H  H117  1  0.916700  0.186200  0.115200  1.0
  H  H118  1  0.083300  0.813800  0.884800  1.0
  H  H119  1  0.012000  0.113100  0.147100  1.0
  H  H120  1  0.988000  0.886900  0.852900  1.0
  H  H121  1  0.885600  0.105500  0.116000  1.0
  H  H122  1  0.114400  0.894500  0.884000  1.0
  H  H123  1  0.125800  0.107900  0.411500  1.0
  H  H124  1  0.874200  0.892100  0.588500  1.0
  H  H125  1  0.164700  0.114400  0.336100  1.0
  H  H126  1  0.835300  0.885600  0.663900  1.0
  H  H127  1  0.184300  0.249800  0.337000  1.0
  H  H128  1  0.815700  0.750200  0.663000  1.0
  H  H129  1  0.036600  0.232800  0.339000  1.0
  H  H130  1  0.963400  0.767200  0.661000  1.0
  H  H131  1  0.089900  0.237200  0.402900  1.0
  H  H132  1  0.910100  0.762800  0.597100  1.0
  H  H133  1  0.320300  0.180400  0.475500  1.0
  H  H134  1  0.679700  0.819600  0.524500  1.0
  H  H135  1  0.374000  0.290600  0.386900  1.0
  H  H136  1  0.626000  0.709400  0.613100  1.0
  H  H137  1  0.403100  0.275100  0.459000  1.0
  H  H138  1  0.596900  0.724900  0.541000  1.0
  H  H139  1  0.512100  0.241100  0.407600  1.0
  H  H140  1  0.487900  0.758900  0.592400  1.0
  H  H141  1  0.324800  0.044500  0.480200  1.0
  H  H142  1  0.675200  0.955500  0.519800  1.0
  H  H143  1  0.476800  0.030600  0.448800  1.0
  H  H144  1  0.523200  0.969400  0.551200  1.0
  H  H145  1  0.437200  0.953000  0.392300  1.0
  H  H146  1  0.562800  0.047000  0.607700  1.0
  H  H147  1  0.334100  0.935000  0.454500  1.0
  H  H148  1  0.665900  0.065000  0.545500  1.0
  H  H149  1  0.282000  0.988800  0.392000  1.0
  H  H150  1  0.718000  0.011200  0.608000  1.0
  H  H151  1  0.283400  0.141800  0.209000  1.0
  H  H152  1  0.716600  0.858200  0.791000  1.0
  H  H153  1  0.112700  0.217200  0.152400  1.0
  H  H154  1  0.887300  0.782800  0.847600  1.0
  H  H155  1  0.217300  0.397700  0.194200  1.0
  H  H156  1  0.782700  0.602300  0.805800  1.0
  H  H157  1  0.372800  0.320300  0.252500  1.0
  H  H158  1  0.627200  0.679700  0.747500  1.0
  H  H159  1  0.770700  0.247500  0.235100  1.0
  H  H160  1  0.229300  0.752500  0.764900  1.0
  H  H161  1  0.801700  0.319800  0.183600  1.0
  H  H162  1  0.198300  0.680200  0.816400  1.0
  H  H163  1  0.666800  0.324000  0.231700  1.0
  H  H164  1  0.333200  0.676000  0.768300  1.0
  H  H165  1  0.546800  0.290500  0.146300  1.0
  H  H166  1  0.453200  0.709500  0.853700  1.0
  H  H167  1  0.690000  0.268500  0.104800  1.0
  H  H168  1  0.310000  0.731500  0.895200  1.0
  H  H169  1  0.650200  0.145100  0.081300  1.0
  H  H170  1  0.349800  0.854900  0.918700  1.0
  H  H171  1  0.496900  0.165300  0.112700  1.0
  H  H172  1  0.503100  0.834700  0.887300  1.0
  H  H173  1  0.512500  0.045800  0.183300  1.0
  H  H174  1  0.487500  0.954200  0.816700  1.0
  H  H175  1  0.569300  0.027500  0.115000  1.0
  H  H176  1  0.430700  0.972500  0.885000  1.0
  H  H177  1  0.670700  0.027500  0.163700  1.0
  H  H178  1  0.329300  0.972500  0.836300  1.0
  Pt  Pt179  1  0.676280  0.702820  0.296320  1.0
  Pt  Pt180  1  0.323720  0.297180  0.703680  1.0
  Pt  Pt181  1  0.500980  0.148270  0.288270  1.0
  Pt  Pt182  1  0.499020  0.851730  0.711730  1.0
  C  C183  1  0.136900  0.547500  0.944300  1.0
  C  C184  1  0.863100  0.452500  0.055700  1.0
  C  C185  1  0.761700  0.753000  0.352300  1.0
  C  C186  1  0.238300  0.247000  0.647700  1.0
  C  C187  1  0.028000  0.650000  0.254600  1.0
  C  C188  1  0.972000  0.350000  0.745400  1.0
  C  C189  1  0.998000  0.568000  0.254000  1.0
  C  C190  1  0.002000  0.432000  0.746000  1.0
  C  C191  1  0.864000  0.686100  0.150100  1.0
  C  C192  1  0.136000  0.313900  0.849900  1.0
  C  C193  1  0.000000  0.689100  0.099500  1.0
  C  C194  1  0.000000  0.310900  0.900500  1.0
  C  C195  1  0.887000  0.827000  0.193000  1.0
  C  C196  1  0.113000  0.173000  0.807000  1.0
  C  C197  1  0.746000  0.864000  0.186000  1.0
  C  C198  1  0.254000  0.136000  0.814000  1.0
  C  C199  1  0.554000  0.629300  0.449700  1.0
  C  C200  1  0.446000  0.370700  0.550300  1.0
  C  C201  1  0.634000  0.549000  0.440100  1.0
  C  C202  1  0.366000  0.451000  0.559900  1.0
  C  C203  1  0.369000  0.638600  0.360700  1.0
  C  C204  1  0.631000  0.361400  0.639300  1.0
  C  C205  1  0.250000  0.623300  0.405400  1.0
  C  C206  1  0.750000  0.376700  0.594600  1.0
  C  C207  1  0.416000  0.770700  0.401400  1.0
  C  C208  1  0.584000  0.229300  0.598600  1.0
  C  C209  1  0.339000  0.825000  0.331000  1.0
  C  C210  1  0.661000  0.175000  0.669000  1.0
  C  C211  1  0.501600  0.701500  0.194400  1.0
  C  C212  1  0.498400  0.298500  0.805600  1.0
  C  C213  1  0.436200  0.674600  0.153400  1.0
  C  C214  1  0.563800  0.325400  0.846600  1.0
  C  C215  1  0.463800  0.598400  0.153200  1.0
  C  C216  1  0.536200  0.401600  0.846800  1.0
  C  C217  1  0.551000  0.550200  0.196400  1.0
  C  C218  1  0.449000  0.449800  0.803600  1.0
  C  C219  1  0.607900  0.581100  0.234900  1.0
  C  C220  1  0.392100  0.418900  0.765100  1.0
  C  C221  1  0.400800  0.569300  0.109200  1.0
  C  C222  1  0.599200  0.430700  0.890800  1.0
  C  C223  1  0.350400  0.547400  0.072600  1.0
  C  C224  1  0.649600  0.452600  0.927400  1.0
  C  C225  1  0.290500  0.522200  0.026100  1.0
  C  C226  1  0.709500  0.477800  0.973900  1.0
  C  C227  1  0.326700  0.447100  0.020200  1.0
  C  C228  1  0.673300  0.552900  0.979800  1.0
  C  C229  1  0.264700  0.422200  0.974800  1.0
  C  C230  1  0.735300  0.577800  0.025200  1.0
  C  C231  1  0.371000  0.290600  0.007700  1.0
  C  C232  1  0.629000  0.709400  0.992300  1.0
  C  C233  1  0.349200  0.216800  0.999800  1.0
  C  C234  1  0.650800  0.783200  0.000200  1.0
  C  C235  1  0.221100  0.195200  0.015900  1.0
  C  C236  1  0.778900  0.804800  0.984100  1.0
  C  C237  1  0.197000  0.125300  0.009300  1.0
  C  C238  1  0.803000  0.874700  0.990700  1.0
  C  C239  1  0.303000  0.076500  0.986200  1.0
  C  C240  1  0.697000  0.923500  0.013800  1.0
  C  C241  1  0.427000  0.095000  0.966300  1.0
  C  C242  1  0.573000  0.905000  0.033700  1.0
  C  C243  1  0.453000  0.165700  0.976100  1.0
  C  C244  1  0.547000  0.834300  0.023900  1.0
  C  C245  1  0.197500  0.574800  0.987700  1.0
  C  C246  1  0.802500  0.425200  0.012300  1.0
  C  C247  1  0.170500  0.472500  0.939100  1.0
  C  C248  1  0.829500  0.527500  0.060900  1.0
  C  C249  1  0.734000  0.828400  0.347800  1.0
  C  C250  1  0.266000  0.171600  0.652200  1.0
  C  C251  1  0.801800  0.869000  0.380700  1.0
  C  C252  1  0.198200  0.131000  0.619300  1.0
  C  C253  1  0.899800  0.819700  0.420600  1.0
  C  C254  1  0.100200  0.180300  0.579400  1.0
  C  C255  1  0.920600  0.743100  0.429000  1.0
  C  C256  1  0.079400  0.256900  0.571000  1.0
  C  C257  1  0.851500  0.709800  0.395500  1.0
  C  C258  1  0.148500  0.290200  0.604500  1.0
  C  C259  1  0.778800  0.950100  0.375900  1.0
  C  C260  1  0.221200  0.049900  0.624100  1.0
  C  C261  1  0.854400  0.983300  0.407600  1.0
  C  C262  1  0.145600  0.016700  0.592400  1.0
  C  C263  1  0.959100  0.934600  0.445100  1.0
  C  C264  1  0.040900  0.065400  0.554900  1.0
  C  C265  1  0.981800  0.860100  0.452300  1.0
  C  C266  1  0.018200  0.139900  0.547700  1.0
  C  C267  1  0.676100  0.000200  0.339400  1.0
  C  C268  1  0.323900  0.999800  0.660600  1.0
  C  C269  1  0.649200  0.077000  0.336500  1.0
  C  C270  1  0.350800  0.923000  0.663500  1.0
  C  C271  1  0.732200  0.106000  0.369600  1.0
  C  C272  1  0.267800  0.894000  0.630400  1.0
  C  C273  1  0.829800  0.059000  0.405200  1.0
  C  C274  1  0.170200  0.941000  0.594800  1.0
  C  C275  1  0.829000  0.136000  0.205400  1.0
  C  C276  1  0.171000  0.864000  0.794600  1.0
  C  C277  1  0.919000  0.135000  0.139600  1.0
  C  C278  1  0.081000  0.865000  0.860400  1.0
  C  C279  1  0.173000  0.135400  0.372900  1.0
  C  C280  1  0.827000  0.864600  0.627100  1.0
  C  C281  1  0.115000  0.222000  0.362000  1.0
  C  C282  1  0.885000  0.778000  0.638000  1.0
  C  C283  1  0.361000  0.194000  0.433000  1.0
  C  C284  1  0.639000  0.806000  0.567000  1.0
  C  C285  1  0.416000  0.254000  0.421000  1.0
  C  C286  1  0.584000  0.746000  0.579000  1.0
  C  C287  1  0.383000  0.040100  0.439900  1.0
  C  C288  1  0.617000  0.959900  0.560100  1.0
  C  C289  1  0.357000  0.973300  0.417700  1.0
  C  C290  1  0.643000  0.026700  0.582300  1.0
  C  C291  1  0.268300  0.194100  0.206600  1.0
  C  C292  1  0.731700  0.805900  0.793400  1.0
  C  C293  1  0.166100  0.239500  0.171900  1.0
  C  C294  1  0.833900  0.760500  0.828100  1.0
  C  C295  1  0.142900  0.317100  0.166000  1.0
  C  C296  1  0.857100  0.682900  0.834000  1.0
  C  C297  1  0.227100  0.345500  0.197200  1.0
  C  C298  1  0.772900  0.654500  0.802800  1.0
  C  C299  1  0.321100  0.299000  0.231200  1.0
  C  C300  1  0.678900  0.701000  0.768800  1.0
  C  C301  1  0.043400  0.363100  0.128800  1.0
  C  C302  1  0.956600  0.636900  0.871200  1.0
  C  C303  1  0.041000  0.597800  0.904700  1.0
  C  C304  1  0.959000  0.402200  0.095300  1.0
  C  C305  1  0.731000  0.292000  0.207000  1.0
  C  C306  1  0.269000  0.708000  0.793000  1.0
  C  C307  1  0.640000  0.264000  0.148000  1.0
  C  C308  1  0.360000  0.736000  0.852000  1.0
  C  C309  1  0.587000  0.137000  0.120000  1.0
  C  C310  1  0.413000  0.863000  0.880000  1.0
  C  C311  1  0.585000  0.051000  0.148200  1.0
  C  C312  1  0.415000  0.949000  0.851800  1.0
  N  N313  1  0.426000  0.426600  0.324100  1
  N  N314  1  0.574000  0.573400  0.675900  1
  N  N315  1  0.195000  0.834000  0.042700  1
  N  N316  1  0.805000  0.166000  0.957300  1
  N  N317  1  0.585900  0.655200  0.235000  1.0
  N  N318  1  0.414100  0.344800  0.765000  1.0
  N  N319  1  0.346000  0.223200  0.236800  1.0
  N  N320  1  0.654000  0.776800  0.763200  1.0
  O  O321  1  0.512000  0.386700  0.294100  1
  O  O322  1  0.488000  0.613300  0.705900  1
  O  O323  1  0.440000  0.449400  0.373300  1
  O  O324  1  0.560000  0.550600  0.626700  1
  O  O325  1  0.319000  0.442600  0.300800  1
  O  O326  1  0.681000  0.557400  0.699200  1
  O  O327  1  0.155000  0.897000  0.033000  1
  O  O328  1  0.845000  0.103000  0.967000  1
  O  O329  1  0.206800  0.823400  0.100400  1
  O  O330  1  0.793200  0.176600  0.899600  1
  O  O331  1  0.250000  0.767000  0.018700  1
  O  O332  1  0.750000  0.233000  0.981300  1
  O  O333  1  0.287100  0.349000  0.966900  1.0
  O  O334  1  0.712900  0.651000  0.033100  1.0
