# generated using pymatgen
data_P4H87Pt2C82N2(Cl2O5)2
_symmetry_space_group_name_H-M   'P 1'
_cell_length_a   14.11100000
_cell_length_b   14.34800000
_cell_length_c   26.47600000
_cell_angle_alpha   79.70500000
_cell_angle_beta   78.90100000
_cell_angle_gamma   76.46800000
_symmetry_Int_Tables_number   1
_chemical_formula_structural   P4H87Pt2C82N2(Cl2O5)2
_chemical_formula_sum   'P8 H174 Pt4 C164 N4 Cl8 O20'
_cell_volume   5063.71925095
_cell_formula_units_Z   2
loop_
 _symmetry_equiv_pos_site_id
 _symmetry_equiv_pos_as_xyz
  1  'x, y, z'
loop_
 _atom_site_type_symbol
 _atom_site_label
 _atom_site_symmetry_multiplicity
 _atom_site_fract_x
 _atom_site_fract_y
 _atom_site_fract_z
 _atom_site_occupancy
  P  P1  1  0.555600  0.801400  0.138460  1.0
  P  P2  1  0.444400  0.198600  0.861540  1.0
  P  P3  1  0.294000  0.228300  0.318300  1.0
  P  P4  1  0.706000  0.771700  0.681700  1.0
  P  P5  1  0.252700  0.719700  0.161730  1.0
  P  P6  1  0.747300  0.280300  0.838270  1.0
  P  P7  1  0.026900  0.083200  0.348390  1.0
  P  P8  1  0.973100  0.916800  0.651610  1.0
  H  H9  1  0.365300  0.241100  0.083500  1
  H  H10  1  0.634700  0.758900  0.916500  1
  H  H11  1  0.442600  0.309300  0.064800  1
  H  H12  1  0.557400  0.690700  0.935200  1
  H  H13  1  0.852400  0.078400  0.031700  1.0
  H  H14  1  0.147600  0.921600  0.968300  1.0
  H  H15  1  0.986200  0.134700  0.141200  1.0
  H  H16  1  0.013800  0.865300  0.858800  1.0
  H  H17  1  0.840700  0.247600  0.167100  1.0
  H  H18  1  0.159300  0.752400  0.832900  1.0
  H  H19  1  0.713900  0.186900  0.057600  1.0
  H  H20  1  0.286100  0.813100  0.942400  1.0
  H  H21  1  0.704200  0.270500  0.125400  1.0
  H  H22  1  0.295800  0.729500  0.874600  1.0
  H  H23  1  0.542000  0.932100  0.074200  1.0
  H  H24  1  0.458000  0.067900  0.925800  1.0
  H  H25  1  0.514300  0.967400  0.128800  1.0
  H  H26  1  0.485700  0.032600  0.871200  1.0
  H  H27  1  0.688100  0.929300  0.133500  1.0
  H  H28  1  0.311900  0.070700  0.866500  1.0
  H  H29  1  0.655100  0.017700  0.091900  1.0
  H  H30  1  0.344900  0.982300  0.908100  1.0
  H  H31  1  0.706100  0.916600  0.074600  1.0
  H  H32  1  0.293900  0.083400  0.925400  1.0
  H  H33  1  0.609000  0.719100  0.215600  1.0
  H  H34  1  0.391000  0.280900  0.784400  1.0
  H  H35  1  0.670800  0.798400  0.191500  1.0
  H  H36  1  0.329200  0.201600  0.808500  1.0
  H  H37  1  0.714200  0.740400  0.095400  1.0
  H  H38  1  0.285800  0.259600  0.904600  1.0
  H  H39  1  0.655300  0.656700  0.112500  1.0
  H  H40  1  0.344700  0.343300  0.887500  1.0
  H  H41  1  0.557500  0.727000  0.043600  1.0
  H  H42  1  0.442500  0.273000  0.956400  1.0
  H  H43  1  0.669200  0.696200  0.020400  1.0
  H  H44  1  0.330800  0.303800  0.979600  1.0
  H  H45  1  0.622700  0.805300  0.025400  1.0
  H  H46  1  0.377300  0.194700  0.974600  1.0
  H  H47  1  0.293500  0.554700  0.155800  1.0
  H  H48  1  0.706500  0.445300  0.844200  1.0
  H  H49  1  0.276600  0.570100  0.214100  1.0
  H  H50  1  0.723400  0.429900  0.785900  1.0
  H  H51  1  0.106900  0.593100  0.218800  1.0
  H  H52  1  0.893100  0.406900  0.781200  1.0
  H  H53  1  0.155500  0.495900  0.196400  1.0
  H  H54  1  0.844500  0.504100  0.803600  1.0
  H  H55  1  0.118500  0.589700  0.159000  1.0
  H  H56  1  0.881500  0.410300  0.841000  1.0
  H  H57  1  0.134600  0.733200  0.112200  1.0
  H  H58  1  0.865400  0.266800  0.887800  1.0
  H  H59  1  0.186600  0.821300  0.095700  1.0
  H  H60  1  0.813400  0.178700  0.904300  1.0
  H  H61  1  0.111000  0.299900  0.082300  1.0
  H  H62  1  0.889000  0.700100  0.917700  1.0
  H  H63  1  0.371800  0.876000  0.047600  1.0
  H  H64  1  0.628200  0.124000  0.952400  1.0
  H  H65  1  0.192800  0.189400  0.028600  1.0
  H  H66  1  0.807200  0.810600  0.971400  1.0
  H  H67  1  0.296400  0.030400  0.014700  1.0
  H  H68  1  0.703600  0.969600  0.985300  1.0
  H  H69  1  0.500900  0.567700  0.109700  1.0
  H  H70  1  0.499100  0.432300  0.890300  1.0
  H  H71  1  0.663500  0.166500  0.344500  1.0
  H  H72  1  0.336500  0.833500  0.655500  1.0
  H  H73  1  0.687400  0.096400  0.200800  1.0
  H  H74  1  0.312600  0.903600  0.799200  1.0
  H  H75  1  0.524300  0.479000  0.283700  1.0
  H  H76  1  0.475700  0.521000  0.716300  1.0
  H  H77  1  0.775200  0.890600  0.317700  1.0
  H  H78  1  0.224800  0.109400  0.682300  1.0
  H  H79  1  0.457100  0.635100  0.251100  1.0
  H  H80  1  0.542900  0.364900  0.748900  1.0
  H  H81  1  0.567600  0.410800  0.137500  1.0
  H  H82  1  0.432400  0.589200  0.862500  1.0
  H  H83  1  0.865000  0.815600  0.474000  1.0
  H  H84  1  0.135000  0.184400  0.526000  1.0
  H  H85  1  0.809300  0.783800  0.243800  1.0
  H  H86  1  0.190700  0.216200  0.756200  1.0
  H  H87  1  0.884200  0.849900  0.244000  1.0
  H  H88  1  0.115800  0.150100  0.756000  1.0
  H  H89  1  0.982400  0.787600  0.032700  1.0
  H  H90  1  0.017600  0.212400  0.967300  1.0
  H  H91  1  0.853400  0.685900  0.175100  1.0
  H  H92  1  0.146600  0.314100  0.824900  1.0
  H  H93  1  0.931500  0.943300  0.151300  1.0
  H  H94  1  0.068500  0.056700  0.848700  1.0
  H  H95  1  0.068400  0.054300  0.042000  1.0
  H  H96  1  0.931600  0.945700  0.958000  1.0
  H  H97  1  0.059800  0.999400  0.098800  1.0
  H  H98  1  0.940200  0.000600  0.901200  1.0
  H  H99  1  0.921900  0.683800  0.010200  1.0
  H  H100  1  0.078100  0.316200  0.989800  1.0
  H  H101  1  0.904000  0.577900  0.026100  1.0
  H  H102  1  0.096000  0.422100  0.973900  1.0
  H  H103  1  0.051300  0.501700  0.093900  1.0
  H  H104  1  0.948700  0.498300  0.906100  1.0
  H  H105  1  0.077700  0.656900  0.953300  1.0
  H  H106  1  0.922300  0.343100  0.046700  1.0
  H  H107  1  0.243900  0.579700  0.936500  1.0
  H  H108  1  0.756100  0.420300  0.063500  1.0
  H  H109  1  0.314400  0.468200  0.003500  1.0
  H  H110  1  0.685600  0.531800  0.996500  1.0
  H  H111  1  0.214200  0.430800  0.078700  1.0
  H  H112  1  0.785800  0.569200  0.921300  1.0
  H  H113  1  0.063600  0.314900  0.257500  1.0
  H  H114  1  0.936400  0.685100  0.742500  1.0
  H  H115  1  0.241500  0.056700  0.240600  1.0
  H  H116  1  0.758500  0.943300  0.759400  1.0
  H  H117  1  0.062600  0.345400  0.169200  1.0
  H  H118  1  0.937400  0.654600  0.830800  1.0
  H  H119  1  0.267200  0.983700  0.401300  1.0
  H  H120  1  0.732800  0.016300  0.598700  1.0
  H  H121  1  0.698500  0.068000  0.514900  1.0
  H  H122  1  0.301500  0.932000  0.485100  1.0
  H  H123  1  0.896400  0.770100  0.559400  1.0
  H  H124  1  0.103600  0.229900  0.440600  1.0
  H  H125  1  0.323200  0.381600  0.279100  1.0
  H  H126  1  0.676800  0.618400  0.720900  1.0
  H  H127  1  0.244600  0.354600  0.252800  1.0
  H  H128  1  0.755400  0.645400  0.747200  1.0
  H  H129  1  0.286500  0.277300  0.398800  1.0
  H  H130  1  0.713500  0.722700  0.601200  1.0
  H  H131  1  0.361700  0.178700  0.395000  1.0
  H  H132  1  0.638300  0.821300  0.605000  1.0
  H  H133  1  0.548100  0.916300  0.224200  1.0
  H  H134  1  0.451900  0.083700  0.775800  1.0
  H  H135  1  0.568400  0.832100  0.269900  1.0
  H  H136  1  0.431600  0.167900  0.730100  1.0
  H  H137  1  0.476400  0.844000  0.242500  1.0
  H  H138  1  0.523600  0.156000  0.757500  1.0
  H  H139  1  0.286000  0.758600  0.046800  1.0
  H  H140  1  0.714000  0.241400  0.953200  1.0
  H  H141  1  0.199000  0.708700  0.045600  1.0
  H  H142  1  0.801000  0.291300  0.954400  1.0
  H  H143  1  0.283900  0.654600  0.077200  1.0
  H  H144  1  0.716100  0.345400  0.922800  1.0
  H  H145  1  0.154500  0.851000  0.199400  1.0
  H  H146  1  0.845500  0.149000  0.800600  1.0
  H  H147  1  0.097700  0.765600  0.209600  1.0
  H  H148  1  0.902300  0.234400  0.790400  1.0
  H  H149  1  0.305000  0.947200  0.191000  1.0
  H  H150  1  0.695000  0.052800  0.809000  1.0
  H  H151  1  0.379700  0.165800  0.244200  1.0
  H  H152  1  0.620300  0.834200  0.755800  1.0
  H  H153  1  0.450200  0.205800  0.270100  1.0
  H  H154  1  0.549800  0.794200  0.729900  1.0
  H  H155  1  0.476400  0.259200  0.344600  1.0
  H  H156  1  0.523600  0.740800  0.655400  1.0
  H  H157  1  0.441900  0.294300  0.399200  1.0
  H  H158  1  0.558100  0.705700  0.600800  1.0
  H  H159  1  0.401000  0.357600  0.350300  1.0
  H  H160  1  0.599000  0.642400  0.649700  1.0
  H  H161  1  0.127700  0.385100  0.327900  1.0
  H  H162  1  0.872300  0.614900  0.672100  1.0
  H  H163  1  0.165400  0.478100  0.299100  1.0
  H  H164  1  0.834600  0.521900  0.700900  1.0
  H  H165  1  0.206500  0.421500  0.349400  1.0
  H  H166  1  0.793500  0.578500  0.650600  1.0
  H  H167  1  0.900700  0.118700  0.276100  1.0
  H  H168  1  0.099300  0.881300  0.723900  1.0
  H  H169  1  0.948500  0.046200  0.235900  1.0
  H  H170  1  0.051500  0.953800  0.764100  1.0
  H  H171  1  0.003400  0.125800  0.242000  1.0
  H  H172  1  0.996600  0.874200  0.758000  1.0
  H  H173  1  0.172000  0.691100  0.277400  1.0
  H  H174  1  0.828000  0.308900  0.722600  1.0
  H  H175  1  0.167800  0.799100  0.282800  1.0
  H  H176  1  0.832200  0.200900  0.717200  1.0
  H  H177  1  0.265500  0.736400  0.256800  1.0
  H  H178  1  0.734500  0.263600  0.743200  1.0
  H  H179  1  0.985400  0.951400  0.328600  1.0
  H  H180  1  0.014600  0.048600  0.671400  1.0
  H  H181  1  0.089500  0.965700  0.296400  1.0
  H  H182  1  0.910500  0.034300  0.703600  1.0
  Pt  Pt183  1  0.163620  0.151380  0.334839  1.0
  Pt  Pt184  1  0.836380  0.848620  0.665161  1.0
  Pt  Pt185  1  0.404940  0.758310  0.150860  1.0
  Pt  Pt186  1  0.595060  0.241690  0.849140  1.0
  C  C187  1  0.740000  0.565600  0.243300  1
  C  C188  1  0.260000  0.434400  0.756700  1
  C  C189  1  0.413300  0.269000  0.094300  1
  C  C190  1  0.586700  0.731000  0.905700  1
  C  C191  1  0.470700  0.615200  0.178000  1.0
  C  C192  1  0.529300  0.384800  0.822000  1.0
  C  C193  1  0.932800  0.095400  0.084800  1.0
  C  C194  1  0.067200  0.904600  0.915200  1.0
  C  C195  1  0.850200  0.111800  0.059100  1.0
  C  C196  1  0.149800  0.888200  0.940900  1.0
  C  C197  1  0.931400  0.145000  0.124700  1.0
  C  C198  1  0.068600  0.855000  0.875300  1.0
  C  C199  1  0.843600  0.212800  0.140100  1.0
  C  C200  1  0.156400  0.787200  0.859900  1.0
  C  C201  1  0.768000  0.176400  0.074700  1.0
  C  C202  1  0.232000  0.823600  0.925300  1.0
  C  C203  1  0.762000  0.227200  0.115000  1.0
  C  C204  1  0.238000  0.772800  0.885000  1.0
  C  C205  1  0.561800  0.922700  0.108200  1.0
  C  C206  1  0.438200  0.077300  0.891800  1.0
  C  C207  1  0.662000  0.949000  0.101400  1.0
  C  C208  1  0.338000  0.051000  0.898600  1.0
  C  C209  1  0.604500  0.785900  0.199400  1.0
  C  C210  1  0.395500  0.214100  0.800600  1.0
  C  C211  1  0.650600  0.724000  0.097400  1.0
  C  C212  1  0.349400  0.276000  0.902600  1.0
  C  C213  1  0.622200  0.739700  0.041200  1.0
  C  C214  1  0.377800  0.260300  0.958800  1.0
  C  C215  1  0.250000  0.591100  0.181800  1.0
  C  C216  1  0.750000  0.408900  0.818200  1.0
  C  C217  1  0.148200  0.565000  0.189800  1.0
  C  C218  1  0.851800  0.435000  0.810200  1.0
  C  C219  1  0.198500  0.751400  0.104500  1.0
  C  C220  1  0.801500  0.248600  0.895500  1.0
  C  C221  1  0.340500  0.894000  0.123600  1.0
  C  C222  1  0.659500  0.106000  0.876400  1.0
  C  C223  1  0.200600  0.130800  0.172100  1.0
  C  C224  1  0.799400  0.869200  0.827900  1.0
  C  C225  1  0.249000  0.058300  0.137900  1.0
  C  C226  1  0.751000  0.941700  0.862100  1.0
  C  C227  1  0.145500  0.240300  0.096200  1.0
  C  C228  1  0.854500  0.759700  0.903800  1.0
  C  C229  1  0.147200  0.219600  0.150600  1.0
  C  C230  1  0.852800  0.780400  0.849400  1.0
  C  C231  1  0.340700  0.920600  0.070200  1.0
  C  C232  1  0.659300  0.079400  0.929800  1.0
  C  C233  1  0.193900  0.173900  0.064200  1.0
  C  C234  1  0.806100  0.826100  0.935800  1.0
  C  C235  1  0.245700  0.082100  0.083700  1.0
  C  C236  1  0.754300  0.917900  0.916300  1.0
  C  C237  1  0.294700  0.013500  0.050400  1.0
  C  C238  1  0.705300  0.986500  0.949600  1.0
  C  C239  1  0.505100  0.548700  0.144800  1.0
  C  C240  1  0.494900  0.451300  0.855200  1.0
  C  C241  1  0.681800  0.120600  0.321800  1.0
  C  C242  1  0.318200  0.879400  0.678200  1.0
  C  C243  1  0.735900  0.983200  0.253700  1.0
  C  C244  1  0.264100  0.016800  0.746300  1.0
  C  C245  1  0.696100  0.079200  0.235500  1.0
  C  C246  1  0.303900  0.920800  0.764500  1.0
  C  C247  1  0.720900  0.025200  0.339000  1.0
  C  C248  1  0.279100  0.974800  0.661000  1.0
  C  C249  1  0.519800  0.495100  0.248500  1.0
  C  C250  1  0.480200  0.504900  0.751500  1.0
  C  C251  1  0.748800  0.954600  0.305600  1.0
  C  C252  1  0.251200  0.045400  0.694400  1.0
  C  C253  1  0.479200  0.588700  0.228700  1.0
  C  C254  1  0.520800  0.411300  0.771300  1.0
  C  C255  1  0.669800  0.147700  0.267900  1.0
  C  C256  1  0.330200  0.852300  0.732100  1.0
  C  C257  1  0.545600  0.454800  0.161300  1.0
  C  C258  1  0.454400  0.545200  0.838700  1.0
  C  C259  1  0.554300  0.424000  0.214700  1.0
  C  C260  1  0.445700  0.576000  0.785300  1.0
  C  C261  1  0.596400  0.328400  0.233800  1.0
  C  C262  1  0.403600  0.671600  0.766200  1.0
  C  C263  1  0.631800  0.245700  0.249800  1.0
  C  C264  1  0.368200  0.754300  0.750200  1.0
  C  C265  1  0.734800  0.996900  0.391900  1.0
  C  C266  1  0.265200  0.003100  0.608100  1.0
  C  C267  1  0.836300  0.856100  0.499000  1.0
  C  C268  1  0.163700  0.143900  0.501000  1.0
  C  C269  1  0.752400  0.972300  0.434200  1.0
  C  C270  1  0.247600  0.027700  0.565800  1.0
  C  C271  1  0.773000  0.944800  0.486200  1.0
  C  C272  1  0.227000  0.055200  0.513800  1.0
  C  C273  1  0.837200  0.838000  0.224700  1.0
  C  C274  1  0.162800  0.162000  0.775300  1.0
  C  C275  1  0.958800  0.794400  0.067400  1.0
  C  C276  1  0.041200  0.205600  0.932600  1.0
  C  C277  1  0.915600  0.722200  0.101500  1.0
  C  C278  1  0.084400  0.277800  0.898500  1.0
  C  C279  1  0.965200  0.877300  0.087800  1.0
  C  C280  1  0.034800  0.122700  0.912200  1.0
  C  C281  1  0.886800  0.817600  0.170400  1.0
  C  C282  1  0.113200  0.182400  0.829600  1.0
  C  C283  1  0.880800  0.733700  0.152600  1.0
  C  C284  1  0.119200  0.266300  0.847400  1.0
  C  C285  1  0.928300  0.888000  0.138500  1.0
  C  C286  1  0.071700  0.112000  0.861500  1.0
  C  C287  1  0.025400  0.022200  0.069100  1.0
  C  C288  1  0.974600  0.977800  0.930900  1.0
  C  C289  1  0.937800  0.624200  0.033600  1.0
  C  C290  1  0.062200  0.375800  0.966400  1.0
  C  C291  1  0.049100  0.584700  0.024100  1.0
  C  C292  1  0.950900  0.415300  0.975900  1.0
  C  C293  1  0.089700  0.518100  0.062200  1.0
  C  C294  1  0.910300  0.481900  0.937800  1.0
  C  C295  1  0.105500  0.609800  0.978300  1.0
  C  C296  1  0.894500  0.390200  0.021700  1.0
  C  C297  1  0.205800  0.565100  0.968500  1.0
  C  C298  1  0.794200  0.434900  0.031500  1.0
  C  C299  1  0.247700  0.497300  0.008100  1.0
  C  C300  1  0.752300  0.502700  0.991900  1.0
  C  C301  1  0.187500  0.476400  0.052800  1.0
  C  C302  1  0.812500  0.523600  0.947200  1.0
  C  C303  1  0.099400  0.269200  0.236400  1.0
  C  C304  1  0.900600  0.730800  0.763600  1.0
  C  C305  1  0.204500  0.114500  0.226400  1.0
  C  C306  1  0.795500  0.885500  0.773600  1.0
  C  C307  1  0.098000  0.286500  0.183300  1.0
  C  C308  1  0.902000  0.713500  0.816700  1.0
  C  C309  1  0.155200  0.181800  0.258100  1.0
  C  C310  1  0.844800  0.818200  0.741900  1.0
  C  C311  1  0.241400  0.024400  0.426400  1.0
  C  C312  1  0.758600  0.975600  0.573600  1.0
  C  C313  1  0.736600  0.006900  0.523300  1.0
  C  C314  1  0.263400  0.993100  0.476700  1.0
  C  C315  1  0.855500  0.829400  0.550500  1.0
  C  C316  1  0.144500  0.170600  0.449500  1.0
  C  C317  1  0.264600  0.354200  0.285900  1.0
  C  C318  1  0.735400  0.645800  0.714100  1.0
  C  C319  1  0.340800  0.242500  0.376300  1.0
  C  C320  1  0.659200  0.757500  0.623700  1.0
  C  C321  1  0.543900  0.850300  0.237400  1.0
  C  C322  1  0.456100  0.149700  0.762600  1.0
  C  C323  1  0.244000  0.717000  0.066600  1.0
  C  C324  1  0.756000  0.283000  0.933400  1.0
  C  C325  1  0.161200  0.781500  0.208700  1.0
  C  C326  1  0.838800  0.218500  0.791300  1.0
  C  C327  1  0.299600  0.963100  0.155900  1.0
  C  C328  1  0.700400  0.036900  0.844100  1.0
  C  C329  1  0.398800  0.168500  0.277100  1.0
  C  C330  1  0.601200  0.831500  0.722900  1.0
  C  C331  1  0.421900  0.292600  0.366800  1.0
  C  C332  1  0.578100  0.707400  0.633200  1.0
  C  C333  1  0.183800  0.415200  0.318500  1.0
  C  C334  1  0.816200  0.584800  0.681500  1.0
  C  C335  1  0.438800  0.067800  0.301400  1.0
  C  C336  1  0.561200  0.932200  0.698600  1.0
  C  C337  1  0.917000  0.183000  0.354000  1.0
  C  C338  1  0.083000  0.817000  0.646000  1.0
  C  C339  1  0.962000  0.082000  0.260100  1.0
  C  C340  1  0.038000  0.918000  0.739900  1.0
  C  C341  1  0.992000  0.026000  0.414400  1.0
  C  C342  1  0.008000  0.974000  0.585600  1.0
  C  C343  1  0.195000  0.749000  0.261300  1.0
  C  C344  1  0.805000  0.251000  0.738700  1.0
  C  C345  1  0.916000  0.174000  0.410000  1.0
  C  C346  1  0.084000  0.826000  0.590000  1.0
  C  C347  1  0.024000  0.999000  0.310000  1.0
  C  C348  1  0.976000  0.001000  0.690000  1.0
  C  C349  1  0.048000  0.938000  0.402000  1.0
  C  C350  1  0.952000  0.062000  0.598000  1.0
  N  N351  1  0.663000  0.691000  0.311000  1
  N  N352  1  0.337000  0.309000  0.689000  1
  N  N353  1  0.184000  0.112000  0.413000  1.0
  N  N354  1  0.816000  0.888000  0.587000  1.0
  Cl  Cl355  1  0.809600  0.476400  0.187100  1
  Cl  Cl356  1  0.190400  0.523600  0.812900  1
  Cl  Cl357  1  0.880000  0.507100  0.255900  1
  Cl  Cl358  1  0.120000  0.492900  0.744100  1
  Cl  Cl359  1  0.358800  0.335900  0.148100  1
  Cl  Cl360  1  0.641200  0.664100  0.851900  1
  Cl  Cl361  1  0.502500  0.180100  0.122200  1
  Cl  Cl362  1  0.497500  0.819900  0.877800  1
  O  O363  1  0.534900  0.863900  0.405000  1
  O  O364  1  0.465100  0.136100  0.595000  1
  O  O365  1  0.497300  0.015000  0.438700  1
  O  O366  1  0.502700  0.985000  0.561300  1
  O  O367  1  0.510000  0.856000  0.511200  1
  O  O368  1  0.490000  0.144000  0.488800  1
  O  O369  1  0.333900  0.812500  0.389200  1
  O  O370  1  0.666100  0.187500  0.610800  1
  O  O371  1  0.384000  0.721000  0.324900  1
  O  O372  1  0.616000  0.279000  0.675100  1
  O  O373  1  0.329000  0.761000  0.529000  1
  O  O374  1  0.671000  0.239000  0.471000  1
  O  O375  1  0.310000  0.855000  0.328900  1
  O  O376  1  0.690000  0.145000  0.671100  1
  O  O377  1  0.762300  0.921300  0.217100  1.0
  O  O378  1  0.237700  0.078700  0.782900  1.0
  O  O379  1  0.008800  0.941100  0.051100  1.0
  O  O380  1  0.991200  0.058900  0.948900  1.0
  O  O381  1  0.903200  0.642500  0.086300  1.0
  O  O382  1  0.096800  0.357500  0.913700  1.0
