# generated using pymatgen
data_FeCoP3H32C45N12Cl3(O2F11)2
_symmetry_space_group_name_H-M   'P 1'
_cell_length_a   14.73500000
_cell_length_b   15.42900000
_cell_length_c   25.42100000
_cell_angle_alpha   90.00000000
_cell_angle_beta   95.42000000
_cell_angle_gamma   90.00000000
_symmetry_Int_Tables_number   1
_chemical_formula_structural   FeCoP3H32C45N12Cl3(O2F11)2
_chemical_formula_sum   'Fe4 Co4 P12 H128 C180 N48 Cl12 O16 F88'
_cell_volume   5753.53141914
_cell_formula_units_Z   4
loop_
 _symmetry_equiv_pos_site_id
 _symmetry_equiv_pos_as_xyz
  1  'x, y, z'
loop_
 _atom_site_type_symbol
 _atom_site_label
 _atom_site_symmetry_multiplicity
 _atom_site_fract_x
 _atom_site_fract_y
 _atom_site_fract_z
 _atom_site_occupancy
  Fe  Fe1  1  0.396520  0.305140  0.458160  1.0
  Fe  Fe2  1  0.896520  0.194860  0.958160  1.0
  Fe  Fe3  1  0.603480  0.694860  0.541840  1.0
  Fe  Fe4  1  0.103480  0.805140  0.041840  1.0
  Co  Co5  1  0.426020  0.471440  0.623940  1.0
  Co  Co6  1  0.926020  0.028560  0.123940  1.0
  Co  Co7  1  0.573980  0.528560  0.376060  1.0
  Co  Co8  1  0.073980  0.971440  0.876060  1.0
  P  P9  1  0.256800  0.452800  0.803250  1
  P  P10  1  0.756800  0.047200  0.303250  1
  P  P11  1  0.743200  0.547200  0.196750  1
  P  P12  1  0.243200  0.952800  0.696750  1
  P  P13  1  0.763500  0.554200  0.737410  1
  P  P14  1  0.263500  0.945800  0.237410  1
  P  P15  1  0.236500  0.445800  0.262590  1
  P  P16  1  0.736500  0.054200  0.762590  1
  P  P17  1  0.921600  0.279200  0.592590  1
  P  P18  1  0.421600  0.220800  0.092590  1
  P  P19  1  0.078400  0.720800  0.407410  1
  P  P20  1  0.578400  0.779200  0.907410  1
  H  H21  1  0.286100  0.512000  0.532200  1.0
  H  H22  1  0.786100  0.988000  0.032200  1.0
  H  H23  1  0.713900  0.488000  0.467800  1.0
  H  H24  1  0.213900  0.012000  0.967800  1.0
  H  H25  1  0.173400  0.609400  0.513400  1.0
  H  H26  1  0.673400  0.890600  0.013400  1.0
  H  H27  1  0.826600  0.390600  0.486600  1.0
  H  H28  1  0.326600  0.109400  0.986600  1.0
  H  H29  1  0.156900  0.721200  0.572600  1.0
  H  H30  1  0.656900  0.778800  0.072600  1.0
  H  H31  1  0.843100  0.278800  0.427400  1.0
  H  H32  1  0.343100  0.221200  0.927400  1.0
  H  H33  1  0.244400  0.723900  0.651800  1.0
  H  H34  1  0.744400  0.776100  0.151800  1.0
  H  H35  1  0.755600  0.276100  0.348200  1.0
  H  H36  1  0.255600  0.223900  0.848200  1.0
  H  H37  1  0.357800  0.723300  0.722800  1.0
  H  H38  1  0.857800  0.776700  0.222800  1.0
  H  H39  1  0.642200  0.276700  0.277200  1.0
  H  H40  1  0.142200  0.223300  0.777200  1.0
  H  H41  1  0.461600  0.705300  0.792200  1.0
  H  H42  1  0.961600  0.794700  0.292200  1.0
  H  H43  1  0.538400  0.294700  0.207800  1.0
  H  H44  1  0.038400  0.205300  0.707800  1.0
  H  H45  1  0.549700  0.582900  0.798600  1.0
  H  H46  1  0.049700  0.917100  0.298600  1.0
  H  H47  1  0.450300  0.417100  0.201400  1.0
  H  H48  1  0.950300  0.082900  0.701400  1.0
  H  H49  1  0.528000  0.476800  0.732200  1.0
  H  H50  1  0.028000  0.023200  0.232200  1.0
  H  H51  1  0.472000  0.523200  0.267800  1.0
  H  H52  1  0.972000  0.976800  0.767800  1.0
  H  H53  1  0.226300  0.444500  0.639000  1.0
  H  H54  1  0.726300  0.055500  0.139000  1.0
  H  H55  1  0.773700  0.555500  0.361000  1.0
  H  H56  1  0.273700  0.944500  0.861000  1.0
  H  H57  1  0.136600  0.328300  0.655200  1.0
  H  H58  1  0.636600  0.171700  0.155200  1.0
  H  H59  1  0.863400  0.671700  0.344800  1.0
  H  H60  1  0.363400  0.828300  0.844800  1.0
  H  H61  1  0.202500  0.196400  0.671200  1.0
  H  H62  1  0.702500  0.303600  0.171200  1.0
  H  H63  1  0.797500  0.803600  0.328800  1.0
  H  H64  1  0.297500  0.696400  0.828800  1.0
  H  H65  1  0.358200  0.184100  0.682400  1.0
  H  H66  1  0.858200  0.315900  0.182400  1.0
  H  H67  1  0.641800  0.815900  0.317600  1.0
  H  H68  1  0.141800  0.684100  0.817600  1.0
  H  H69  1  0.514800  0.186900  0.681700  1.0
  H  H70  1  0.014800  0.313100  0.181700  1.0
  H  H71  1  0.485200  0.813100  0.318300  1.0
  H  H72  1  0.985200  0.686900  0.818300  1.0
  H  H73  1  0.668900  0.203800  0.683400  1.0
  H  H74  1  0.168900  0.296200  0.183400  1.0
  H  H75  1  0.331100  0.796200  0.316600  1.0
  H  H76  1  0.831100  0.703800  0.816600  1.0
  H  H77  1  0.726600  0.333333  0.657600  1.0
  H  H78  1  0.226600  0.166667  0.157600  1.0
  H  H79  1  0.273400  0.666667  0.342400  1.0
  H  H80  1  0.773400  0.833333  0.842400  1.0
  H  H81  1  0.629200  0.447700  0.638100  1.0
  H  H82  1  0.129200  0.052300  0.138100  1.0
  H  H83  1  0.370800  0.552300  0.361900  1.0
  H  H84  1  0.870800  0.947700  0.861900  1.0
  H  H85  1  0.439300  0.134800  0.516900  1.0
  H  H86  1  0.939300  0.365200  0.016900  1.0
  H  H87  1  0.560700  0.865200  0.483100  1.0
  H  H88  1  0.060700  0.634800  0.983100  1.0
  H  H89  1  0.361500  0.036800  0.565200  1.0
  H  H90  1  0.861500  0.463200  0.065200  1.0
  H  H91  1  0.638500  0.963200  0.434800  1.0
  H  H92  1  0.138500  0.536800  0.934800  1.0
  H  H93  1  0.211100  0.059700  0.574200  1.0
  H  H94  1  0.711100  0.440300  0.074200  1.0
  H  H95  1  0.788900  0.940300  0.425800  1.0
  H  H96  1  0.288900  0.559700  0.925800  1.0
  H  H97  1  0.135600  0.178200  0.533300  1.0
  H  H98  1  0.635600  0.321800  0.033300  1.0
  H  H99  1  0.864400  0.821800  0.466700  1.0
  H  H100  1  0.364400  0.678200  0.966700  1.0
  H  H101  1  0.080300  0.302900  0.496200  1.0
  H  H102  1  0.580300  0.197100  0.996200  1.0
  H  H103  1  0.919700  0.697100  0.503800  1.0
  H  H104  1  0.419700  0.802900  0.003800  1.0
  H  H105  1  0.034000  0.427700  0.453800  1.0
  H  H106  1  0.534000  0.072300  0.953800  1.0
  H  H107  1  0.966000  0.572300  0.546200  1.0
  H  H108  1  0.466000  0.927700  0.046200  1.0
  H  H109  1  0.133400  0.499900  0.404200  1.0
  H  H110  1  0.633400  0.000100  0.904200  1.0
  H  H111  1  0.866600  0.500100  0.595800  1.0
  H  H112  1  0.366600  0.999900  0.095800  1.0
  H  H113  1  0.280300  0.451100  0.405200  1.0
  H  H114  1  0.780300  0.048900  0.905200  1.0
  H  H115  1  0.719700  0.548900  0.594800  1.0
  H  H116  1  0.219700  0.951100  0.094800  1.0
  H  H117  1  0.567400  0.294900  0.534300  1.0
  H  H118  1  0.067400  0.205100  0.034300  1.0
  H  H119  1  0.432600  0.705100  0.465700  1.0
  H  H120  1  0.932600  0.794900  0.965700  1.0
  H  H121  1  0.701500  0.222200  0.541300  1.0
  H  H122  1  0.201500  0.277800  0.041300  1.0
  H  H123  1  0.298500  0.777800  0.458700  1.0
  H  H124  1  0.798500  0.722200  0.958700  1.0
  H  H125  1  0.733100  0.131400  0.472200  1.0
  H  H126  1  0.233100  0.368600  0.972200  1.0
  H  H127  1  0.266900  0.868600  0.527800  1.0
  H  H128  1  0.766900  0.631400  0.027800  1.0
  H  H129  1  0.632700  0.121800  0.398200  1.0
  H  H130  1  0.132700  0.378200  0.898200  1.0
  H  H131  1  0.367300  0.878200  0.601800  1.0
  H  H132  1  0.867300  0.621800  0.101800  1.0
  H  H133  1  0.522700  0.125300  0.327500  1.0
  H  H134  1  0.022700  0.374700  0.827500  1.0
  H  H135  1  0.477300  0.874700  0.672500  1.0
  H  H136  1  0.977300  0.625300  0.172500  1.0
  H  H137  1  0.403600  0.132100  0.262200  1.0
  H  H138  1  0.903600  0.367900  0.762200  1.0
  H  H139  1  0.596400  0.867900  0.737800  1.0
  H  H140  1  0.096400  0.632100  0.237800  1.0
  H  H141  1  0.273100  0.203000  0.280200  1.0
  H  H142  1  0.773100  0.297000  0.780200  1.0
  H  H143  1  0.726900  0.797000  0.719800  1.0
  H  H144  1  0.226900  0.703000  0.219800  1.0
  H  H145  1  0.263700  0.266500  0.360500  1.0
  H  H146  1  0.763700  0.233500  0.860500  1.0
  H  H147  1  0.736300  0.733500  0.639500  1.0
  H  H148  1  0.236300  0.766500  0.139500  1.0
  C  C149  1  0.498100  0.416500  0.892800  1
  C  C150  1  0.998100  0.083500  0.392800  1
  C  C151  1  0.501900  0.583500  0.107200  1
  C  C152  1  0.001900  0.916500  0.607200  1
  C  C153  1  0.018700  0.509600  0.716500  1
  C  C154  1  0.518700  0.990400  0.216500  1
  C  C155  1  0.981300  0.490400  0.283500  1
  C  C156  1  0.481300  0.009600  0.783500  1
  C  C157  1  0.216600  0.491600  0.100500  1
  C  C158  1  0.716600  0.008400  0.600500  1
  C  C159  1  0.783400  0.508400  0.899500  1
  C  C160  1  0.283400  0.991600  0.399500  1
  C  C161  1  0.411600  0.369200  0.521200  1.0
  C  C162  1  0.911600  0.130800  0.021200  1.0
  C  C163  1  0.588400  0.630800  0.478800  1.0
  C  C164  1  0.088400  0.869200  0.978800  1.0
  C  C165  1  0.549200  0.602500  0.576600  1.0
  C  C166  1  0.049200  0.897500  0.076600  1.0
  C  C167  1  0.450800  0.397500  0.423400  1.0
  C  C168  1  0.950800  0.102500  0.923400  1.0
  C  C169  1  0.276500  0.554300  0.557100  1.0
  C  C170  1  0.776500  0.945700  0.057100  1.0
  C  C171  1  0.723500  0.445700  0.442900  1.0
  C  C172  1  0.223500  0.054300  0.942900  1.0
  C  C173  1  0.210700  0.612900  0.544900  1.0
  C  C174  1  0.710700  0.887100  0.044900  1.0
  C  C175  1  0.789300  0.387100  0.455100  1.0
  C  C176  1  0.289300  0.112900  0.955100  1.0
  C  C177  1  0.200400  0.678300  0.580600  1.0
  C  C178  1  0.700400  0.821700  0.080600  1.0
  C  C179  1  0.799600  0.321700  0.419400  1.0
  C  C180  1  0.299600  0.178300  0.919400  1.0
  C  C181  1  0.252800  0.680800  0.627100  1.0
  C  C182  1  0.752800  0.819200  0.127100  1.0
  C  C183  1  0.747200  0.319200  0.372900  1.0
  C  C184  1  0.247200  0.180800  0.872900  1.0
  C  C185  1  0.320300  0.617000  0.637500  1.0
  C  C186  1  0.820300  0.883000  0.137500  1.0
  C  C187  1  0.679700  0.383000  0.362500  1.0
  C  C188  1  0.179700  0.117000  0.862500  1.0
  C  C189  1  0.382100  0.611600  0.685500  1.0
  C  C190  1  0.882100  0.888400  0.185500  1.0
  C  C191  1  0.617900  0.388400  0.314500  1.0
  C  C192  1  0.117900  0.111600  0.814500  1.0
  C  C193  1  0.393600  0.673600  0.725200  1.0
  C  C194  1  0.893600  0.826400  0.225200  1.0
  C  C195  1  0.606400  0.326400  0.274800  1.0
  C  C196  1  0.106400  0.173600  0.774800  1.0
  C  C197  1  0.454400  0.663100  0.766100  1.0
  C  C198  1  0.954400  0.836900  0.266100  1.0
  C  C199  1  0.545600  0.336900  0.233900  1.0
  C  C200  1  0.045600  0.163100  0.733900  1.0
  C  C201  1  0.506400  0.590900  0.770000  1.0
  C  C202  1  0.006400  0.909100  0.270000  1.0
  C  C203  1  0.493600  0.409100  0.230000  1.0
  C  C204  1  0.993600  0.090900  0.730000  1.0
  C  C205  1  0.493800  0.527600  0.729500  1.0
  C  C206  1  0.993800  0.972400  0.229500  1.0
  C  C207  1  0.506200  0.472400  0.270500  1.0
  C  C208  1  0.006200  0.027600  0.770500  1.0
  C  C209  1  0.253400  0.391100  0.647100  1.0
  C  C210  1  0.753400  0.108900  0.147100  1.0
  C  C211  1  0.746600  0.608900  0.352900  1.0
  C  C212  1  0.246600  0.891100  0.852900  1.0
  C  C213  1  0.199500  0.322000  0.656400  1.0
  C  C214  1  0.699500  0.178000  0.156400  1.0
  C  C215  1  0.800500  0.678000  0.343600  1.0
  C  C216  1  0.300500  0.822000  0.843600  1.0
  C  C217  1  0.238800  0.244700  0.667200  1.0
  C  C218  1  0.738800  0.255300  0.167200  1.0
  C  C219  1  0.761200  0.755300  0.332800  1.0
  C  C220  1  0.261200  0.744700  0.832800  1.0
  C  C221  1  0.330400  0.236400  0.672400  1.0
  C  C222  1  0.830400  0.263600  0.172400  1.0
  C  C223  1  0.669600  0.763600  0.327600  1.0
  C  C224  1  0.169600  0.736400  0.827600  1.0
  C  C225  1  0.382400  0.310500  0.661800  1.0
  C  C226  1  0.882400  0.189500  0.161800  1.0
  C  C227  1  0.617600  0.689500  0.338200  1.0
  C  C228  1  0.117600  0.810500  0.838200  1.0
  C  C229  1  0.482300  0.309500  0.662200  1.0
  C  C230  1  0.982300  0.190500  0.162200  1.0
  C  C231  1  0.517700  0.690500  0.337800  1.0
  C  C232  1  0.017700  0.809500  0.837800  1.0
  C  C233  1  0.539100  0.240400  0.673800  1.0
  C  C234  1  0.039100  0.259600  0.173800  1.0
  C  C235  1  0.460900  0.759600  0.326200  1.0
  C  C236  1  0.960900  0.740400  0.826200  1.0
  C  C237  1  0.630000  0.249800  0.673700  1.0
  C  C238  1  0.130000  0.250200  0.173700  1.0
  C  C239  1  0.370000  0.750200  0.326300  1.0
  C  C240  1  0.870000  0.749800  0.826300  1.0
  C  C241  1  0.664200  0.326400  0.659300  1.0
  C  C242  1  0.164200  0.173600  0.159300  1.0
  C  C243  1  0.335800  0.673600  0.340700  1.0
  C  C244  1  0.835800  0.826400  0.840700  1.0
  C  C245  1  0.605000  0.394600  0.647100  1.0
  C  C246  1  0.105000  0.105400  0.147100  1.0
  C  C247  1  0.395000  0.605400  0.352900  1.0
  C  C248  1  0.895000  0.894600  0.852900  1.0
  C  C249  1  0.377600  0.143600  0.520200  1.0
  C  C250  1  0.877600  0.356400  0.020200  1.0
  C  C251  1  0.622400  0.856400  0.479800  1.0
  C  C252  1  0.122400  0.643600  0.979800  1.0
  C  C253  1  0.331500  0.084500  0.549400  1.0
  C  C254  1  0.831500  0.415500  0.049400  1.0
  C  C255  1  0.668500  0.915500  0.450600  1.0
  C  C256  1  0.168500  0.584500  0.950600  1.0
  C  C257  1  0.242600  0.098200  0.554400  1.0
  C  C258  1  0.742600  0.401800  0.054400  1.0
  C  C259  1  0.757400  0.901800  0.445600  1.0
  C  C260  1  0.257400  0.598200  0.945600  1.0
  C  C261  1  0.197200  0.168900  0.530400  1.0
  C  C262  1  0.697200  0.331100  0.030400  1.0
  C  C263  1  0.802800  0.831100  0.469600  1.0
  C  C264  1  0.302800  0.668900  0.969600  1.0
  C  C265  1  0.247500  0.225000  0.502100  1.0
  C  C266  1  0.747500  0.275000  0.002100  1.0
  C  C267  1  0.752500  0.775000  0.497900  1.0
  C  C268  1  0.252500  0.725000  0.997900  1.0
  C  C269  1  0.210400  0.304300  0.476200  1.0
  C  C270  1  0.710400  0.195700  0.976200  1.0
  C  C271  1  0.789600  0.695700  0.523800  1.0
  C  C272  1  0.289600  0.804300  0.023800  1.0
  C  C273  1  0.120800  0.334000  0.477500  1.0
  C  C274  1  0.620800  0.166000  0.977500  1.0
  C  C275  1  0.879200  0.666000  0.522500  1.0
  C  C276  1  0.379200  0.834000  0.022500  1.0
  C  C277  1  0.092900  0.407100  0.452000  1.0
  C  C278  1  0.592900  0.092900  0.952000  1.0
  C  C279  1  0.907100  0.592900  0.548000  1.0
  C  C280  1  0.407100  0.907100  0.048000  1.0
  C  C281  1  0.152000  0.450700  0.423400  1.0
  C  C282  1  0.652000  0.049300  0.923400  1.0
  C  C283  1  0.848000  0.549300  0.576600  1.0
  C  C284  1  0.348000  0.950700  0.076600  1.0
  C  C285  1  0.239600  0.420100  0.423700  1.0
  C  C286  1  0.739600  0.079900  0.923700  1.0
  C  C287  1  0.760400  0.579900  0.576300  1.0
  C  C288  1  0.260400  0.920100  0.076300  1.0
  C  C289  1  0.579400  0.257800  0.507000  1.0
  C  C290  1  0.079400  0.242200  0.007000  1.0
  C  C291  1  0.420600  0.742200  0.493000  1.0
  C  C292  1  0.920600  0.757800  0.993000  1.0
  C  C293  1  0.660300  0.215700  0.511600  1.0
  C  C294  1  0.160300  0.284300  0.011600  1.0
  C  C295  1  0.339700  0.784300  0.488400  1.0
  C  C296  1  0.839700  0.715700  0.988400  1.0
  C  C297  1  0.678900  0.162600  0.470100  1.0
  C  C298  1  0.178900  0.337400  0.970100  1.0
  C  C299  1  0.321100  0.837400  0.529900  1.0
  C  C300  1  0.821100  0.662600  0.029900  1.0
  C  C301  1  0.619000  0.155600  0.426700  1.0
  C  C302  1  0.119000  0.344400  0.926700  1.0
  C  C303  1  0.381000  0.844400  0.573300  1.0
  C  C304  1  0.881000  0.655600  0.073300  1.0
  C  C305  1  0.535600  0.200300  0.425200  1.0
  C  C306  1  0.035600  0.299700  0.925200  1.0
  C  C307  1  0.464400  0.799700  0.574800  1.0
  C  C308  1  0.964400  0.700300  0.074800  1.0
  C  C309  1  0.463600  0.195000  0.381300  1.0
  C  C310  1  0.963600  0.305000  0.881300  1.0
  C  C311  1  0.536400  0.805000  0.618700  1.0
  C  C312  1  0.036400  0.695000  0.118700  1.0
  C  C313  1  0.469800  0.154900  0.333500  1.0
  C  C314  1  0.969800  0.345100  0.833500  1.0
  C  C315  1  0.530200  0.845100  0.666500  1.0
  C  C316  1  0.030200  0.654900  0.166500  1.0
  C  C317  1  0.399300  0.158100  0.294900  1.0
  C  C318  1  0.899300  0.341900  0.794900  1.0
  C  C319  1  0.600700  0.841900  0.705100  1.0
  C  C320  1  0.100700  0.658100  0.205100  1.0
  C  C321  1  0.322700  0.200300  0.305700  1.0
  C  C322  1  0.822700  0.299700  0.805700  1.0
  C  C323  1  0.677300  0.799700  0.694300  1.0
  C  C324  1  0.177300  0.700300  0.194300  1.0
  C  C325  1  0.317600  0.239100  0.353700  1.0
  C  C326  1  0.817600  0.260900  0.853700  1.0
  C  C327  1  0.682400  0.760900  0.646300  1.0
  C  C328  1  0.182400  0.739100  0.146300  1.0
  N  N329  1  0.063600  0.574800  0.685200  1
  N  N330  1  0.563600  0.925200  0.185200  1
  N  N331  1  0.936400  0.425200  0.314800  1
  N  N332  1  0.436400  0.074800  0.814800  1
  N  N333  1  0.118000  0.472700  0.089100  1
  N  N334  1  0.618000  0.027300  0.589100  1
  N  N335  1  0.882000  0.527300  0.910900  1
  N  N336  1  0.382000  0.972700  0.410900  1
  N  N337  1  0.415300  0.410600  0.559000  1.0
  N  N338  1  0.915300  0.089400  0.059000  1.0
  N  N339  1  0.584700  0.589400  0.441000  1.0
  N  N340  1  0.084700  0.910600  0.941000  1.0
  N  N341  1  0.507900  0.549700  0.596400  1.0
  N  N342  1  0.007900  0.950300  0.096400  1.0
  N  N343  1  0.492100  0.450300  0.403600  1.0
  N  N344  1  0.992100  0.049700  0.903600  1.0
  N  N345  1  0.328200  0.552700  0.602100  1.0
  N  N346  1  0.828200  0.947300  0.102100  1.0
  N  N347  1  0.671800  0.447300  0.397900  1.0
  N  N348  1  0.171800  0.052700  0.897900  1.0
  N  N349  1  0.434000  0.539900  0.688000  1.0
  N  N350  1  0.934000  0.960100  0.188000  1.0
  N  N351  1  0.566000  0.460100  0.312000  1.0
  N  N352  1  0.066000  0.039900  0.812000  1.0
  N  N353  1  0.343800  0.384600  0.649400  1.0
  N  N354  1  0.843800  0.115400  0.149400  1.0
  N  N355  1  0.656200  0.615400  0.350600  1.0
  N  N356  1  0.156200  0.884600  0.850600  1.0
  N  N357  1  0.515700  0.388000  0.647700  1.0
  N  N358  1  0.015700  0.112000  0.147700  1.0
  N  N359  1  0.484300  0.612000  0.352300  1.0
  N  N360  1  0.984300  0.888000  0.852300  1.0
  N  N361  1  0.336800  0.211500  0.496900  1.0
  N  N362  1  0.836800  0.288500  0.996900  1.0
  N  N363  1  0.663200  0.788500  0.503100  1.0
  N  N364  1  0.163200  0.711500  0.003100  1.0
  N  N365  1  0.269300  0.349000  0.448800  1.0
  N  N366  1  0.769300  0.151000  0.948800  1.0
  N  N367  1  0.730700  0.651000  0.551200  1.0
  N  N368  1  0.230700  0.849000  0.051200  1.0
  N  N369  1  0.516000  0.250600  0.466900  1.0
  N  N370  1  0.016000  0.249400  0.966900  1.0
  N  N371  1  0.484000  0.749400  0.533100  1.0
  N  N372  1  0.984000  0.750600  0.033100  1.0
  N  N373  1  0.387400  0.238800  0.391000  1.0
  N  N374  1  0.887400  0.261200  0.891000  1.0
  N  N375  1  0.612600  0.761200  0.609000  1.0
  N  N376  1  0.112600  0.738800  0.109000  1.0
  Cl  Cl377  1  0.584500  0.359500  0.865100  1
  Cl  Cl378  1  0.084500  0.140500  0.365100  1
  Cl  Cl379  1  0.415500  0.640500  0.134900  1
  Cl  Cl380  1  0.915500  0.859500  0.634900  1
  Cl  Cl381  1  0.533600  0.520000  0.913100  1
  Cl  Cl382  1  0.033600  0.980000  0.413100  1
  Cl  Cl383  1  0.466400  0.480000  0.086900  1
  Cl  Cl384  1  0.966400  0.020000  0.586900  1
  Cl  Cl385  1  0.465600  0.363900  0.948900  1
  Cl  Cl386  1  0.965600  0.136100  0.448900  1
  Cl  Cl387  1  0.534400  0.636100  0.051100  1
  Cl  Cl388  1  0.034400  0.863900  0.551100  1
  O  O389  1  0.087400  0.542600  0.644300  1
  O  O390  1  0.587400  0.957400  0.144300  1
  O  O391  1  0.912600  0.457400  0.355700  1
  O  O392  1  0.412600  0.042600  0.855700  1
  O  O393  1  0.080000  0.643700  0.708400  1
  O  O394  1  0.580000  0.856300  0.208400  1
  O  O395  1  0.920000  0.356300  0.291600  1
  O  O396  1  0.420000  0.143700  0.791600  1
  O  O397  1  0.050800  0.502000  0.064200  1
  O  O398  1  0.550800  0.998000  0.564200  1
  O  O399  1  0.949200  0.498000  0.935800  1
  O  O400  1  0.449200  0.002000  0.435800  1
  O  O401  1  0.077700  0.406300  0.099700  1
  O  O402  1  0.577700  0.093700  0.599700  1
  O  O403  1  0.922300  0.593700  0.900300  1
  O  O404  1  0.422300  0.906300  0.400300  1
  F  F405  1  0.324200  0.524700  0.826200  1
  F  F406  1  0.824200  0.975300  0.326200  1
  F  F407  1  0.675800  0.475300  0.173800  1
  F  F408  1  0.175800  0.024700  0.673800  1
  F  F409  1  0.186800  0.379500  0.782400  1
  F  F410  1  0.686800  0.120500  0.282400  1
  F  F411  1  0.813200  0.620500  0.217600  1
  F  F412  1  0.313200  0.879500  0.717600  1
  F  F413  1  0.277000  0.402200  0.857600  1
  F  F414  1  0.777000  0.097800  0.357600  1
  F  F415  1  0.723000  0.597800  0.142400  1
  F  F416  1  0.223000  0.902200  0.642400  1
  F  F417  1  0.237800  0.504200  0.749700  1
  F  F418  1  0.737800  0.995800  0.249700  1
  F  F419  1  0.762200  0.495800  0.250300  1
  F  F420  1  0.262200  0.004200  0.750300  1
  F  F421  1  0.174100  0.501200  0.827400  1
  F  F422  1  0.674100  0.998800  0.327400  1
  F  F423  1  0.825900  0.498800  0.172600  1
  F  F424  1  0.325900  0.001200  0.672600  1
  F  F425  1  0.338800  0.404500  0.779300  1
  F  F426  1  0.838800  0.095500  0.279300  1
  F  F427  1  0.661200  0.595500  0.220700  1
  F  F428  1  0.161200  0.904500  0.720700  1
  F  F429  1  0.846000  0.538000  0.780700  1
  F  F430  1  0.346000  0.962000  0.280700  1
  F  F431  1  0.154000  0.462000  0.219300  1
  F  F432  1  0.654000  0.038000  0.719300  1
  F  F433  1  0.681400  0.572400  0.693700  1
  F  F434  1  0.181400  0.927600  0.193700  1
  F  F435  1  0.318600  0.427600  0.306300  1
  F  F436  1  0.818600  0.072400  0.806300  1
  F  F437  1  0.720600  0.620700  0.775400  1
  F  F438  1  0.220600  0.879300  0.275400  1
  F  F439  1  0.279400  0.379300  0.224600  1
  F  F440  1  0.779400  0.120700  0.724600  1
  F  F441  1  0.805500  0.487000  0.699600  1
  F  F442  1  0.305500  0.013000  0.199600  1
  F  F443  1  0.194500  0.513000  0.300400  1
  F  F444  1  0.694500  0.987000  0.800400  1
  F  F445  1  0.706300  0.477300  0.760500  1
  F  F446  1  0.206300  0.022700  0.260500  1
  F  F447  1  0.293700  0.522700  0.239500  1
  F  F448  1  0.793700  0.977300  0.739500  1
  F  F449  1  0.820900  0.630600  0.712900  1
  F  F450  1  0.320900  0.869400  0.212900  1
  F  F451  1  0.179100  0.369400  0.287100  1
  F  F452  1  0.679100  0.130600  0.787100  1
  F  F453  1  0.829900  0.333600  0.584000  1
  F  F454  1  0.329900  0.166400  0.084000  1
  F  F455  1  0.170100  0.666400  0.416000  1
  F  F456  1  0.670100  0.833600  0.916000  1
  F  F457  1  0.013100  0.225700  0.600300  1
  F  F458  1  0.513100  0.274300  0.100300  1
  F  F459  1  0.986900  0.774300  0.399700  1
  F  F460  1  0.486900  0.725700  0.899700  1
  F  F461  1  0.961100  0.327700  0.643200  1
  F  F462  1  0.461100  0.172300  0.143200  1
  F  F463  1  0.038900  0.672300  0.356800  1
  F  F464  1  0.538900  0.827700  0.856800  1
  F  F465  1  0.961000  0.348900  0.558400  1
  F  F466  1  0.461000  0.151100  0.058400  1
  F  F467  1  0.039000  0.651100  0.441600  1
  F  F468  1  0.539000  0.848900  0.941600  1
  F  F469  1  0.885700  0.207900  0.628500  1
  F  F470  1  0.385700  0.292100  0.128500  1
  F  F471  1  0.114300  0.792100  0.371500  1
  F  F472  1  0.614300  0.707900  0.871500  1
  F  F473  1  0.884500  0.225900  0.538800  1
  F  F474  1  0.384500  0.274100  0.038800  1
  F  F475  1  0.115500  0.774100  0.461200  1
  F  F476  1  0.615500  0.725900  0.961200  1
  F  F477  1  0.919600  0.255900  0.533800  1
  F  F478  1  0.419600  0.244100  0.033800  1
  F  F479  1  0.080400  0.744100  0.466200  1
  F  F480  1  0.580400  0.755900  0.966200  1
  F  F481  1  0.928300  0.314900  0.650300  1
  F  F482  1  0.428300  0.185100  0.150300  1
  F  F483  1  0.071700  0.685100  0.349700  1
  F  F484  1  0.571700  0.814900  0.849700  1
  F  F485  1  0.983300  0.364800  0.580600  1
  F  F486  1  0.483300  0.135200  0.080600  1
  F  F487  1  0.016700  0.635200  0.419400  1
  F  F488  1  0.516700  0.864800  0.919400  1
  F  F489  1  0.857700  0.206600  0.610200  1
  F  F490  1  0.357700  0.293400  0.110200  1
  F  F491  1  0.142300  0.793400  0.389800  1
  F  F492  1  0.642300  0.706600  0.889800  1
