# generated using pymatgen
data_Fe2P2H32C42N10O2F15
_symmetry_space_group_name_H-M   'P 1'
_cell_length_a   13.35900000
_cell_length_b   15.21600000
_cell_length_c   24.10800000
_cell_angle_alpha   105.54000000
_cell_angle_beta   100.18000000
_cell_angle_gamma   78.36000000
_symmetry_Int_Tables_number   1
_chemical_formula_structural   Fe2P2H32C42N10O2F15
_chemical_formula_sum   'Fe8 P8 H128 C168 N40 O8 F60'
_cell_volume   4584.95775411
_cell_formula_units_Z   4
loop_
 _symmetry_equiv_pos_site_id
 _symmetry_equiv_pos_as_xyz
  1  'x, y, z'
loop_
 _atom_site_type_symbol
 _atom_site_label
 _atom_site_symmetry_multiplicity
 _atom_site_fract_x
 _atom_site_fract_y
 _atom_site_fract_z
 _atom_site_occupancy
  Fe  Fe1  1  0.525080  0.288980  0.760090  1
  Fe  Fe2  1  0.474920  0.711020  0.239910  1
  Fe  Fe3  1  0.856840  0.350050  0.726680  1
  Fe  Fe4  1  0.143160  0.649950  0.273320  1
  Fe  Fe5  1  0.028930  0.061040  0.786580  1
  Fe  Fe6  1  0.971070  0.938960  0.213420  1
  Fe  Fe7  1  0.687080  0.966460  0.765710  1
  Fe  Fe8  1  0.312920  0.033540  0.234290  1
  P  P9  1  0.545710  0.776390  0.935530  1
  P  P10  1  0.454290  0.223610  0.064470  1
  P  P11  1  0.156760  0.575280  0.913700  1
  P  P12  1  0.843240  0.424720  0.086300  1
  P  P13  1  0.251120  0.059580  0.582320  1
  P  P14  1  0.748880  0.940420  0.417680  1
  P  P15  1  0.703500  0.366720  0.447700  1
  P  P16  1  0.296500  0.633280  0.552300  1
  H  H17  1  0.317500  0.241500  0.695200  1
  H  H18  1  0.682500  0.758500  0.304800  1
  H  H19  1  0.156900  0.247700  0.720100  1
  H  H20  1  0.843100  0.752300  0.279900  1
  H  H21  1  0.128100  0.305200  0.815300  1
  H  H22  1  0.871900  0.694800  0.184700  1
  H  H23  1  0.264700  0.342400  0.886100  1
  H  H24  1  0.735300  0.657600  0.113900  1
  H  H25  1  0.411900  0.360700  0.949200  1
  H  H26  1  0.588100  0.639300  0.050800  1
  H  H27  1  0.568500  0.385500  0.004800  1
  H  H28  1  0.431500  0.614500  0.995200  1
  H  H29  1  0.710100  0.372000  0.959500  1
  H  H30  1  0.289900  0.628000  0.040500  1
  H  H31  1  0.696900  0.329200  0.860600  1
  H  H32  1  0.303100  0.670800  0.139400  1
  H  H33  1  0.479900  0.486400  0.836300  1
  H  H34  1  0.520100  0.513600  0.163700  1
  H  H35  1  0.403600  0.629300  0.822100  1
  H  H36  1  0.596400  0.370700  0.177900  1
  H  H37  1  0.346300  0.645700  0.729200  1
  H  H38  1  0.653700  0.354300  0.270800  1
  H  H39  1  0.376500  0.520000  0.651600  1
  H  H40  1  0.623500  0.480000  0.348400  1
  H  H41  1  0.445000  0.395900  0.584000  1
  H  H42  1  0.555000  0.604100  0.416000  1
  H  H43  1  0.494400  0.258500  0.519900  1
  H  H44  1  0.505600  0.741500  0.480100  1
  H  H45  1  0.540100  0.123200  0.552900  1
  H  H46  1  0.459900  0.876800  0.447100  1
  H  H47  1  0.539500  0.131800  0.649100  1
  H  H48  1  0.460500  0.868200  0.350900  1
  H  H49  1  0.954400  0.359100  0.852800  1
  H  H50  1  0.045600  0.640900  0.147200  1
  H  H51  1  0.921900  0.449600  0.942000  1
  H  H52  1  0.078100  0.550400  0.058000  1
  H  H53  1  0.797200  0.581300  0.948100  1
  H  H54  1  0.202800  0.418700  0.051900  1
  H  H55  1  0.708800  0.618600  0.863600  1
  H  H56  1  0.291200  0.381400  0.136400  1
  H  H57  1  0.638400  0.647100  0.777100  1
  H  H58  1  0.361600  0.352900  0.222900  1
  H  H59  1  0.560900  0.655400  0.683700  1
  H  H60  1  0.439100  0.344600  0.316300  1
  H  H61  1  0.611900  0.539700  0.605900  1
  H  H62  1  0.388100  0.460300  0.394100  1
  H  H63  1  0.736100  0.418300  0.621100  1
  H  H64  1  0.263900  0.581700  0.378900  1
  H  H65  1  0.018200  0.478900  0.776900  1
  H  H66  1  0.981800  0.521100  0.223100  1
  H  H67  1  0.142600  0.525600  0.742600  1
  H  H68  1  0.857400  0.474400  0.257400  1
  H  H69  1  0.177200  0.459600  0.648800  1
  H  H70  1  0.822800  0.540400  0.351200  1
  H  H71  1  0.085600  0.347100  0.591200  1
  H  H72  1  0.914400  0.652900  0.408800  1
  H  H73  1  0.995500  0.231700  0.544100  1
  H  H74  1  0.004500  0.768300  0.455900  1
  H  H75  1  0.880700  0.130500  0.498300  1
  H  H76  1  0.119300  0.869500  0.501700  1
  H  H77  1  0.749400  0.122000  0.546500  1
  H  H78  1  0.250600  0.878000  0.453500  1
  H  H79  1  0.739500  0.209300  0.639300  1
  H  H80  1  0.260500  0.790700  0.360700  1
  H  H81  1  0.886200  0.146100  0.879300  1
  H  H82  1  0.113800  0.853900  0.120700  1
  H  H83  1  0.899500  0.236100  0.971900  1
  H  H84  1  0.100500  0.763900  0.028100  1
  H  H85  1  0.058300  0.274700  0.017700  1
  H  H86  1  0.941700  0.725300  0.982300  1
  H  H87  1  0.200700  0.218100  0.968900  1
  H  H88  1  0.799300  0.781900  0.031100  1
  H  H89  1  0.334200  0.141600  0.916000  1
  H  H90  1  0.665800  0.858400  0.084000  1
  H  H91  1  0.447700  0.098500  0.846900  1
  H  H92  1  0.552300  0.901500  0.153100  1
  H  H93  1  0.387400  0.054700  0.750700  1
  H  H94  1  0.612600  0.945300  0.249300  1
  H  H95  1  0.217700  0.035500  0.723400  1
  H  H96  1  0.782300  0.964500  0.276600  1
  H  H97  1  0.985400  0.080000  0.660800  1
  H  H98  1  0.014600  0.920000  0.339200  1
  H  H99  1  0.969600  0.981000  0.569900  1
  H  H100  1  0.030400  0.019000  0.430100  1
  H  H101  1  0.008000  0.824700  0.561300  1
  H  H102  1  0.992000  0.175300  0.438700  1
  H  H103  1  0.069600  0.768900  0.643700  1
  H  H104  1  0.930400  0.231100  0.356300  1
  H  H105  1  0.142400  0.729700  0.728200  1
  H  H106  1  0.857600  0.270300  0.271800  1
  H  H107  1  0.193700  0.702200  0.819100  1
  H  H108  1  0.806300  0.297800  0.180900  1
  H  H109  1  0.167600  0.822300  0.900500  1
  H  H110  1  0.832400  0.177700  0.099500  1
  H  H111  1  0.098400  0.967400  0.888700  1
  H  H112  1  0.901600  0.032600  0.111300  1
  H  H113  1  0.794500  0.974400  0.665900  1
  H  H114  1  0.205500  0.025600  0.334100  1
  H  H115  1  0.755600  0.951800  0.567100  1
  H  H116  1  0.244400  0.048200  0.432900  1
  H  H117  1  0.599500  0.909400  0.521900  1
  H  H118  1  0.400500  0.090600  0.478100  1
  H  H119  1  0.488500  0.882400  0.576900  1
  H  H120  1  0.511500  0.117600  0.423100  1
  H  H121  1  0.402200  0.841400  0.635700  1
  H  H122  1  0.597800  0.158600  0.364300  1
  H  H123  1  0.324000  0.803900  0.703400  1
  H  H124  1  0.676000  0.196100  0.296600  1
  H  H125  1  0.400300  0.827300  0.798800  1
  H  H126  1  0.599700  0.172700  0.201200  1
  H  H127  1  0.547700  0.893600  0.825900  1
  H  H128  1  0.452300  0.106400  0.174100  1
  H  H129  1  0.788100  0.784200  0.692800  1
  H  H130  1  0.211900  0.215800  0.307200  1
  H  H131  1  0.899700  0.655400  0.709900  1
  H  H132  1  0.100300  0.344600  0.290100  1
  H  H133  1  0.949600  0.642300  0.804400  1
  H  H134  1  0.050400  0.357700  0.195600  1
  H  H135  1  0.887500  0.758300  0.879500  1
  H  H136  1  0.112500  0.241700  0.120500  1
  H  H137  1  0.820500  0.879600  0.946300  1
  H  H138  1  0.179500  0.120400  0.053700  1
  H  H139  1  0.753000  0.012600  0.009300  1
  H  H140  1  0.247000  0.987400  0.990700  1
  H  H141  1  0.656700  0.134000  0.972100  1
  H  H142  1  0.343300  0.866000  0.027900  1
  H  H143  1  0.628100  0.116000  0.873300  1
  H  H144  1  0.371900  0.884000  0.126700  1
  C  C145  1  0.660200  0.299900  0.751300  1
  C  C146  1  0.339800  0.700100  0.248700  1
  C  C147  1  0.570900  0.161500  0.760400  1
  C  C148  1  0.429100  0.838500  0.239600  1
  C  C149  1  0.978600  0.176300  0.764400  1
  C  C150  1  0.021400  0.823700  0.235600  1
  C  C151  1  0.891300  0.039100  0.779900  1
  C  C152  1  0.108700  0.960900  0.220100  1
  C  C153  1  0.307000  0.261500  0.734000  1
  C  C154  1  0.693000  0.738500  0.266000  1
  C  C155  1  0.210200  0.266400  0.748700  1
  C  C156  1  0.789800  0.733600  0.251300  1
  C  C157  1  0.193700  0.298700  0.805200  1
  C  C158  1  0.806300  0.701300  0.194800  1
  C  C159  1  0.274600  0.321500  0.847200  1
  C  C160  1  0.725400  0.678500  0.152800  1
  C  C161  1  0.370700  0.313100  0.830800  1
  C  C162  1  0.629300  0.686900  0.169200  1
  C  C163  1  0.464500  0.331500  0.871600  1
  C  C164  1  0.535500  0.668500  0.128400  1
  C  C165  1  0.470200  0.355000  0.931500  1
  C  C166  1  0.529800  0.645000  0.068500  1
  C  C167  1  0.563200  0.369800  0.964500  1
  C  C168  1  0.436800  0.630200  0.035500  1
  C  C169  1  0.647100  0.361100  0.937700  1
  C  C170  1  0.352900  0.638900  0.062300  1
  C  C171  1  0.638500  0.336400  0.878400  1
  C  C172  1  0.361500  0.663600  0.121600  1
  C  C173  1  0.458500  0.492900  0.798600  1
  C  C174  1  0.541500  0.507100  0.201400  1
  C  C175  1  0.412300  0.579000  0.790500  1
  C  C176  1  0.587700  0.421000  0.209500  1
  C  C177  1  0.379900  0.588800  0.735600  1
  C  C178  1  0.620100  0.411200  0.264400  1
  C  C179  1  0.397100  0.513900  0.689500  1
  C  C180  1  0.602900  0.486100  0.310500  1
  C  C181  1  0.445300  0.429100  0.700000  1
  C  C182  1  0.554700  0.570900  0.300000  1
  C  C183  1  0.468600  0.344200  0.654500  1
  C  C184  1  0.531400  0.655800  0.345500  1
  C  C185  1  0.465900  0.341800  0.596900  1
  C  C186  1  0.534100  0.658200  0.403100  1
  C  C187  1  0.493900  0.260300  0.558800  1
  C  C188  1  0.506100  0.739700  0.441200  1
  C  C189  1  0.521800  0.179900  0.578400  1
  C  C190  1  0.478200  0.820100  0.421600  1
  C  C191  1  0.521800  0.185900  0.636000  1
  C  C192  1  0.478200  0.814100  0.364000  1
  C  C193  1  0.904400  0.411800  0.854900  1
  C  C194  1  0.095600  0.588200  0.145100  1
  C  C195  1  0.885500  0.465600  0.908500  1
  C  C196  1  0.114500  0.534400  0.091500  1
  C  C197  1  0.811500  0.543900  0.912100  1
  C  C198  1  0.188500  0.456100  0.087900  1
  C  C199  1  0.759000  0.566200  0.861900  1
  C  C200  1  0.241000  0.433800  0.138100  1
  C  C201  1  0.782200  0.509200  0.808800  1
  C  C202  1  0.217800  0.490800  0.191200  1
  C  C203  1  0.730700  0.524400  0.752000  1
  C  C204  1  0.269300  0.475600  0.248000  1
  C  C205  1  0.657000  0.600400  0.745000  1
  C  C206  1  0.343000  0.399600  0.255000  1
  C  C207  1  0.611400  0.605600  0.689400  1
  C  C208  1  0.388600  0.394400  0.310600  1
  C  C209  1  0.641500  0.537100  0.643500  1
  C  C210  1  0.358500  0.462900  0.356500  1
  C  C211  1  0.715700  0.464500  0.652900  1
  C  C212  1  0.284300  0.535500  0.347100  1
  C  C213  1  0.030300  0.453000  0.738600  1
  C  C214  1  0.969700  0.547000  0.261400  1
  C  C215  1  0.105900  0.480700  0.718600  1
  C  C216  1  0.894100  0.519300  0.281400  1
  C  C217  1  0.126500  0.441600  0.663200  1
  C  C218  1  0.873500  0.558400  0.336800  1
  C  C219  1  0.071500  0.375300  0.628900  1
  C  C220  1  0.928500  0.624700  0.371100  1
  C  C221  1  0.995400  0.350700  0.650600  1
  C  C222  1  0.004600  0.649300  0.349400  1
  C  C223  1  0.929700  0.281200  0.617800  1
  C  C224  1  0.070300  0.718800  0.382200  1
  C  C225  1  0.942000  0.227300  0.562700  1
  C  C226  1  0.058000  0.772700  0.437300  1
  C  C227  1  0.874100  0.167000  0.535600  1
  C  C228  1  0.125900  0.833000  0.464400  1
  C  C229  1  0.796900  0.161300  0.564200  1
  C  C230  1  0.203100  0.838700  0.435800  1
  C  C231  1  0.790900  0.214800  0.619600  1
  C  C232  1  0.209100  0.785200  0.380400  1
  C  C233  1  0.950200  0.161100  0.897300  1
  C  C234  1  0.049800  0.838900  0.102700  1
  C  C235  1  0.957600  0.214900  0.952800  1
  C  C236  1  0.042400  0.785100  0.047200  1
  C  C237  1  0.052100  0.237500  0.980100  1
  C  C238  1  0.947900  0.762500  0.019900  1
  C  C239  1  0.136300  0.204200  0.951100  1
  C  C240  1  0.863700  0.795800  0.048900  1
  C  C241  1  0.125000  0.149700  0.894800  1
  C  C242  1  0.875000  0.850300  0.105200  1
  C  C243  1  0.207700  0.115400  0.857900  1
  C  C244  1  0.792300  0.884600  0.142100  1
  C  C245  1  0.310700  0.121300  0.876800  1
  C  C246  1  0.689300  0.878700  0.123200  1
  C  C247  1  0.377900  0.096000  0.835400  1
  C  C248  1  0.622100  0.904000  0.164600  1
  C  C249  1  0.343000  0.067700  0.778600  1
  C  C250  1  0.657000  0.932300  0.221400  1
  C  C251  1  0.240600  0.058300  0.762400  1
  C  C252  1  0.759400  0.941700  0.237600  1
  C  C253  1  0.001400  0.016600  0.657600  1
  C  C254  1  0.998600  0.983400  0.342400  1
  C  C255  1  0.991900  0.957500  0.602700  1
  C  C256  1  0.008100  0.042500  0.397300  1
  C  C257  1  0.015600  0.865500  0.597600  1
  C  C258  1  0.984400  0.134500  0.402400  1
  C  C259  1  0.051200  0.832200  0.646700  1
  C  C260  1  0.948800  0.167800  0.353300  1
  C  C261  1  0.059100  0.894200  0.700700  1
  C  C262  1  0.940900  0.105800  0.299300  1
  C  C263  1  0.093400  0.867400  0.756000  1
  C  C264  1  0.906600  0.132600  0.244000  1
  C  C265  1  0.134800  0.777800  0.761200  1
  C  C266  1  0.865200  0.222200  0.238800  1
  C  C267  1  0.164100  0.761300  0.815100  1
  C  C268  1  0.835900  0.238700  0.184900  1
  C  C269  1  0.149600  0.832700  0.863500  1
  C  C270  1  0.850400  0.167300  0.136500  1
  C  C271  1  0.108100  0.919200  0.855900  1
  C  C272  1  0.891900  0.080800  0.144100  1
  C  C273  1  0.732600  0.954500  0.647900  1
  C  C274  1  0.267400  0.045500  0.352100  1
  C  C275  1  0.709200  0.942300  0.588600  1
  C  C276  1  0.290800  0.057700  0.411400  1
  C  C277  1  0.617300  0.916300  0.561700  1
  C  C278  1  0.382700  0.083700  0.438300  1
  C  C279  1  0.551500  0.900200  0.594400  1
  C  C280  1  0.448500  0.099800  0.405600  1
  C  C281  1  0.579800  0.910900  0.653900  1
  C  C282  1  0.420200  0.089100  0.346100  1
  C  C283  1  0.519700  0.889800  0.693000  1
  C  C284  1  0.480300  0.110200  0.307000  1
  C  C285  1  0.430700  0.851700  0.674600  1
  C  C286  1  0.569300  0.148300  0.325400  1
  C  C287  1  0.384500  0.828900  0.714800  1
  C  C288  1  0.615500  0.171100  0.285200  1
  C  C289  1  0.429100  0.843700  0.771400  1
  C  C290  1  0.570900  0.156300  0.228600  1
  C  C291  1  0.517900  0.883500  0.787300  1
  C  C292  1  0.482100  0.116500  0.212700  1
  C  C293  1  0.809300  0.779600  0.730900  1
  C  C294  1  0.190700  0.220400  0.269100  1
  C  C295  1  0.875500  0.701800  0.740700  1
  C  C296  1  0.124500  0.298200  0.259300  1
  C  C297  1  0.904900  0.694200  0.796700  1
  C  C298  1  0.095100  0.305800  0.203300  1
  C  C299  1  0.868400  0.763200  0.841300  1
  C  C300  1  0.131600  0.236800  0.158700  1
  C  C301  1  0.802900  0.840500  0.829000  1
  C  C302  1  0.197100  0.159500  0.171000  1
  C  C303  1  0.761800  0.921500  0.873000  1
  C  C304  1  0.238200  0.078500  0.127000  1
  C  C305  1  0.780800  0.928500  0.932000  1
  C  C306  1  0.219200  0.071500  0.068000  1
  C  C307  1  0.741100  0.007500  0.969400  1
  C  C308  1  0.258900  0.992500  0.030600  1
  C  C309  1  0.683500  0.079100  0.947500  1
  C  C310  1  0.316500  0.920900  0.052500  1
  C  C311  1  0.666600  0.067500  0.888300  1
  C  C312  1  0.333400  0.932500  0.111700  1
  N  N313  1  0.736800  0.310700  0.740800  1
  N  N314  1  0.263200  0.689300  0.259200  1
  N  N315  1  0.606800  0.087300  0.764000  1
  N  N316  1  0.393200  0.912700  0.236000  1
  N  N317  1  0.942400  0.244600  0.752200  1
  N  N318  1  0.057600  0.755400  0.247800  1
  N  N319  1  0.812000  0.016700  0.774300  1
  N  N320  1  0.188000  0.983300  0.225700  1
  N  N321  1  0.386500  0.285100  0.774600  1
  N  N322  1  0.613500  0.714900  0.225400  1
  N  N323  1  0.548500  0.321900  0.844700  1
  N  N324  1  0.451500  0.678100  0.155300  1
  N  N325  1  0.473900  0.418500  0.754900  1
  N  N326  1  0.526100  0.581500  0.245100  1
  N  N327  1  0.497200  0.266900  0.675000  1
  N  N328  1  0.502800  0.733100  0.325000  1
  N  N329  1  0.854400  0.431300  0.804900  1
  N  N330  1  0.145600  0.568700  0.195100  1
  N  N331  1  0.760300  0.457200  0.706500  1
  N  N332  1  0.239700  0.542800  0.293500  1
  N  N333  1  0.973300  0.390800  0.705800  1
  N  N334  1  0.026700  0.609200  0.294200  1
  N  N335  1  0.855500  0.274700  0.646800  1
  N  N336  1  0.144500  0.725300  0.353200  1
  N  N337  1  0.031700  0.129000  0.867700  1
  N  N338  1  0.968300  0.871000  0.132300  1
  N  N339  1  0.172800  0.080900  0.801100  1
  N  N340  1  0.827200  0.919100  0.198900  1
  N  N341  1  0.032600  0.986500  0.706200  1
  N  N342  1  0.967400  0.013500  0.293800  1
  N  N343  1  0.080600  0.937900  0.803300  1
  N  N344  1  0.919400  0.062100  0.196700  1
  N  N345  1  0.670200  0.939100  0.680900  1
  N  N346  1  0.329800  0.060900  0.319100  1
  N  N347  1  0.562100  0.907700  0.749700  1
  N  N348  1  0.437900  0.092300  0.250300  1
  N  N349  1  0.773900  0.848800  0.773700  1
  N  N350  1  0.226100  0.151200  0.226300  1
  N  N351  1  0.702900  0.989300  0.850900  1
  N  N352  1  0.297100  0.010700  0.149100  1
  O  O353  1  0.206700  0.303200  0.502200  1
  O  O354  1  0.793300  0.696800  0.497800  1
  O  O355  1  0.006400  0.388600  0.463300  1
  O  O356  1  0.993600  0.611400  0.536700  1
  O  O357  1  0.153300  0.422100  0.409300  1
  O  O358  1  0.846700  0.577900  0.590700  1
  O  O359  1  0.291400  0.322100  0.421500  1
  O  O360  1  0.708600  0.677900  0.578500  1
  F  F361  1  0.426300  0.784000  0.919000  1
  F  F362  1  0.573700  0.216000  0.081000  1
  F  F363  1  0.665700  0.763700  0.951400  1
  F  F364  1  0.334300  0.236300  0.048600  1
  F  F365  1  0.553200  0.670700  0.934400  1
  F  F366  1  0.446800  0.329300  0.065600  1
  F  F367  1  0.536400  0.879000  0.933200  1
  F  F368  1  0.463600  0.121000  0.066800  1
  F  F369  1  0.561000  0.744100  0.868600  1
  F  F370  1  0.439000  0.255900  0.131400  1
  F  F371  1  0.530300  0.806300  0.001700  1
  F  F372  1  0.469700  0.193700  0.998300  1
  F  F373  1  0.127600  0.585400  0.975860  1
  F  F374  1  0.872400  0.414600  0.024140  1
  F  F375  1  0.186700  0.566000  0.851500  1
  F  F376  1  0.813300  0.434000  0.148500  1
  F  F377  1  0.200500  0.669900  0.938000  1
  F  F378  1  0.799500  0.330100  0.062000  1
  F  F379  1  0.112200  0.481600  0.889700  1
  F  F380  1  0.887800  0.518400  0.110300  1
  F  F381  1  0.265900  0.521200  0.931200  1
  F  F382  1  0.734100  0.478800  0.068800  1
  F  F383  1  0.047100  0.630400  0.896500  1
  F  F384  1  0.952900  0.369600  0.103500  1
  F  F385  1  0.342900  0.062700  0.634890  1
  F  F386  1  0.657100  0.937300  0.365110  1
  F  F387  1  0.160900  0.055000  0.529330  1
  F  F388  1  0.839100  0.945000  0.470670  1
  F  F389  1  0.170600  0.115600  0.625580  1
  F  F390  1  0.829400  0.884400  0.374420  1
  F  F391  1  0.331200  0.002800  0.538120  1
  F  F392  1  0.668800  0.997200  0.461880  1
  F  F393  1  0.231700  0.965000  0.591400  1
  F  F394  1  0.768300  0.035000  0.408600  1
  F  F395  1  0.272000  0.153200  0.573700  1
  F  F396  1  0.728000  0.846800  0.426300  1
  F  F397  1  0.678500  0.472600  0.454800  1
  F  F398  1  0.321500  0.527400  0.545200  1
  F  F399  1  0.731500  0.259200  0.434100  1
  F  F400  1  0.268500  0.740800  0.565900  1
  F  F401  1  0.605300  0.363700  0.404200  1
  F  F402  1  0.394700  0.636300  0.595800  1
  F  F403  1  0.808000  0.371300  0.488300  1
  F  F404  1  0.192000  0.628700  0.511700  1
  F  F405  1  0.698700  0.393200  0.505400  1
  F  F406  1  0.301300  0.606800  0.494600  1
  F  F407  1  0.728200  0.330700  0.381800  1
  F  F408  1  0.271800  0.669300  0.618200  1
  F  F409  1  0.588200  0.386400  0.426600  1
  F  F410  1  0.411800  0.613600  0.573400  1
  F  F411  1  0.824200  0.331200  0.455100  1
  F  F412  1  0.175800  0.668800  0.544900  1
  F  F413  1  0.638900  0.365400  0.503400  1
  F  F414  1  0.361100  0.634600  0.496600  1
  F  F415  1  0.760600  0.363200  0.387800  1
  F  F416  1  0.239400  0.636800  0.612200  1
  F  F417  1  0.666900  0.275800  0.457400  1
  F  F418  1  0.333100  0.724200  0.542600  1
  F  F419  1  0.731200  0.457500  0.438600  1
  F  F420  1  0.268800  0.542500  0.561400  1
