# generated using pymatgen
data_Fe2Co2P4H64C92N22Cl15F28
_symmetry_space_group_name_H-M   'P 1'
_cell_length_a   13.50100000
_cell_length_b   14.13800000
_cell_length_c   29.24300000
_cell_angle_alpha   77.43000000
_cell_angle_beta   81.04000000
_cell_angle_gamma   82.32000000
_symmetry_Int_Tables_number   1
_chemical_formula_structural   Fe2Co2P4H64C92N22Cl15F28
_chemical_formula_sum   'Fe4 Co4 P8 H128 C184 N44 Cl30 F56'
_cell_volume   5352.67020447
_cell_formula_units_Z   2
loop_
 _symmetry_equiv_pos_site_id
 _symmetry_equiv_pos_as_xyz
  1  'x, y, z'
loop_
 _atom_site_type_symbol
 _atom_site_label
 _atom_site_symmetry_multiplicity
 _atom_site_fract_x
 _atom_site_fract_y
 _atom_site_fract_z
 _atom_site_occupancy
  Fe  Fe1  1  0.950550  0.245460  0.178890  1
  Fe  Fe2  1  0.049450  0.754540  0.821110  1
  Fe  Fe3  1  0.352630  0.266010  0.300740  1
  Fe  Fe4  1  0.647370  0.733990  0.699260  1
  Co  Co5  1  0.974710  0.318090  0.336600  1
  Co  Co6  1  0.025290  0.681910  0.663400  1
  Co  Co7  1  0.322510  0.153240  0.151430  1
  Co  Co8  1  0.677490  0.846760  0.848570  1
  P  P9  1  0.948640  0.849920  0.115640  1
  P  P10  1  0.051360  0.150080  0.884360  1
  P  P11  1  0.104600  0.708410  0.366910  1
  P  P12  1  0.895400  0.291590  0.633090  1
  P  P13  1  0.710840  0.573200  0.043760  1
  P  P14  1  0.289160  0.426800  0.956240  1
  P  P15  1  0.569700  0.816410  0.268390  1
  P  P16  1  0.430300  0.183590  0.731610  1
  H  H17  1  0.776600  0.397900  0.149300  1
  H  H18  1  0.223400  0.602100  0.850700  1
  H  H19  1  0.604400  0.402600  0.151600  1
  H  H20  1  0.395600  0.597400  0.848400  1
  H  H21  1  0.527800  0.262200  0.182600  1
  H  H22  1  0.472200  0.737800  0.817400  1
  H  H23  1  0.623300  0.118800  0.209700  1
  H  H24  1  0.376700  0.881200  0.790300  1
  H  H25  1  0.727000  0.992500  0.241100  1
  H  H26  1  0.273000  0.007500  0.758900  1
  H  H27  1  0.843000  0.870500  0.271300  1
  H  H28  1  0.157000  0.129500  0.728700  1
  H  H29  1  0.012000  0.899800  0.261900  1
  H  H30  1  0.988000  0.100200  0.738100  1
  H  H31  1  0.058400  0.048100  0.221300  1
  H  H32  1  0.941600  0.951900  0.778700  1
  H  H33  1  0.928400  0.096400  0.118500  1
  H  H34  1  0.071600  0.903600  0.881500  1
  H  H35  1  0.958100  0.090300  0.040000  1
  H  H36  1  0.041900  0.909700  0.960000  1
  H  H37  1  0.002100  0.224700  0.984400  1
  H  H38  1  0.997900  0.775300  0.015600  1
  H  H39  1  0.033500  0.362000  0.010000  1
  H  H40  1  0.966500  0.638000  0.990000  1
  H  H41  1  0.061100  0.486400  0.041600  1
  H  H42  1  0.938900  0.513600  0.958400  1
  H  H43  1  0.061600  0.614000  0.079200  1
  H  H44  1  0.938400  0.386000  0.920800  1
  H  H45  1  0.001600  0.596000  0.158700  1
  H  H46  1  0.998400  0.404000  0.841300  1
  H  H47  1  0.952900  0.449000  0.199800  1
  H  H48  1  0.047100  0.551000  0.800200  1
  H  H49  1  0.092100  0.486600  0.277200  1
  H  H50  1  0.907900  0.513400  0.722800  1
  H  H51  1  0.054700  0.644300  0.239200  1
  H  H52  1  0.945300  0.355700  0.760800  1
  H  H53  1  0.889400  0.714300  0.245800  1
  H  H54  1  0.110600  0.285700  0.754200  1
  H  H55  1  0.766700  0.627600  0.293500  1
  H  H56  1  0.233300  0.372400  0.706500  1
  H  H57  1  0.656900  0.533700  0.342500  1
  H  H58  1  0.343100  0.466300  0.657500  1
  H  H59  1  0.556900  0.426300  0.393900  1
  H  H60  1  0.443100  0.573700  0.606100  1
  H  H61  1  0.625900  0.269600  0.425400  1
  H  H62  1  0.374100  0.730400  0.574600  1
  H  H63  1  0.794100  0.227900  0.403300  1
  H  H64  1  0.205900  0.772100  0.596700  1
  H  H65  1  0.011500  0.476300  0.388600  1
  H  H66  1  0.988500  0.523700  0.611400  1
  H  H67  1  0.054100  0.485000  0.460000  1
  H  H68  1  0.945900  0.515000  0.540000  1
  H  H69  1  0.080300  0.344500  0.515600  1
  H  H70  1  0.919700  0.655500  0.484400  1
  H  H71  1  0.063300  0.194600  0.497300  1
  H  H72  1  0.936700  0.805400  0.502700  1
  H  H73  1  0.066100  0.058600  0.469300  1
  H  H74  1  0.933900  0.941400  0.530700  1
  H  H75  1  0.047000  0.926700  0.437200  1
  H  H76  1  0.953000  0.073300  0.562800  1
  H  H77  1  0.991300  0.952900  0.364400  1
  H  H78  1  0.008700  0.047100  0.635600  1
  H  H79  1  0.960500  0.109600  0.323200  1
  H  H80  1  0.039500  0.890400  0.676800  1
  H  H81  1  0.215500  0.100900  0.340700  1
  H  H82  1  0.784500  0.899100  0.659300  1
  H  H83  1  0.230000  0.942200  0.375800  1
  H  H84  1  0.770000  0.057800  0.624200  1
  H  H85  1  0.385500  0.865200  0.390600  1
  H  H86  1  0.614500  0.134800  0.609400  1
  H  H87  1  0.525800  0.952200  0.366700  1
  H  H88  1  0.474200  0.047800  0.633300  1
  H  H89  1  0.651700  0.047300  0.344900  1
  H  H90  1  0.348300  0.952700  0.655100  1
  H  H91  1  0.772100  0.156000  0.316800  1
  H  H92  1  0.227900  0.844000  0.683200  1
  H  H93  1  0.722600  0.313200  0.280600  1
  H  H94  1  0.277400  0.686800  0.719400  1
  H  H95  1  0.554000  0.359000  0.274100  1
  H  H96  1  0.446000  0.641000  0.725900  1
  H  H97  1  0.372200  0.404800  0.203600  1
  H  H98  1  0.627800  0.595200  0.796400  1
  H  H99  1  0.398200  0.563800  0.174100  1
  H  H100  1  0.601800  0.436200  0.825900  1
  H  H101  1  0.406800  0.665500  0.224900  1
  H  H102  1  0.593200  0.334500  0.775100  1
  H  H103  1  0.381100  0.606200  0.304900  1
  H  H104  1  0.618900  0.393800  0.695100  1
  H  H105  1  0.336800  0.535700  0.383700  1
  H  H106  1  0.663200  0.464300  0.616300  1
  H  H107  1  0.317300  0.448300  0.459200  1
  H  H108  1  0.682700  0.551700  0.540800  1
  H  H109  1  0.314800  0.279700  0.473600  1
  H  H110  1  0.685200  0.720300  0.526400  1
  H  H111  1  0.329000  0.206400  0.409400  1
  H  H112  1  0.671000  0.793600  0.590600  1
  H  H113  1  0.233000  0.368400  0.126300  1
  H  H114  1  0.767000  0.631600  0.873700  1
  H  H115  1  0.290900  0.514700  0.089500  1
  H  H116  1  0.709100  0.485300  0.910500  1
  H  H117  1  0.454500  0.519400  0.053300  1
  H  H118  1  0.545500  0.480600  0.946700  1
  H  H119  1  0.558900  0.374600  0.054900  1
  H  H120  1  0.441100  0.625400  0.945100  1
  H  H121  1  0.646400  0.228000  0.057600  1
  H  H122  1  0.353600  0.772000  0.942400  1
  H  H123  1  0.735400  0.076900  0.075900  1
  H  H124  1  0.264600  0.923100  0.924100  1
  H  H125  1  0.657600  0.950400  0.125900  1
  H  H126  1  0.342400  0.049600  0.874100  1
  H  H127  1  0.490000  0.979300  0.158000  1
  H  H128  1  0.510000  0.020700  0.842000  1
  H  H129  1  0.328300  0.008800  0.246400  1
  H  H130  1  0.671700  0.991200  0.753600  1
  H  H131  1  0.272200  0.859000  0.281600  1
  H  H132  1  0.727800  0.141000  0.718400  1
  H  H133  1  0.201000  0.776200  0.237200  1
  H  H134  1  0.799000  0.223800  0.762800  1
  H  H135  1  0.188100  0.844500  0.158000  1
  H  H136  1  0.811900  0.155500  0.842000  1
  H  H137  1  0.190200  0.915200  0.082900  1
  H  H138  1  0.809800  0.084800  0.917100  1
  H  H139  1  0.186500  0.005900  0.006400  1
  H  H140  1  0.813500  0.994100  0.993600  1
  H  H141  1  0.246000  0.156000  0.986600  1
  H  H142  1  0.754000  0.844000  0.013400  1
  H  H143  1  0.304100  0.217000  0.043300  1
  H  H144  1  0.695900  0.783000  0.956700  1
  C  C145  1  0.939600  0.272500  0.241100  1
  C  C146  1  0.060400  0.727500  0.758900  1
  C  C147  1  0.205800  0.287600  0.306660  1
  C  C148  1  0.794200  0.712400  0.693340  1
  C  C149  1  0.359700  0.219500  0.241650  1
  C  C150  1  0.640300  0.780500  0.758350  1
  C  C151  1  0.094200  0.217200  0.175560  1
  C  C152  1  0.905800  0.782800  0.824440  1
  C  C153  1  0.745400  0.341400  0.162010  1
  C  C154  1  0.254600  0.658600  0.837990  1
  C  C155  1  0.642200  0.344800  0.163050  1
  C  C156  1  0.357800  0.655200  0.836950  1
  C  C157  1  0.597100  0.261200  0.181340  1
  C  C158  1  0.402900  0.738800  0.818660  1
  C  C159  1  0.653500  0.176000  0.197770  1
  C  C160  1  0.346500  0.824000  0.802230  1
  C  C161  1  0.757400  0.177100  0.196250  1
  C  C162  1  0.242600  0.822900  0.803750  1
  C  C163  1  0.825500  0.093100  0.214520  1
  C  C164  1  0.174500  0.906900  0.785480  1
  C  C165  1  0.794600  0.003100  0.237800  1
  C  C166  1  0.205400  0.996900  0.762200  1
  C  C167  1  0.863000  0.930800  0.255500  1
  C  C168  1  0.137000  0.069200  0.744500  1
  C  C169  1  0.963900  0.948100  0.249700  1
  C  C170  1  0.036100  0.051900  0.750300  1
  C  C171  1  0.990900  0.037200  0.225680  1
  C  C172  1  0.009100  0.962800  0.774320  1
  C  C173  1  0.949900  0.150400  0.096580  1
  C  C174  1  0.050100  0.849600  0.903420  1
  C  C175  1  0.966300  0.147100  0.049460  1
  C  C176  1  0.033700  0.852900  0.950540  1
  C  C177  1  0.994300  0.225900  0.016400  1
  C  C178  1  0.005700  0.774100  0.983600  1
  C  C179  1  0.010900  0.308200  0.031700  1
  C  C180  1  0.989100  0.691800  0.968300  1
  C  C181  1  0.993600  0.309400  0.079210  1
  C  C182  1  0.006400  0.690600  0.920790  1
  C  C183  1  0.003000  0.393900  0.099490  1
  C  C184  1  0.997000  0.606100  0.900510  1
  C  C185  1  0.038100  0.480000  0.073640  1
  C  C186  1  0.961900  0.520000  0.926360  1
  C  C187  1  0.038400  0.555600  0.096000  1
  C  C188  1  0.961600  0.444400  0.904000  1
  C  C189  1  0.004200  0.544500  0.143300  1
  C  C190  1  0.995800  0.455500  0.856700  1
  C  C191  1  0.974000  0.456600  0.167550  1
  C  C192  1  0.026000  0.543400  0.832450  1
  C  C193  1  0.025700  0.514700  0.280300  1
  C  C194  1  0.974300  0.485300  0.719700  1
  C  C195  1  0.003900  0.609100  0.257400  1
  C  C196  1  0.996100  0.390900  0.742600  1
  C  C197  1  0.905700  0.651000  0.261800  1
  C  C198  1  0.094300  0.349000  0.738200  1
  C  C199  1  0.833000  0.599500  0.289500  1
  C  C200  1  0.167000  0.400500  0.710500  1
  C  C201  1  0.859400  0.503500  0.312100  1
  C  C202  1  0.140600  0.496500  0.687900  1
  C  C203  1  0.786500  0.439700  0.343100  1
  C  C204  1  0.213500  0.560300  0.656900  1
  C  C205  1  0.683800  0.471100  0.355100  1
  C  C206  1  0.316200  0.528900  0.644900  1
  C  C207  1  0.624700  0.407100  0.385700  1
  C  C208  1  0.375300  0.592900  0.614300  1
  C  C209  1  0.665100  0.313800  0.404500  1
  C  C210  1  0.334900  0.686200  0.595500  1
  C  C211  1  0.765900  0.290000  0.390800  1
  C  C212  1  0.234100  0.710000  0.609200  1
  C  C213  1  0.021600  0.419000  0.410810  1
  C  C214  1  0.978400  0.581000  0.589190  1
  C  C215  1  0.047400  0.424800  0.453500  1
  C  C216  1  0.952600  0.575200  0.546500  1
  C  C217  1  0.063200  0.341800  0.486400  1
  C  C218  1  0.936800  0.658200  0.513600  1
  C  C219  1  0.053300  0.252400  0.475400  1
  C  C220  1  0.946700  0.747600  0.524600  1
  C  C221  1  0.028200  0.251500  0.431160  1
  C  C222  1  0.971800  0.748500  0.568840  1
  C  C223  1  0.019300  0.161400  0.414600  1
  C  C224  1  0.980700  0.838600  0.585400  1
  C  C225  1  0.043300  0.068100  0.440100  1
  C  C226  1  0.956700  0.931900  0.559900  1
  C  C227  1  0.032400  0.989900  0.420800  1
  C  C228  1  0.967600  0.010100  0.579200  1
  C  C229  1  0.999900  0.005300  0.377300  1
  C  C230  1  0.000100  0.994700  0.622700  1
  C  C231  1  0.980100  0.099400  0.353100  1
  C  C232  1  0.019900  0.900600  0.646900  1
  C  C233  1  0.279000  0.071200  0.347100  1
  C  C234  1  0.721000  0.928800  0.652900  1
  C  C235  1  0.286900  0.976000  0.367600  1
  C  C236  1  0.713100  0.024000  0.632400  1
  C  C237  1  0.378300  0.930600  0.375900  1
  C  C238  1  0.621700  0.069400  0.624100  1
  C  C239  1  0.461700  0.982800  0.362200  1
  C  C240  1  0.538300  0.017200  0.637800  1
  C  C241  1  0.448400  0.079700  0.342030  1
  C  C242  1  0.551600  0.920300  0.657970  1
  C  C243  1  0.532400  0.141800  0.325200  1
  C  C244  1  0.467600  0.858200  0.674800  1
  C  C245  1  0.632800  0.111000  0.330300  1
  C  C246  1  0.367200  0.889000  0.669700  1
  C  C247  1  0.704600  0.175800  0.313600  1
  C  C248  1  0.295400  0.824200  0.686400  1
  C  C249  1  0.675500  0.268500  0.292300  1
  C  C250  1  0.324500  0.731500  0.707700  1
  C  C251  1  0.573800  0.295300  0.288340  1
  C  C252  1  0.426200  0.704700  0.711660  1
  C  C253  1  0.375300  0.444900  0.224600  1
  C  C254  1  0.624700  0.555100  0.775400  1
  C  C255  1  0.390500  0.540400  0.206600  1
  C  C256  1  0.609500  0.459600  0.793400  1
  C  C257  1  0.394400  0.601000  0.236600  1
  C  C258  1  0.605600  0.399000  0.763400  1
  C  C259  1  0.379900  0.565500  0.284000  1
  C  C260  1  0.620100  0.434500  0.716000  1
  C  C261  1  0.363200  0.468300  0.301100  1
  C  C262  1  0.636800  0.531700  0.698900  1
  C  C263  1  0.349000  0.420800  0.351000  1
  C  C264  1  0.651000  0.579200  0.649000  1
  C  C265  1  0.336600  0.468400  0.389200  1
  C  C266  1  0.663400  0.531600  0.610800  1
  C  C267  1  0.324400  0.416400  0.434000  1
  C  C268  1  0.675600  0.583600  0.566000  1
  C  C269  1  0.322300  0.316300  0.443000  1
  C  C270  1  0.677700  0.683700  0.557000  1
  C  C271  1  0.331700  0.273400  0.404100  1
  C  C272  1  0.668300  0.726600  0.595900  1
  C  C273  1  0.299400  0.369600  0.112000  1
  C  C274  1  0.700600  0.630400  0.888000  1
  C  C275  1  0.333700  0.457400  0.089900  1
  C  C276  1  0.666300  0.542600  0.910100  1
  C  C277  1  0.430500  0.460300  0.068400  1
  C  C278  1  0.569500  0.539700  0.931600  1
  C  C279  1  0.492600  0.374000  0.069400  1
  C  C280  1  0.507400  0.626000  0.930600  1
  C  C281  1  0.456200  0.287600  0.091950  1
  C  C282  1  0.543800  0.712400  0.908050  1
  C  C283  1  0.516300  0.191400  0.098000  1
  C  C284  1  0.483700  0.808600  0.902000  1
  C  C285  1  0.615700  0.177000  0.078100  1
  C  C286  1  0.384300  0.823000  0.921900  1
  C  C287  1  0.668400  0.087000  0.088800  1
  C  C288  1  0.331600  0.913000  0.911200  1
  C  C289  1  0.622600  0.011800  0.118600  1
  C  C290  1  0.377400  0.988200  0.881400  1
  C  C291  1  0.522100  0.029500  0.137600  1
  C  C292  1  0.477900  0.970500  0.862400  1
  C  C293  1  0.299800  0.975200  0.228500  1
  C  C294  1  0.700200  0.024800  0.771500  1
  C  C295  1  0.266200  0.885300  0.250000  1
  C  C296  1  0.733800  0.114700  0.750000  1
  C  C297  1  0.224300  0.836300  0.223600  1
  C  C298  1  0.775700  0.163700  0.776400  1
  C  C299  1  0.216700  0.876800  0.176300  1
  C  C300  1  0.783300  0.123200  0.823700  1
  C  C301  1  0.252600  0.966100  0.157260  1
  C  C302  1  0.747400  0.033900  0.842740  1
  C  C303  1  0.248000  0.016200  0.107570  1
  C  C304  1  0.752000  0.983800  0.892430  1
  C  C305  1  0.212700  0.976800  0.074600  1
  C  C306  1  0.787300  0.023200  0.925400  1
  C  C307  1  0.211200  0.030700  0.028900  1
  C  C308  1  0.788800  0.969300  0.971100  1
  C  C309  1  0.245800  0.119600  0.017200  1
  C  C310  1  0.754200  0.880400  0.982800  1
  C  C311  1  0.280800  0.155700  0.051400  1
  C  C312  1  0.719200  0.844300  0.948600  1
  C  C313  1  0.720700  0.656600  0.170700  1
  C  C314  1  0.279300  0.343400  0.829300  1
  C  C315  1  0.697700  0.570200  0.203800  1
  C  C316  1  0.302300  0.429800  0.796200  1
  C  C317  1  0.535600  0.225100  0.933300  1
  C  C318  1  0.464400  0.774900  0.066700  1
  C  C319  1  0.221100  0.200000  0.608600  1
  C  C320  1  0.778900  0.800000  0.391400  1
  C  C321  1  0.217900  0.330000  0.586500  1
  C  C322  1  0.782100  0.670000  0.413500  1
  C  C323  1  0.283600  0.005300  0.530400  1
  C  C324  1  0.716400  0.994700  0.469600  1
  C  C325  1  0.262100  0.693900  0.473800  1
  C  C326  1  0.737900  0.306100  0.526200  1
  C  C327  1  0.536300  0.643100  0.449900  1
  C  C328  1  0.463700  0.356900  0.550100  1
  N  N329  1  0.940700  0.286100  0.278120  1
  N  N330  1  0.059300  0.713900  0.721880  1
  N  N331  1  0.120600  0.302600  0.313440  1
  N  N332  1  0.879400  0.697400  0.686560  1
  N  N333  1  0.356000  0.189100  0.209920  1
  N  N334  1  0.644000  0.810900  0.790080  1
  N  N335  1  0.177800  0.199000  0.168410  1
  N  N336  1  0.822200  0.801000  0.831590  1
  N  N337  1  0.923000  0.110100  0.208100  1
  N  N338  1  0.077000  0.889900  0.791900  1
  N  N339  1  0.802400  0.258900  0.178890  1
  N  N340  1  0.197600  0.741100  0.821110  1
  N  N341  1  0.964600  0.230700  0.111790  1
  N  N342  1  0.035400  0.769300  0.888210  1
  N  N343  1  0.973500  0.381300  0.146660  1
  N  N344  1  0.026500  0.618700  0.853340  1
  N  N345  1  0.954400  0.461200  0.307280  1
  N  N346  1  0.045600  0.538800  0.692720  1
  N  N347  1  0.825900  0.349500  0.360870  1
  N  N348  1  0.174100  0.650500  0.639130  1
  N  N349  1  0.010300  0.334500  0.399530  1
  N  N350  1  0.989700  0.665500  0.600470  1
  N  N351  1  0.988400  0.177000  0.371510  1
  N  N352  1  0.011600  0.823000  0.628490  1
  N  N353  1  0.355800  0.126000  0.335330  1
  N  N354  1  0.644200  0.874000  0.664670  1
  N  N355  1  0.503500  0.234000  0.304050  1
  N  N356  1  0.496500  0.766000  0.695950  1
  N  N357  1  0.364900  0.407200  0.270370  1
  N  N358  1  0.635100  0.592800  0.729630  1
  N  N359  1  0.344400  0.321800  0.360040  1
  N  N360  1  0.655600  0.678200  0.639960  1
  N  N361  1  0.360100  0.284200  0.113510  1
  N  N362  1  0.639900  0.715800  0.886490  1
  N  N363  1  0.470800  0.118400  0.127060  1
  N  N364  1  0.529200  0.881600  0.872940  1
  N  N365  1  0.292500  0.015000  0.183480  1
  N  N366  1  0.707500  0.985000  0.816520  1
  N  N367  1  0.282300  0.105300  0.096020  1
  N  N368  1  0.717700  0.894700  0.903980  1
  N  N369  1  0.679000  0.501300  0.230700  1
  N  N370  1  0.321000  0.498700  0.769300  1
  N  N371  1  0.264000  0.363000  0.573100  1
  N  N372  1  0.736000  0.637000  0.426900  1
  Cl  Cl373  1  0.524400  0.113200  0.972500  1
  Cl  Cl374  1  0.475600  0.886800  0.027500  1
  Cl  Cl375  1  0.529300  0.213200  0.876030  1
  Cl  Cl376  1  0.470700  0.786800  0.123970  1
  Cl  Cl377  1  0.648800  0.268250  0.936420  1
  Cl  Cl378  1  0.351200  0.731750  0.063580  1
  Cl  Cl379  1  0.381300  0.925300  0.538100  1
  Cl  Cl380  1  0.618700  0.074700  0.461900  1
  Cl  Cl381  1  0.235800  0.969200  0.583500  1
  Cl  Cl382  1  0.764200  0.030800  0.416500  1
  Cl  Cl383  1  0.218700  0.957600  0.519800  1
  Cl  Cl384  1  0.781300  0.042400  0.480200  1
  Cl  Cl385  1  0.317400  0.051900  0.477000  1
  Cl  Cl386  1  0.682600  0.948100  0.523000  1
  Cl  Cl387  1  0.197600  0.100900  0.530700  1
  Cl  Cl388  1  0.802400  0.899100  0.469300  1
  Cl  Cl389  1  0.354400  0.067000  0.548600  1
  Cl  Cl390  1  0.645600  0.933000  0.451400  1
  Cl  Cl391  1  0.393600  0.674100  0.454600  1
  Cl  Cl392  1  0.606400  0.325900  0.545400  1
  Cl  Cl393  1  0.223800  0.596800  0.514380  1
  Cl  Cl394  1  0.776200  0.403200  0.485620  1
  Cl  Cl395  1  0.226000  0.803500  0.488180  1
  Cl  Cl396  1  0.774000  0.196500  0.511820  1
  Cl  Cl397  1  0.514600  0.753800  0.470000  1
  Cl  Cl398  1  0.485400  0.246200  0.530000  1
  Cl  Cl399  1  0.481500  0.548800  0.489000  1
  Cl  Cl400  1  0.518500  0.451200  0.511000  1
  Cl  Cl401  1  0.487300  0.659700  0.398200  1
  Cl  Cl402  1  0.512700  0.340300  0.601800  1
  F  F403  1  0.000100  0.927300  0.134060  1
  F  F404  1  0.999900  0.072700  0.865940  1
  F  F405  1  0.901900  0.771200  0.096750  1
  F  F406  1  0.098100  0.228800  0.903250  1
  F  F407  1  0.954000  0.913800  0.065300  1
  F  F408  1  0.046000  0.086200  0.934700  1
  F  F409  1  0.051600  0.796900  0.099500  1
  F  F410  1  0.948400  0.203100  0.900500  1
  F  F411  1  0.949000  0.783400  0.163900  1
  F  F412  1  0.051000  0.216600  0.836100  1
  F  F413  1  0.847800  0.904000  0.129300  1
  F  F414  1  0.152200  0.096000  0.870700  1
  F  F415  1  0.157300  0.654900  0.327400  1
  F  F416  1  0.842700  0.345100  0.672600  1
  F  F417  1  0.047200  0.761700  0.407110  1
  F  F418  1  0.952800  0.238300  0.592890  1
  F  F419  1  0.061700  0.791000  0.329420  1
  F  F420  1  0.938300  0.209000  0.670580  1
  F  F421  1  0.145000  0.624000  0.406500  1
  F  F422  1  0.855000  0.376000  0.593500  1
  F  F423  1  0.008800  0.652300  0.370100  1
  F  F424  1  0.991200  0.347700  0.629900  1
  F  F425  1  0.201300  0.758200  0.364500  1
  F  F426  1  0.798700  0.241800  0.635500  1
  F  F427  1  0.638400  0.548500  0.092390  1
  F  F428  1  0.361600  0.451500  0.907610  1
  F  F429  1  0.776100  0.600800  0.993710  1
  F  F430  1  0.223900  0.399200  0.006290  1
  F  F431  1  0.714600  0.678100  0.054050  1
  F  F432  1  0.285400  0.321900  0.945950  1
  F  F433  1  0.614800  0.617200  0.018900  1
  F  F434  1  0.385200  0.382800  0.981100  1
  F  F435  1  0.700800  0.471100  0.032400  1
  F  F436  1  0.299200  0.528900  0.967600  1
  F  F437  1  0.802200  0.534200  0.070500  1
  F  F438  1  0.197800  0.465800  0.929500  1
  F  F439  1  0.464000  0.809800  0.299150  1
  F  F440  1  0.536000  0.190200  0.700850  1
  F  F441  1  0.546600  0.931600  0.254300  1
  F  F442  1  0.453400  0.068400  0.745700  1
  F  F443  1  0.676600  0.820900  0.237400  1
  F  F444  1  0.323400  0.179100  0.762600  1
  F  F445  1  0.620000  0.830700  0.311000  1
  F  F446  1  0.380000  0.169300  0.689000  1
  F  F447  1  0.519400  0.807000  0.223830  1
  F  F448  1  0.480600  0.193000  0.776170  1
  F  F449  1  0.592200  0.701000  0.280600  1
  F  F450  1  0.407800  0.299000  0.719400  1
  F  F451  1  0.014000  0.883000  0.066600  1
  F  F452  1  0.986000  0.117000  0.933400  1
  F  F453  1  0.868000  0.928200  0.095200  1
  F  F454  1  0.132000  0.071800  0.904800  1
  F  F455  1  0.036000  0.774400  0.132200  1
  F  F456  1  0.964000  0.225600  0.867800  1
  F  F457  1  0.881000  0.824000  0.163400  1
  F  F458  1  0.119000  0.176000  0.836600  1
