# generated using pymatgen
data_SnH24C34SO3
_symmetry_space_group_name_H-M   'P 1'
_cell_length_a   11.37010000
_cell_length_b   20.30023062
_cell_length_c   20.30023062
_cell_angle_alpha   116.59718837
_cell_angle_beta   100.76020560
_cell_angle_gamma   100.76020560
_symmetry_Int_Tables_number   1
_chemical_formula_structural   SnH24C34SO3
_chemical_formula_sum   'Sn6 H144 C204 S6 O18'
_cell_volume   3916.41529026
_cell_formula_units_Z   6
loop_
 _symmetry_equiv_pos_site_id
 _symmetry_equiv_pos_as_xyz
  1  'x, y, z'
loop_
 _atom_site_type_symbol
 _atom_site_label
 _atom_site_symmetry_multiplicity
 _atom_site_fract_x
 _atom_site_fract_y
 _atom_site_fract_z
 _atom_site_occupancy
  C  C1  1  0.111350  0.819060  0.687890  1.0
  C  C2  1  0.292290  0.868830  0.180940  1.0
  C  C3  1  0.423460  0.312110  0.131170  1.0
  C  C4  1  0.888650  0.180940  0.312110  1.0
  C  C5  1  0.707710  0.131170  0.819060  1.0
  C  C6  1  0.576540  0.687890  0.868830  1.0
  C  C7  1  0.015840  0.755700  0.672920  1.0
  C  C8  1  0.260140  0.917220  0.244300  1.0
  C  C9  1  0.342920  0.327080  0.082780  1.0
  C  C10  1  0.984160  0.244300  0.327080  1.0
  C  C11  1  0.739860  0.082780  0.755700  1.0
  C  C12  1  0.657080  0.672920  0.917220  1.0
  C  C13  1  0.909820  0.765870  0.695690  1.0
  C  C14  1  0.143950  0.929820  0.234130  1.0
  C  C15  1  0.214130  0.304310  0.070180  1.0
  C  C16  1  0.090180  0.234130  0.304310  1.0
  C  C17  1  0.856050  0.070180  0.765870  1.0
  C  C18  1  0.785870  0.695690  0.929820  1.0
  C  C19  1  0.899890  0.839790  0.735680  1.0
  C  C20  1  0.060100  0.895890  0.160210  1.0
  C  C21  1  0.164210  0.264320  0.104110  1.0
  C  C22  1  0.100110  0.160210  0.264320  1.0
  C  C23  1  0.939900  0.104110  0.839790  1.0
  C  C24  1  0.835790  0.735680  0.895890  1.0
  C  C25  1  0.995400  0.902930  0.751770  1.0
  C  C26  1  0.092470  0.848840  0.097070  1.0
  C  C27  1  0.243630  0.248230  0.151160  1.0
  C  C28  1  0.004600  0.097070  0.248230  1.0
  C  C29  1  0.907530  0.151160  0.902930  1.0
  C  C30  1  0.756370  0.751770  0.848840  1.0
  C  C31  1  0.100030  0.893110  0.727180  1.0
  C  C32  1  0.206920  0.834070  0.106890  1.0
  C  C33  1  0.372850  0.272820  0.165930  1.0
  C  C34  1  0.899970  0.106890  0.272820  1.0
  C  C35  1  0.793080  0.165930  0.893110  1.0
  C  C36  1  0.627150  0.727180  0.834070  1.0
  C  C37  1  0.446800  0.860660  0.740940  1.0
  C  C38  1  0.586140  0.880280  0.139340  1.0
  C  C39  1  0.705860  0.259060  0.119720  1.0
  C  C40  1  0.553200  0.139340  0.259060  1.0
  C  C41  1  0.413860  0.119720  0.860660  1.0
  C  C42  1  0.294140  0.740940  0.880280  1.0
  C  C43  1  0.558990  0.897570  0.735800  1.0
  C  C44  1  0.661420  0.838230  0.102430  1.0
  C  C45  1  0.823190  0.264200  0.161770  1.0
  C  C46  1  0.441010  0.102430  0.264200  1.0
  C  C47  1  0.338580  0.161770  0.897570  1.0
  C  C48  1  0.176810  0.735800  0.838230  1.0
  C  C49  1  0.667470  0.934700  0.798810  1.0
  C  C50  1  0.732770  0.864110  0.065300  1.0
  C  C51  1  0.868660  0.201190  0.135890  1.0
  C  C52  1  0.332530  0.065300  0.201190  1.0
  C  C53  1  0.267230  0.135890  0.934700  1.0
  C  C54  1  0.131340  0.798810  0.864110  1.0
  C  C55  1  0.665840  0.935350  0.867070  1.0
  C  C56  1  0.730490  0.931720  0.064650  1.0
  C  C57  1  0.798770  0.132930  0.068280  1.0
  C  C58  1  0.334160  0.064650  0.132930  1.0
  C  C59  1  0.269510  0.068280  0.935350  1.0
  C  C60  1  0.201230  0.867070  0.931720  1.0
  C  C61  1  0.556220  0.899030  0.873030  1.0
  C  C62  1  0.657190  0.974000  0.100970  1.0
  C  C63  1  0.683190  0.126970  0.026000  1.0
  C  C64  1  0.443780  0.100970  0.126970  1.0
  C  C65  1  0.342810  0.026000  0.899030  1.0
  C  C66  1  0.316810  0.873030  0.974000  1.0
  C  C67  1  0.447480  0.862090  0.809950  1.0
  C  C68  1  0.585390  0.947860  0.137910  1.0
  C  C69  1  0.637530  0.190050  0.052140  1.0
  C  C70  1  0.552520  0.137910  0.190050  1.0
  C  C71  1  0.414610  0.052140  0.862090  1.0
  C  C72  1  0.362470  0.809950  0.947860  1.0
  C  C73  1  0.234150  0.723310  0.532240  1.0
  C  C74  1  0.510840  0.808930  0.276690  1.0
  C  C75  1  0.701910  0.467760  0.191070  1.0
  C  C76  1  0.765850  0.276690  0.467760  1.0
  C  C77  1  0.489160  0.191070  0.723310  1.0
  C  C78  1  0.298090  0.532240  0.808930  1.0
  C  C79  1  0.125860  0.660010  0.497770  1.0
  C  C80  1  0.465850  0.837760  0.339990  1.0
  C  C81  1  0.628090  0.502230  0.162240  1.0
  C  C82  1  0.874140  0.339990  0.502230  1.0
  C  C83  1  0.534150  0.162240  0.660010  1.0
  C  C84  1  0.371910  0.497770  0.837760  1.0
  C  C85  1  0.095510  0.602790  0.421340  1.0
  C  C86  1  0.492720  0.818550  0.397210  1.0
  C  C87  1  0.674170  0.578660  0.181450  1.0
  C  C88  1  0.904490  0.397210  0.578660  1.0
  C  C89  1  0.507280  0.181450  0.602790  1.0
  C  C90  1  0.325830  0.421340  0.818550  1.0
  C  C91  1  0.173320  0.608780  0.378180  1.0
  C  C92  1  0.564540  0.769400  0.391220  1.0
  C  C93  1  0.795140  0.621820  0.230600  1.0
  C  C94  1  0.826680  0.391220  0.621820  1.0
  C  C95  1  0.435460  0.230600  0.608780  1.0
  C  C96  1  0.204860  0.378180  0.769400  1.0
  C  C97  1  0.280330  0.671570  0.411420  1.0
  C  C98  1  0.608760  0.739850  0.328430  1.0
  C  C99  1  0.868910  0.588580  0.260150  1.0
  C  C100  1  0.719670  0.328430  0.588580  1.0
  C  C101  1  0.391240  0.260150  0.671570  1.0
  C  C102  1  0.131090  0.411420  0.739850  1.0
  C  C103  1  0.311300  0.728380  0.488020  1.0
  C  C104  1  0.582920  0.759640  0.271620  1.0
  C  C105  1  0.823280  0.511980  0.240360  1.0
  C  C106  1  0.688700  0.271620  0.511980  1.0
  C  C107  1  0.417080  0.240360  0.728380  1.0
  C  C108  1  0.176720  0.488020  0.759640  1.0
  C  C109  1  0.283970  0.573800  0.576810  1.0
  C  C110  1  0.710170  0.003010  0.426200  1.0
  C  C111  1  0.707160  0.423190  0.996990  1.0
  C  C112  1  0.716030  0.426200  0.423190  1.0
  C  C113  1  0.289830  0.996990  0.573800  1.0
  C  C114  1  0.292840  0.576810  0.003010  1.0
  C  C115  1  0.196890  0.502980  0.520490  1.0
  C  C116  1  0.693910  0.017510  0.497020  1.0
  C  C117  1  0.676400  0.479510  0.982490  1.0
  C  C118  1  0.803110  0.497020  0.479510  1.0
  C  C119  1  0.306090  0.982490  0.502980  1.0
  C  C120  1  0.323600  0.520490  0.017510  1.0
  C  C121  1  0.214520  0.462000  0.449660  1.0
  C  C122  1  0.752520  0.987660  0.538000  1.0
  C  C123  1  0.764860  0.550340  0.012340  1.0
  C  C124  1  0.785480  0.538000  0.550340  1.0
  C  C125  1  0.247480  0.012340  0.462000  1.0
  C  C126  1  0.235140  0.449660  0.987660  1.0
  C  C127  1  0.319220  0.490640  0.432420  1.0
  C  C128  1  0.828580  0.941780  0.509360  1.0
  C  C129  1  0.886800  0.567580  0.058220  1.0
  C  C130  1  0.680780  0.509360  0.567580  1.0
  C  C131  1  0.171420  0.058220  0.490640  1.0
  C  C132  1  0.113200  0.432420  0.941780  1.0
  C  C133  1  0.338270  0.448640  0.357570  1.0
  C  C134  1  0.889630  0.908930  0.551360  1.0
  C  C135  1  0.980700  0.642430  0.091070  1.0
  C  C136  1  0.661730  0.551360  0.642430  1.0
  C  C137  1  0.110370  0.091070  0.448640  1.0
  C  C138  1  0.019300  0.357570  0.908930  1.0
  C  C139  1  0.439260  0.476880  0.342200  1.0
  C  C140  1  0.962380  0.865320  0.523120  1.0
  C  C141  1  0.097060  0.657800  0.134680  1.0
  C  C142  1  0.560740  0.523120  0.657800  1.0
  C  C143  1  0.037620  0.134680  0.476880  1.0
  C  C144  1  0.902940  0.342200  0.865320  1.0
  C  C145  1  0.532420  0.549480  0.398480  1.0
  C  C146  1  0.982940  0.849000  0.450520  1.0
  C  C147  1  0.133940  0.601520  0.151000  1.0
  C  C148  1  0.467580  0.450520  0.601520  1.0
  C  C149  1  0.017060  0.151000  0.549480  1.0
  C  C150  1  0.866060  0.398480  0.849000  1.0
  C  C151  1  0.638140  0.580010  0.383310  1.0
  C  C152  1  0.058130  0.803300  0.419990  1.0
  C  C153  1  0.254830  0.616690  0.196700  1.0
  C  C154  1  0.361860  0.419990  0.616690  1.0
  C  C155  1  0.941870  0.196700  0.580010  1.0
  C  C156  1  0.745170  0.383310  0.803300  1.0
  C  C157  1  0.725120  0.650730  0.438530  1.0
  C  C158  1  0.074390  0.787800  0.349270  1.0
  C  C159  1  0.286590  0.561470  0.212200  1.0
  C  C160  1  0.274880  0.349270  0.561470  1.0
  C  C161  1  0.925610  0.212200  0.650730  1.0
  C  C162  1  0.713410  0.438530  0.787800  1.0
  C  C163  1  0.709340  0.693770  0.509250  1.0
  C  C164  1  0.015570  0.815480  0.306230  1.0
  C  C165  1  0.200090  0.490750  0.184520  1.0
  C  C166  1  0.290660  0.306230  0.490750  1.0
  C  C167  1  0.984430  0.184520  0.693770  1.0
  C  C168  1  0.799910  0.509250  0.815480  1.0
  C  C169  1  0.605180  0.665770  0.527470  1.0
  C  C170  1  0.939410  0.861700  0.334230  1.0
  C  C171  1  0.077710  0.472530  0.138300  1.0
  C  C172  1  0.394820  0.334230  0.472530  1.0
  C  C173  1  0.060590  0.138300  0.665770  1.0
  C  C174  1  0.922290  0.527470  0.861700  1.0
  C  C175  1  0.585130  0.707640  0.600350  1.0
  C  C176  1  0.877490  0.892710  0.292360  1.0
  C  C177  1  0.984780  0.399650  0.107290  1.0
  C  C178  1  0.414870  0.292360  0.399650  1.0
  C  C179  1  0.122510  0.107290  0.707640  1.0
  C  C180  1  0.015220  0.600350  0.892710  1.0
  C  C181  1  0.485510  0.679070  0.618060  1.0
  C  C182  1  0.806440  0.938990  0.320930  1.0
  C  C183  1  0.867450  0.381940  0.061010  1.0
  C  C184  1  0.514490  0.320930  0.381940  1.0
  C  C185  1  0.193560  0.061010  0.679070  1.0
  C  C186  1  0.132550  0.618060  0.938990  1.0
  C  C187  1  0.392090  0.605780  0.563490  1.0
  C  C188  1  0.786310  0.957710  0.394220  1.0
  C  C189  1  0.828600  0.436510  0.042290  1.0
  C  C190  1  0.607910  0.394220  0.436510  1.0
  C  C191  1  0.213690  0.042290  0.605780  1.0
  C  C192  1  0.171400  0.563490  0.957710  1.0
  C  C193  1  0.409220  0.562730  0.489330  1.0
  C  C194  1  0.846490  0.926600  0.437270  1.0
  C  C195  1  0.919890  0.510670  0.073400  1.0
  C  C196  1  0.590780  0.437270  0.510670  1.0
  C  C197  1  0.153510  0.073400  0.562730  1.0
  C  C198  1  0.080110  0.489330  0.926600  1.0
  C  C199  1  0.515760  0.592520  0.471960  1.0
  C  C200  1  0.923240  0.879440  0.407480  1.0
  C  C201  1  0.043800  0.528040  0.120560  1.0
  C  C202  1  0.484240  0.407480  0.528040  1.0
  C  C203  1  0.076760  0.120560  0.592520  1.0
  C  C204  1  0.956200  0.471960  0.879440  1.0
  H  H205  1  0.023100  0.706200  0.647600  1.0
  H  H206  1  0.316900  0.941400  0.293800  1.0
  H  H207  1  0.375500  0.352400  0.058600  1.0
  H  H208  1  0.976900  0.293800  0.352400  1.0
  H  H209  1  0.683100  0.058600  0.706200  1.0
  H  H210  1  0.624500  0.647600  0.941400  1.0
  H  H211  1  0.845200  0.723100  0.684100  1.0
  H  H212  1  0.122100  0.961000  0.276900  1.0
  H  H213  1  0.161100  0.315900  0.039000  1.0
  H  H214  1  0.154800  0.276900  0.315900  1.0
  H  H215  1  0.877900  0.039000  0.723100  1.0
  H  H216  1  0.838900  0.684100  0.961000  1.0
  H  H217  1  0.829200  0.846600  0.751400  1.0
  H  H218  1  0.982600  0.904800  0.153400  1.0
  H  H219  1  0.077800  0.248600  0.095200  1.0
  H  H220  1  0.170800  0.153400  0.248600  1.0
  H  H221  1  0.017400  0.095200  0.846600  1.0
  H  H222  1  0.922200  0.751400  0.904800  1.0
  H  H223  1  0.989600  0.952500  0.779300  1.0
  H  H224  1  0.037100  0.826800  0.047500  1.0
  H  H225  1  0.210300  0.220700  0.173200  1.0
  H  H226  1  0.010400  0.047500  0.220700  1.0
  H  H227  1  0.962900  0.173200  0.952500  1.0
  H  H228  1  0.789700  0.779300  0.826800  1.0
  H  H229  1  0.162600  0.935900  0.736800  1.0
  H  H230  1  0.226700  0.800900  0.064100  1.0
  H  H231  1  0.425800  0.263200  0.199100  1.0
  H  H232  1  0.837400  0.064100  0.263200  1.0
  H  H233  1  0.773300  0.199100  0.935900  1.0
  H  H234  1  0.574200  0.736800  0.800900  1.0
  H  H235  1  0.560800  0.897200  0.690000  1.0
  H  H236  1  0.663600  0.792800  0.102800  1.0
  H  H237  1  0.870800  0.310000  0.207200  1.0
  H  H238  1  0.439200  0.102800  0.310000  1.0
  H  H239  1  0.336400  0.207200  0.897200  1.0
  H  H240  1  0.129200  0.690000  0.792800  1.0
  H  H241  1  0.741600  0.959200  0.795100  1.0
  H  H242  1  0.782400  0.835900  0.040800  1.0
  H  H243  1  0.946500  0.204900  0.164100  1.0
  H  H244  1  0.258400  0.040800  0.204900  1.0
  H  H245  1  0.217600  0.164100  0.959200  1.0
  H  H246  1  0.053500  0.795100  0.835900  1.0
  H  H247  1  0.738900  0.960400  0.909100  1.0
  H  H248  1  0.778500  0.948700  0.039600  1.0
  H  H249  1  0.829800  0.090900  0.051300  1.0
  H  H250  1  0.261100  0.039600  0.090900  1.0
  H  H251  1  0.221500  0.051300  0.960400  1.0
  H  H252  1  0.170200  0.909100  0.948700  1.0
  H  H253  1  0.555100  0.899200  0.918700  1.0
  H  H254  1  0.655900  0.019500  0.100800  1.0
  H  H255  1  0.636400  0.081300  0.980500  1.0
  H  H256  1  0.444900  0.100800  0.081300  1.0
  H  H257  1  0.344100  0.980500  0.899200  1.0
  H  H258  1  0.363600  0.918700  0.019500  1.0
  H  H259  1  0.373600  0.837900  0.814100  1.0
  H  H260  1  0.535700  0.976200  0.162100  1.0
  H  H261  1  0.559500  0.185900  0.023800  1.0
  H  H262  1  0.626400  0.162100  0.185900  1.0
  H  H263  1  0.464300  0.023800  0.837900  1.0
  H  H264  1  0.440500  0.814100  0.976200  1.0
  H  H265  1  0.073100  0.656200  0.526600  1.0
  H  H266  1  0.416900  0.870400  0.343800  1.0
  H  H267  1  0.546500  0.473400  0.129600  1.0
  H  H268  1  0.926900  0.343800  0.473400  1.0
  H  H269  1  0.583100  0.129600  0.656200  1.0
  H  H270  1  0.453500  0.526600  0.870400  1.0
  H  H271  1  0.023400  0.560600  0.399300  1.0
  H  H272  1  0.462800  0.838700  0.439400  1.0
  H  H273  1  0.624100  0.600700  0.161300  1.0
  H  H274  1  0.976600  0.439400  0.600700  1.0
  H  H275  1  0.537200  0.161300  0.560600  1.0
  H  H276  1  0.375900  0.399300  0.838700  1.0
  H  H277  1  0.153500  0.570500  0.326700  1.0
  H  H278  1  0.583000  0.756200  0.429500  1.0
  H  H279  1  0.826800  0.673300  0.243800  1.0
  H  H280  1  0.846500  0.429500  0.673300  1.0
  H  H281  1  0.417000  0.243800  0.570500  1.0
  H  H282  1  0.173200  0.326700  0.756200  1.0
  H  H283  1  0.332100  0.675700  0.382000  1.0
  H  H284  1  0.656400  0.706300  0.324300  1.0
  H  H285  1  0.950100  0.618000  0.293700  1.0
  H  H286  1  0.667900  0.324300  0.618000  1.0
  H  H287  1  0.343600  0.293700  0.675700  1.0
  H  H288  1  0.049900  0.382000  0.706300  1.0
  H  H289  1  0.384100  0.770200  0.510100  1.0
  H  H290  1  0.613900  0.739900  0.229800  1.0
  H  H291  1  0.874000  0.489900  0.260100  1.0
  H  H292  1  0.615900  0.229800  0.489900  1.0
  H  H293  1  0.386100  0.260100  0.770200  1.0
  H  H294  1  0.126000  0.510100  0.739900  1.0
  H  H295  1  0.126300  0.483000  0.530600  1.0
  H  H296  1  0.643300  0.047600  0.517000  1.0
  H  H297  1  0.595700  0.469400  0.952400  1.0
  H  H298  1  0.873700  0.517000  0.469400  1.0
  H  H299  1  0.356700  0.952400  0.483000  1.0
  H  H300  1  0.404300  0.530600  0.047600  1.0
  H  H301  1  0.155700  0.414400  0.412600  1.0
  H  H302  1  0.741300  0.998200  0.585600  1.0
  H  H303  1  0.743100  0.587400  0.001800  1.0
  H  H304  1  0.844300  0.585600  0.587400  1.0
  H  H305  1  0.258700  0.001800  0.414400  1.0
  H  H306  1  0.256900  0.412600  0.998200  1.0
  H  H307  1  0.279300  0.401400  0.319700  1.0
  H  H308  1  0.877900  0.918300  0.598600  1.0
  H  H309  1  0.959600  0.680300  0.081700  1.0
  H  H310  1  0.720700  0.598600  0.680300  1.0
  H  H311  1  0.122100  0.081700  0.401400  1.0
  H  H312  1  0.040400  0.319700  0.918300  1.0
  H  H313  1  0.449200  0.448800  0.293900  1.0
  H  H314  1  0.000400  0.845100  0.551200  1.0
  H  H315  1  0.155300  0.706100  0.154900  1.0
  H  H316  1  0.550800  0.551200  0.706100  1.0
  H  H317  1  0.999600  0.154900  0.448800  1.0
  H  H318  1  0.844700  0.293900  0.845100  1.0
  H  H319  1  0.650000  0.552400  0.335500  1.0
  H  H320  1  0.097600  0.783100  0.447600  1.0
  H  H321  1  0.314500  0.664500  0.216900  1.0
  H  H322  1  0.350000  0.447600  0.664500  1.0
  H  H323  1  0.902400  0.216900  0.552400  1.0
  H  H324  1  0.685500  0.335500  0.783100  1.0
  H  H325  1  0.795600  0.669500  0.427500  1.0
  H  H326  1  0.126100  0.758000  0.330500  1.0
  H  H327  1  0.368100  0.572500  0.242000  1.0
  H  H328  1  0.204400  0.330500  0.572500  1.0
  H  H329  1  0.873900  0.242000  0.669500  1.0
  H  H330  1  0.631900  0.427500  0.758000  1.0
  H  H331  1  0.768100  0.741700  0.545200  1.0
  H  H332  1  0.026400  0.803500  0.258300  1.0
  H  H333  1  0.222900  0.454800  0.196500  1.0
  H  H334  1  0.231900  0.258300  0.454800  1.0
  H  H335  1  0.973600  0.196500  0.741700  1.0
  H  H336  1  0.777100  0.545200  0.803500  1.0
  H  H337  1  0.642000  0.756000  0.636800  1.0
  H  H338  1  0.886000  0.880800  0.244000  1.0
  H  H339  1  0.005200  0.363200  0.119200  1.0
  H  H340  1  0.358000  0.244000  0.363200  1.0
  H  H341  1  0.114000  0.119200  0.756000  1.0
  H  H342  1  0.994800  0.636800  0.880800  1.0
  H  H343  1  0.477500  0.707700  0.666800  1.0
  H  H344  1  0.769800  0.959100  0.292300  1.0
  H  H345  1  0.810700  0.333200  0.040900  1.0
  H  H346  1  0.522500  0.292300  0.333200  1.0
  H  H347  1  0.230200  0.040900  0.707700  1.0
  H  H348  1  0.189300  0.666800  0.959100  1.0
  O  O349  1  0.255470  0.702590  0.676020  1.0
  O  O350  1  0.552880  0.973430  0.297410  1.0
  O  O351  1  0.579450  0.323980  0.026570  1.0
  O  O352  1  0.744530  0.297410  0.323980  1.0
  O  O353  1  0.447120  0.026570  0.702590  1.0
  O  O354  1  0.420550  0.676020  0.973430  1.0
  O  O355  1  0.127370  0.582300  0.656510  1.0
  O  O356  1  0.545070  0.074210  0.417700  1.0
  O  O357  1  0.470860  0.343490  0.925790  1.0
  O  O358  1  0.872630  0.417700  0.343490  1.0
  O  O359  1  0.454930  0.925790  0.582300  1.0
  O  O360  1  0.529140  0.656510  0.074210  1.0
  O  O361  1  0.351440  0.631550  0.725970  1.0
  O  O362  1  0.719890  0.094420  0.368450  1.0
  O  O363  1  0.625470  0.274030  0.905580  1.0
  O  O364  1  0.648560  0.368450  0.274030  1.0
  O  O365  1  0.280110  0.905580  0.631550  1.0
  O  O366  1  0.374530  0.725970  0.094420  1.0
  S  S367  1  0.249160  0.625280  0.663810  1.0
  S  S368  1  0.623880  0.038530  0.374720  1.0
  S  S369  1  0.585350  0.336190  0.961470  1.0
  S  S370  1  0.750840  0.374720  0.336190  1.0
  S  S371  1  0.376120  0.961470  0.625280  1.0
  S  S372  1  0.414650  0.663810  0.038530  1.0
  Sn  Sn373  1  0.272820  0.805035  0.650525  1.0
  Sn  Sn374  1  0.467785  0.845490  0.194965  1.0
  Sn  Sn375  1  0.622295  0.349475  0.154510  1.0
  Sn  Sn376  1  0.727180  0.194965  0.349475  1.0
  Sn  Sn377  1  0.532215  0.154510  0.805035  1.0
  Sn  Sn378  1  0.377705  0.650525  0.845490  1.0
