# generated using pymatgen
data_SiAgBH14C12N2OF4
_symmetry_space_group_name_H-M   'P 1'
_cell_length_a   8.52960000
_cell_length_b   13.40640000
_cell_length_c   14.85560000
_cell_angle_alpha   80.82100000
_cell_angle_beta   83.58040000
_cell_angle_gamma   76.83490000
_symmetry_Int_Tables_number   1
_chemical_formula_structural   SiAgBH14C12N2OF4
_chemical_formula_sum   'Si4 Ag4 B4 H56 C48 N8 O4 F16'
_cell_volume   1627.88632438
_cell_formula_units_Z   4
loop_
 _symmetry_equiv_pos_site_id
 _symmetry_equiv_pos_as_xyz
  1  'x, y, z'
loop_
 _atom_site_type_symbol
 _atom_site_label
 _atom_site_symmetry_multiplicity
 _atom_site_fract_x
 _atom_site_fract_y
 _atom_site_fract_z
 _atom_site_occupancy
  Si  Si1  1  0.370000  0.392370  0.169970  1.0
  Si  Si2  1  0.630000  0.607630  0.830030  1.0
  Si  Si3  1  0.971620  0.131600  0.716350  1.0
  Si  Si4  1  0.028380  0.868400  0.283650  1.0
  Ag  Ag5  1  0.304910  0.013540  0.048440  1.0
  Ag  Ag6  1  0.695090  0.986460  0.951560  1.0
  Ag  Ag7  1  0.491870  0.664610  0.408850  1.0
  Ag  Ag8  1  0.508130  0.335390  0.591150  1.0
  B  B9  1  0.840300  0.254500  0.392100  1
  B  B10  1  0.159700  0.745500  0.607900  1
  B  B11  1  0.575300  0.746700  0.122000  1
  B  B12  1  0.424700  0.253300  0.878000  1
  H  H13  1  0.132000  0.109000  0.882600  1.0
  H  H14  1  0.868000  0.891000  0.117400  1.0
  H  H15  1  0.984900  0.902700  0.764400  1.0
  H  H16  1  0.015100  0.097300  0.235600  1.0
  H  H17  1  0.095500  0.775700  0.876800  1.0
  H  H18  1  0.904500  0.224300  0.123200  1.0
  H  H19  1  0.224300  0.817800  0.988800  1.0
  H  H20  1  0.775700  0.182200  0.011200  1.0
  H  H21  1  0.287700  0.226700  0.090100  1.0
  H  H22  1  0.712300  0.773300  0.909900  1.0
  H  H23  1  0.549400  0.227000  0.294900  1.0
  H  H24  1  0.450600  0.773000  0.705100  1.0
  H  H25  1  0.612800  0.048000  0.312500  1.0
  H  H26  1  0.387200  0.952000  0.687500  1.0
  H  H27  1  0.515100  0.964800  0.215400  1.0
  H  H28  1  0.484900  0.035200  0.784600  1.0
  H  H29  1  0.473800  0.535400  0.264700  1.0
  H  H30  1  0.526200  0.464600  0.735300  1.0
  H  H31  1  0.164100  0.350300  0.343500  1.0
  H  H32  1  0.835900  0.649700  0.656500  1.0
  H  H33  1  0.120900  0.410700  0.482400  1.0
  H  H34  1  0.879100  0.589300  0.517600  1.0
  H  H35  1  0.248100  0.534900  0.508900  1.0
  H  H36  1  0.751900  0.465100  0.491100  1.0
  H  H37  1  0.499500  0.828100  0.531500  1.0
  H  H38  1  0.500500  0.171900  0.468500  1.0
  H  H39  1  0.661200  0.934800  0.554900  1.0
  H  H40  1  0.338800  0.065200  0.445100  1.0
  H  H41  1  0.881400  0.953900  0.454000  1.0
  H  H42  1  0.118600  0.046100  0.546000  1.0
  H  H43  1  0.768400  0.755900  0.311400  1.0
  H  H44  1  0.231600  0.244100  0.688600  1.0
  H  H45  1  0.174600  0.520200  0.091400  1.0
  H  H46  1  0.825400  0.479800  0.908600  1.0
  H  H47  1  0.098000  0.426100  0.135000  1.0
  H  H48  1  0.902000  0.573900  0.865000  1.0
  H  H49  1  0.211100  0.419900  0.044400  1.0
  H  H50  1  0.788900  0.580100  0.955600  1.0
  H  H51  1  0.648100  0.396600  0.154600  1.0
  H  H52  1  0.351900  0.603400  0.845400  1.0
  H  H53  1  0.549700  0.501100  0.106500  1.0
  H  H54  1  0.450300  0.498900  0.893500  1.0
  H  H55  1  0.588400  0.401900  0.057600  1.0
  H  H56  1  0.411600  0.598100  0.942400  1.0
  H  H57  1  0.991500  0.268300  0.795200  1.0
  H  H58  1  0.008500  0.731700  0.204800  1.0
  H  H59  1  0.815200  0.249400  0.812100  1.0
  H  H60  1  0.184800  0.750600  0.187900  1.0
  H  H61  1  0.869400  0.311200  0.719700  1.0
  H  H62  1  0.130600  0.688800  0.280300  1.0
  H  H63  1  0.722300  0.090500  0.702200  1.0
  H  H64  1  0.277700  0.909500  0.297800  1.0
  H  H65  1  0.855800  0.031900  0.636500  1.0
  H  H66  1  0.144200  0.968100  0.363500  1.0
  H  H67  1  0.780200  0.149500  0.609100  1.0
  H  H68  1  0.219800  0.850500  0.390900  1.0
  C  C69  1  0.124200  0.041300  0.880600  1.0
  C  C70  1  0.875800  0.958700  0.119400  1.0
  C  C71  1  0.045300  0.023400  0.810100  1.0
  C  C72  1  0.954700  0.976600  0.189900  1.0
  C  C73  1  0.036200  0.919700  0.810000  1.0
  C  C74  1  0.963800  0.080300  0.190000  1.0
  C  C75  1  0.102300  0.843900  0.876800  1.0
  C  C76  1  0.897700  0.156100  0.123200  1.0
  C  C77  1  0.179000  0.869600  0.943900  1.0
  C  C78  1  0.821000  0.130400  0.056100  1.0
  C  C79  1  0.353300  0.191000  0.135900  1.0
  C  C80  1  0.646700  0.809000  0.864100  1.0
  C  C81  1  0.406700  0.247400  0.191100  1.0
  C  C82  1  0.593300  0.752600  0.808900  1.0
  C  C83  1  0.507800  0.192000  0.257100  1.0
  C  C84  1  0.492200  0.808000  0.742900  1.0
  C  C85  1  0.547200  0.085600  0.267300  1.0
  C  C86  1  0.452800  0.914400  0.732700  1.0
  C  C87  1  0.487200  0.036600  0.209300  1.0
  C  C88  1  0.512800  0.963400  0.790700  1.0
  C  C89  1  0.400400  0.510100  0.308400  1.0
  C  C90  1  0.599600  0.489900  0.691600  1.0
  C  C91  1  0.325500  0.436600  0.286500  1.0
  C  C92  1  0.674500  0.563400  0.713500  1.0
  C  C93  1  0.217900  0.399700  0.354400  1.0
  C  C94  1  0.782100  0.600300  0.645600  1.0
  C  C95  1  0.191500  0.436100  0.436900  1.0
  C  C96  1  0.808500  0.563900  0.563100  1.0
  C  C97  1  0.268700  0.510000  0.452800  1.0
  C  C98  1  0.731300  0.490000  0.547200  1.0
  C  C99  1  0.589100  0.834400  0.490900  1.0
  C  C100  1  0.410900  0.165600  0.509100  1.0
  C  C101  1  0.684800  0.898900  0.504800  1.0
  C  C102  1  0.315200  0.101100  0.495200  1.0
  C  C103  1  0.815900  0.910300  0.444500  1.0
  C  C104  1  0.184100  0.089700  0.555500  1.0
  C  C105  1  0.149100  0.143100  0.630900  1.0
  C  C106  1  0.850900  0.856900  0.369100  1.0
  C  C107  1  0.748100  0.792700  0.361000  1.0
  C  C108  1  0.251900  0.207300  0.639000  1.0
  C  C109  1  0.191900  0.446200  0.102000  1.0
  C  C110  1  0.808100  0.553800  0.898000  1.0
  C  C111  1  0.562500  0.427200  0.115500  1.0
  C  C112  1  0.437500  0.572800  0.884500  1.0
  C  C113  1  0.903600  0.255200  0.767000  1.0
  C  C114  1  0.096400  0.744800  0.233000  1.0
  C  C115  1  0.813400  0.096600  0.659100  1.0
  C  C116  1  0.186600  0.903400  0.340900  1.0
  N  N117  1  0.190400  0.967600  0.946300  1.0
  N  N118  1  0.809600  0.032400  0.053700  1.0
  N  N119  1  0.390700  0.086700  0.144400  1.0
  N  N120  1  0.609300  0.913300  0.855600  1.0
  N  N121  1  0.373100  0.547200  0.389400  1.0
  N  N122  1  0.626900  0.452800  0.610600  1.0
  N  N123  1  0.621100  0.780300  0.420400  1.0
  N  N124  1  0.378900  0.219700  0.579600  1.0
  O  O125  1  0.804000  0.536000  0.301800  1
  O  O126  1  0.196000  0.464000  0.698200  1
  O  O127  1  0.995000  0.205000  0.358200  1
  O  O128  1  0.005000  0.795000  0.641800  1
  F  F129  1  0.913800  0.280000  0.458100  1
  F  F130  1  0.086200  0.720000  0.541900  1
  F  F131  1  0.871300  0.296900  0.305100  1
  F  F132  1  0.128700  0.703100  0.694900  1
  F  F133  1  0.817000  0.157400  0.402800  1
  F  F134  1  0.183000  0.842600  0.597200  1
  F  F135  1  0.683500  0.307500  0.404700  1
  F  F136  1  0.316500  0.692500  0.595300  1
  F  F137  1  0.560300  0.722800  0.208300  1
  F  F138  1  0.439700  0.277200  0.791700  1
  F  F139  1  0.507000  0.838000  0.110400  1
  F  F140  1  0.493000  0.162000  0.889600  1
  F  F141  1  0.501600  0.703300  0.071400  1
  F  F142  1  0.498400  0.296700  0.928600  1
  F  F143  1  0.709900  0.769000  0.085600  1
  F  F144  1  0.290100  0.231000  0.914400  1
