# generated using pymatgen
data_Ag4H37Ru3C61S3N12O16F9
_symmetry_space_group_name_H-M   'P 1'
_cell_length_a   16.09978182
_cell_length_b   16.09978182
_cell_length_c   31.27600000
_cell_angle_alpha   86.44648826
_cell_angle_beta   86.44648826
_cell_angle_gamma   71.89697321
_symmetry_Int_Tables_number   1
_chemical_formula_structural   Ag4H37Ru3C61S3N12O16F9
_chemical_formula_sum   'Ag16 H148 Ru12 C244 S12 N48 O64 F36'
_cell_volume   7682.92114007
_cell_formula_units_Z   4
loop_
 _symmetry_equiv_pos_site_id
 _symmetry_equiv_pos_as_xyz
  1  'x, y, z'
loop_
 _atom_site_type_symbol
 _atom_site_label
 _atom_site_symmetry_multiplicity
 _atom_site_fract_x
 _atom_site_fract_y
 _atom_site_fract_z
 _atom_site_occupancy
  Ag  Ag1  1  0.876710  0.652910  0.380850  1.0
  Ag  Ag2  1  0.347090  0.123290  0.119150  1.0
  Ag  Ag3  1  0.123290  0.347090  0.619150  1.0
  Ag  Ag4  1  0.652910  0.876710  0.880850  1.0
  Ag  Ag5  1  0.219230  0.335230  0.334430  1.0
  Ag  Ag6  1  0.664770  0.780770  0.165570  1.0
  Ag  Ag7  1  0.780770  0.664770  0.665570  1.0
  Ag  Ag8  1  0.335230  0.219230  0.834430  1.0
  Ag  Ag9  1  0.276000  0.506200  0.506940  1.0
  Ag  Ag10  1  0.493800  0.724000  0.993060  1.0
  Ag  Ag11  1  0.724000  0.493800  0.493060  1.0
  Ag  Ag12  1  0.506200  0.276000  0.006940  1.0
  Ag  Ag13  1  0.998000  0.220800  0.493880  1.0
  Ag  Ag14  1  0.779200  0.002000  0.006120  1.0
  Ag  Ag15  1  0.002000  0.779200  0.506120  1.0
  Ag  Ag16  1  0.220800  0.998000  0.993880  1.0
  C  C17  1  0.577000  0.579000  0.789800  1
  C  C18  1  0.421000  0.423000  0.710200  1
  C  C19  1  0.423000  0.421000  0.210200  1
  C  C20  1  0.579000  0.577000  0.289800  1
  C  C21  1  0.526000  0.336000  0.522000  1
  C  C22  1  0.664000  0.474000  0.978000  1
  C  C23  1  0.474000  0.664000  0.478000  1
  C  C24  1  0.336000  0.526000  0.022000  1
  C  C25  1  0.584000  0.314000  0.356000  1
  C  C26  1  0.686000  0.416000  0.144000  1
  C  C27  1  0.416000  0.686000  0.644000  1
  C  C28  1  0.314000  0.584000  0.856000  1
  C  C29  1  0.467000  0.277000  0.355000  1
  C  C30  1  0.723000  0.533000  0.145000  1
  C  C31  1  0.533000  0.723000  0.645000  1
  C  C32  1  0.277000  0.467000  0.855000  1
  C  C33  1  0.008000  0.592000  0.482000  1
  C  C34  1  0.408000  0.992000  0.018000  1
  C  C35  1  0.992000  0.408000  0.518000  1
  C  C36  1  0.592000  0.008000  0.982000  1
  C  C37  1  0.063000  0.519000  0.524000  1
  C  C38  1  0.481000  0.937000  0.976000  1
  C  C39  1  0.937000  0.481000  0.476000  1
  C  C40  1  0.519000  0.063000  0.024000  1
  C  C41  1  0.051000  0.469000  0.514000  1
  C  C42  1  0.531000  0.949000  0.986000  1
  C  C43  1  0.949000  0.531000  0.486000  1
  C  C44  1  0.469000  0.051000  0.014000  1
  C  C45  1  0.592000  0.040000  0.349000  1
  C  C46  1  0.960000  0.408000  0.151000  1
  C  C47  1  0.408000  0.960000  0.651000  1
  C  C48  1  0.040000  0.592000  0.849000  1
  C  C49  1  0.582000  0.216000  0.526000  1
  C  C50  1  0.784000  0.418000  0.974000  1
  C  C51  1  0.418000  0.784000  0.474000  1
  C  C52  1  0.216000  0.582000  0.026000  1
  C  C53  1  0.968800  0.338800  0.400100  1.0
  C  C54  1  0.661200  0.031200  0.099900  1.0
  C  C55  1  0.031200  0.661200  0.599900  1.0
  C  C56  1  0.338800  0.968800  0.900100  1.0
  C  C57  1  0.744600  0.512600  0.391400  1.0
  C  C58  1  0.487400  0.255400  0.108600  1.0
  C  C59  1  0.255400  0.487400  0.608600  1.0
  C  C60  1  0.512600  0.744600  0.891400  1.0
  C  C61  1  0.871100  0.387100  0.404900  1.0
  C  C62  1  0.612900  0.128900  0.095100  1.0
  C  C63  1  0.128900  0.612900  0.595100  1.0
  C  C64  1  0.387100  0.871100  0.904900  1.0
  C  C65  1  0.823200  0.347200  0.431400  1.0
  C  C66  1  0.652800  0.176800  0.068600  1.0
  C  C67  1  0.176800  0.652800  0.568600  1.0
  C  C68  1  0.347200  0.823200  0.931400  1.0
  C  C69  1  0.831000  0.471000  0.383600  1.0
  C  C70  1  0.529000  0.169000  0.116400  1.0
  C  C71  1  0.169000  0.529000  0.616400  1.0
  C  C72  1  0.471000  0.831000  0.883600  1.0
  C  C73  1  0.179000  0.183000  0.563400  1.0
  C  C74  1  0.817000  0.821000  0.936600  1.0
  C  C75  1  0.821000  0.817000  0.436600  1.0
  C  C76  1  0.183000  0.179000  0.063400  1.0
  C  C77  1  0.191000  0.225000  0.518600  1.0
  C  C78  1  0.775000  0.809000  0.981400  1.0
  C  C79  1  0.809000  0.775000  0.481400  1.0
  C  C80  1  0.225000  0.191000  0.018600  1.0
  C  C81  1  0.238000  0.282000  0.516300  1.0
  C  C82  1  0.718000  0.762000  0.983700  1.0
  C  C83  1  0.762000  0.718000  0.483700  1.0
  C  C84  1  0.282000  0.238000  0.016300  1.0
  C  C85  1  0.254000  0.322000  0.475700  1.0
  C  C86  1  0.678000  0.746000  0.024300  1.0
  C  C87  1  0.746000  0.678000  0.524300  1.0
  C  C88  1  0.322000  0.254000  0.975700  1.0
  C  C89  1  0.201000  0.053000  0.394300  1.0
  C  C90  1  0.947000  0.799000  0.105700  1.0
  C  C91  1  0.799000  0.947000  0.605700  1.0
  C  C92  1  0.053000  0.201000  0.894300  1.0
  C  C93  1  0.254000  0.102000  0.371900  1.0
  C  C94  1  0.898000  0.746000  0.128100  1.0
  C  C95  1  0.746000  0.898000  0.628100  1.0
  C  C96  1  0.102000  0.254000  0.871900  1.0
  C  C97  1  0.219000  0.027000  0.440100  1.0
  C  C98  1  0.973000  0.781000  0.059900  1.0
  C  C99  1  0.781000  0.973000  0.559900  1.0
  C  C100  1  0.027000  0.219000  0.940100  1.0
  C  C101  1  0.919000  0.537000  0.263200  1.0
  C  C102  1  0.463000  0.081000  0.236800  1.0
  C  C103  1  0.081000  0.463000  0.736800  1.0
  C  C104  1  0.537000  0.919000  0.763200  1.0
  C  C105  1  0.919000  0.381000  0.274300  1.0
  C  C106  1  0.619000  0.081000  0.225700  1.0
  C  C107  1  0.081000  0.619000  0.725700  1.0
  C  C108  1  0.381000  0.919000  0.774300  1.0
  C  C109  1  0.378000  0.458000  0.331200  1.0
  C  C110  1  0.542000  0.622000  0.168800  1.0
  C  C111  1  0.622000  0.542000  0.668800  1.0
  C  C112  1  0.458000  0.378000  0.831200  1.0
  C  C113  1  0.440000  0.430000  0.364000  1.0
  C  C114  1  0.570000  0.560000  0.136000  1.0
  C  C115  1  0.560000  0.570000  0.636000  1.0
  C  C116  1  0.430000  0.440000  0.864000  1.0
  C  C117  1  0.390000  0.586000  0.372000  1.0
  C  C118  1  0.414000  0.610000  0.128000  1.0
  C  C119  1  0.610000  0.414000  0.628000  1.0
  C  C120  1  0.586000  0.390000  0.872000  1.0
  C  C121  1  0.694400  0.470400  0.417400  1.0
  C  C122  1  0.529600  0.305600  0.082600  1.0
  C  C123  1  0.305600  0.529600  0.582600  1.0
  C  C124  1  0.470400  0.694400  0.917400  1.0
  C  C125  1  0.103300  0.669300  0.408300  1.0
  C  C126  1  0.330700  0.896700  0.091700  1.0
  C  C127  1  0.896700  0.330700  0.591700  1.0
  C  C128  1  0.669300  0.103300  0.908300  1.0
  C  C129  1  0.087000  0.599000  0.382500  1.0
  C  C130  1  0.401000  0.913000  0.117500  1.0
  C  C131  1  0.913000  0.401000  0.617500  1.0
  C  C132  1  0.599000  0.087000  0.882500  1.0
  C  C133  1  0.043000  0.749000  0.402600  1.0
  C  C134  1  0.251000  0.957000  0.097400  1.0
  C  C135  1  0.957000  0.251000  0.597400  1.0
  C  C136  1  0.749000  0.043000  0.902600  1.0
  C  C137  1  0.042300  0.820300  0.427000  1.0
  C  C138  1  0.179700  0.957700  0.073000  1.0
  C  C139  1  0.957700  0.179700  0.573000  1.0
  C  C140  1  0.820300  0.042300  0.927000  1.0
  C  C141  1  0.880000  0.476000  0.269600  1.0
  C  C142  1  0.524000  0.120000  0.230400  1.0
  C  C143  1  0.120000  0.524000  0.730400  1.0
  C  C144  1  0.476000  0.880000  0.769600  1.0
  C  C145  1  0.017000  0.353000  0.269100  1.0
  C  C146  1  0.647000  0.983000  0.230900  1.0
  C  C147  1  0.983000  0.647000  0.730900  1.0
  C  C148  1  0.353000  0.017000  0.769100  1.0
  C  C149  1  0.053800  0.415800  0.259100  1.0
  C  C150  1  0.584200  0.946200  0.240900  1.0
  C  C151  1  0.946200  0.584200  0.740900  1.0
  C  C152  1  0.415800  0.053800  0.759100  1.0
  C  C153  1  0.057000  0.571000  0.246200  1.0
  C  C154  1  0.429000  0.943000  0.253800  1.0
  C  C155  1  0.943000  0.429000  0.753800  1.0
  C  C156  1  0.571000  0.057000  0.746200  1.0
  C  C157  1  0.007000  0.503000  0.257600  1.0
  C  C158  1  0.497000  0.993000  0.242400  1.0
  C  C159  1  0.993000  0.497000  0.742400  1.0
  C  C160  1  0.503000  0.007000  0.757600  1.0
  C  C161  1  0.726900  0.394900  0.437600  1.0
  C  C162  1  0.605100  0.273100  0.062400  1.0
  C  C163  1  0.273100  0.605100  0.562400  1.0
  C  C164  1  0.394900  0.726900  0.937600  1.0
  C  C165  1  0.215200  0.207200  0.598100  1.0
  C  C166  1  0.792800  0.784800  0.901900  1.0
  C  C167  1  0.784800  0.792800  0.401900  1.0
  C  C168  1  0.207200  0.215200  0.098100  1.0
  C  C169  1  0.269000  0.305000  0.553300  1.0
  C  C170  1  0.695000  0.731000  0.946700  1.0
  C  C171  1  0.731000  0.695000  0.446700  1.0
  C  C172  1  0.305000  0.269000  0.053300  1.0
  C  C173  1  0.329000  0.537000  0.317500  1.0
  C  C174  1  0.463000  0.671000  0.182500  1.0
  C  C175  1  0.671000  0.463000  0.682500  1.0
  C  C176  1  0.537000  0.329000  0.817500  1.0
  C  C177  1  0.326300  0.610300  0.340200  1.0
  C  C178  1  0.389700  0.673700  0.159800  1.0
  C  C179  1  0.673700  0.389700  0.659800  1.0
  C  C180  1  0.610300  0.326300  0.840200  1.0
  C  C181  1  0.166000  0.660000  0.434500  1.0
  C  C182  1  0.340000  0.834000  0.065500  1.0
  C  C183  1  0.834000  0.340000  0.565500  1.0
  C  C184  1  0.660000  0.166000  0.934500  1.0
  C  C185  1  0.176000  0.736000  0.457800  1.0
  C  C186  1  0.264000  0.824000  0.042200  1.0
  C  C187  1  0.824000  0.264000  0.542200  1.0
  C  C188  1  0.736000  0.176000  0.957800  1.0
  C  C189  1  0.110500  0.810500  0.454800  1.0
  C  C190  1  0.189500  0.889500  0.045200  1.0
  C  C191  1  0.889500  0.189500  0.545200  1.0
  C  C192  1  0.810500  0.110500  0.954800  1.0
  C  C193  1  0.435700  0.501700  0.390300  1.0
  C  C194  1  0.498300  0.564300  0.109700  1.0
  C  C195  1  0.564300  0.498300  0.609700  1.0
  C  C196  1  0.501700  0.435700  0.890300  1.0
  C  C197  1  0.490000  0.336000  0.385000  1.0
  C  C198  1  0.664000  0.510000  0.115000  1.0
  C  C199  1  0.510000  0.664000  0.615000  1.0
  C  C200  1  0.336000  0.490000  0.885000  1.0
  C  C201  1  0.297000  0.043000  0.456600  1.0
  C  C202  1  0.957000  0.703000  0.043400  1.0
  C  C203  1  0.703000  0.957000  0.543400  1.0
  C  C204  1  0.043000  0.297000  0.956600  1.0
  C  C205  1  0.326000  0.118000  0.387100  1.0
  C  C206  1  0.882000  0.674000  0.112900  1.0
  C  C207  1  0.674000  0.882000  0.612900  1.0
  C  C208  1  0.118000  0.326000  0.887100  1.0
  C  C209  1  0.267000  0.261000  0.593100  1.0
  C  C210  1  0.739000  0.733000  0.906900  1.0
  C  C211  1  0.733000  0.739000  0.406900  1.0
  C  C212  1  0.261000  0.267000  0.093100  1.0
  C  C213  1  0.420000  0.116000  0.448000  1.0
  C  C214  1  0.884000  0.580000  0.052000  1.0
  C  C215  1  0.580000  0.884000  0.552000  1.0
  C  C216  1  0.116000  0.420000  0.948000  1.0
  C  C217  1  0.163000  0.953000  0.355000  1.0
  C  C218  1  0.047000  0.837000  0.145000  1.0
  C  C219  1  0.837000  0.047000  0.645000  1.0
  C  C220  1  0.953000  0.163000  0.855000  1.0
  C  C221  1  0.063000  0.097000  0.343000  1.0
  C  C222  1  0.903000  0.937000  0.157000  1.0
  C  C223  1  0.937000  0.903000  0.657000  1.0
  C  C224  1  0.097000  0.063000  0.843000  1.0
  C  C225  1  0.346000  0.080000  0.427600  1.0
  C  C226  1  0.920000  0.654000  0.072400  1.0
  C  C227  1  0.654000  0.920000  0.572400  1.0
  C  C228  1  0.080000  0.346000  0.927600  1.0
  C  C229  1  0.122000  0.042000  0.377000  1.0
  C  C230  1  0.958000  0.878000  0.123000  1.0
  C  C231  1  0.878000  0.958000  0.623000  1.0
  C  C232  1  0.042000  0.122000  0.877000  1.0
  C  C233  1  0.279000  0.707000  0.332000  1.0
  C  C234  1  0.293000  0.721000  0.168000  1.0
  C  C235  1  0.721000  0.293000  0.668000  1.0
  C  C236  1  0.707000  0.279000  0.832000  1.0
  C  C237  1  0.230000  0.696000  0.294000  1.0
  C  C238  1  0.304000  0.770000  0.206000  1.0
  C  C239  1  0.770000  0.304000  0.706000  1.0
  C  C240  1  0.696000  0.230000  0.794000  1.0
  C  C241  1  0.337000  0.749000  0.304000  1.0
  C  C242  1  0.251000  0.663000  0.196000  1.0
  C  C243  1  0.663000  0.251000  0.696000  1.0
  C  C244  1  0.749000  0.337000  0.804000  1.0
  C  C245  1  0.896000  0.304000  0.282000  1.0
  C  C246  1  0.696000  0.104000  0.218000  1.0
  C  C247  1  0.104000  0.696000  0.718000  1.0
  C  C248  1  0.304000  0.896000  0.782000  1.0
  C  C249  1  0.907000  0.255000  0.241000  1.0
  C  C250  1  0.745000  0.093000  0.259000  1.0
  C  C251  1  0.093000  0.745000  0.759000  1.0
  C  C252  1  0.255000  0.907000  0.741000  1.0
  C  C253  1  0.804000  0.332000  0.303000  1.0
  C  C254  1  0.668000  0.196000  0.197000  1.0
  C  C255  1  0.196000  0.668000  0.697000  1.0
  C  C256  1  0.332000  0.804000  0.803000  1.0
  C  C257  1  0.964000  0.886000  0.265000  1.0
  C  C258  1  0.114000  0.036000  0.235000  1.0
  C  C259  1  0.036000  0.114000  0.735000  1.0
  C  C260  1  0.886000  0.964000  0.765000  1.0
  F  F261  1  0.580200  0.509000  0.778000  1
  F  F262  1  0.491000  0.419800  0.722000  1
  F  F263  1  0.419800  0.491000  0.222000  1
  F  F264  1  0.509000  0.580200  0.278000  1
  F  F265  1  0.523100  0.607100  0.818600  1
  F  F266  1  0.392900  0.476900  0.681400  1
  F  F267  1  0.476900  0.392900  0.181400  1
  F  F268  1  0.607100  0.523100  0.318600  1
  F  F269  1  0.543000  0.617000  0.758000  1
  F  F270  1  0.383000  0.457000  0.742000  1
  F  F271  1  0.457000  0.383000  0.242000  1
  F  F272  1  0.617000  0.543000  0.258000  1
  F  F273  1  0.827000  0.145000  0.383000  1
  F  F274  1  0.855000  0.173000  0.117000  1
  F  F275  1  0.173000  0.855000  0.617000  1
  F  F276  1  0.145000  0.827000  0.883000  1
  F  F277  1  0.758000  0.098000  0.385000  1
  F  F278  1  0.902000  0.242000  0.115000  1
  F  F279  1  0.242000  0.902000  0.615000  1
  F  F280  1  0.098000  0.758000  0.885000  1
  F  F281  1  0.872000  0.028000  0.368000  1
  F  F282  1  0.972000  0.128000  0.132000  1
  F  F283  1  0.128000  0.972000  0.632000  1
  F  F284  1  0.028000  0.872000  0.868000  1
  F  F285  1  0.015000  0.819000  0.263400  1.0
  F  F286  1  0.181000  0.985000  0.236600  1.0
  F  F287  1  0.985000  0.181000  0.736600  1.0
  F  F288  1  0.819000  0.015000  0.763400  1.0
  F  F289  1  0.924000  0.944000  0.255000  1.0
  F  F290  1  0.056000  0.076000  0.245000  1.0
  F  F291  1  0.076000  0.056000  0.745000  1.0
  F  F292  1  0.944000  0.924000  0.755000  1.0
  F  F293  1  0.968600  0.882600  0.313000  1.0
  F  F294  1  0.117400  0.031400  0.187000  1.0
  F  F295  1  0.031400  0.117400  0.687000  1.0
  F  F296  1  0.882600  0.968600  0.813000  1.0
  H  H297  1  0.718800  0.568400  0.379500  1.0
  H  H298  1  0.431600  0.281200  0.120500  1.0
  H  H299  1  0.281200  0.431600  0.620500  1.0
  H  H300  1  0.568400  0.718800  0.879500  1.0
  H  H301  1  0.848900  0.292900  0.445000  1.0
  H  H302  1  0.707100  0.151100  0.055000  1.0
  H  H303  1  0.151100  0.707100  0.555000  1.0
  H  H304  1  0.292900  0.848900  0.945000  1.0
  H  H305  1  0.149400  0.141000  0.567100  1.0
  H  H306  1  0.859000  0.850600  0.932900  1.0
  H  H307  1  0.850600  0.859000  0.432900  1.0
  H  H308  1  0.141000  0.149400  0.067100  1.0
  H  H309  1  0.238600  0.124400  0.344500  1.0
  H  H310  1  0.875600  0.761400  0.155500  1.0
  H  H311  1  0.761400  0.875600  0.655500  1.0
  H  H312  1  0.124400  0.238600  0.844500  1.0
  H  H313  1  0.183400  0.003000  0.457600  1.0
  H  H314  1  0.997000  0.816600  0.042400  1.0
  H  H315  1  0.816600  0.997000  0.542400  1.0
  H  H316  1  0.003000  0.183400  0.957600  1.0
  H  H317  1  0.888500  0.596300  0.262500  1.0
  H  H318  1  0.403700  0.111500  0.237500  1.0
  H  H319  1  0.111500  0.403700  0.737500  1.0
  H  H320  1  0.596300  0.888500  0.762500  1.0
  H  H321  1  0.370500  0.412500  0.316600  1.0
  H  H322  1  0.587500  0.629500  0.183400  1.0
  H  H323  1  0.629500  0.587500  0.683400  1.0
  H  H324  1  0.412500  0.370500  0.816600  1.0
  H  H325  1  0.404600  0.632600  0.382600  1.0
  H  H326  1  0.367400  0.595400  0.117400  1.0
  H  H327  1  0.595400  0.367400  0.617400  1.0
  H  H328  1  0.632600  0.404600  0.882600  1.0
  H  H329  1  0.634300  0.498300  0.420600  1.0
  H  H330  1  0.501700  0.365700  0.079400  1.0
  H  H331  1  0.365700  0.501700  0.579400  1.0
  H  H332  1  0.498300  0.634300  0.920600  1.0
  H  H333  1  0.001300  0.755500  0.382300  1.0
  H  H334  1  0.244500  0.998700  0.117700  1.0
  H  H335  1  0.998700  0.244500  0.617700  1.0
  H  H336  1  0.755500  0.001300  0.882300  1.0
  H  H337  1  0.996900  0.873300  0.424700  1.0
  H  H338  1  0.126700  0.003100  0.075300  1.0
  H  H339  1  0.003100  0.126700  0.575300  1.0
  H  H340  1  0.873300  0.996900  0.924700  1.0
  H  H341  1  0.819300  0.495100  0.271400  1.0
  H  H342  1  0.504900  0.180700  0.228600  1.0
  H  H343  1  0.180700  0.504900  0.728600  1.0
  H  H344  1  0.495100  0.819300  0.771400  1.0
  H  H345  1  0.050500  0.294500  0.272700  1.0
  H  H346  1  0.705500  0.949500  0.227300  1.0
  H  H347  1  0.949500  0.705500  0.727300  1.0
  H  H348  1  0.294500  0.050500  0.772700  1.0
  H  H349  1  0.114200  0.399400  0.252900  1.0
  H  H350  1  0.600600  0.885800  0.247100  1.0
  H  H351  1  0.885800  0.600600  0.747100  1.0
  H  H352  1  0.399400  0.114200  0.752900  1.0
  H  H353  1  0.032600  0.621200  0.263400  1.0
  H  H354  1  0.378800  0.967400  0.236600  1.0
  H  H355  1  0.967400  0.378800  0.736600  1.0
  H  H356  1  0.621200  0.032600  0.763400  1.0
  H  H357  1  0.050900  0.589100  0.216400  1.0
  H  H358  1  0.410900  0.949100  0.283600  1.0
  H  H359  1  0.949100  0.410900  0.783600  1.0
  H  H360  1  0.589100  0.050900  0.716400  1.0
  H  H361  1  0.117500  0.544900  0.251800  1.0
  H  H362  1  0.455100  0.882500  0.248200  1.0
  H  H363  1  0.882500  0.455100  0.748200  1.0
  H  H364  1  0.544900  0.117500  0.751800  1.0
  H  H365  1  0.691800  0.370200  0.455400  1.0
  H  H366  1  0.629800  0.308200  0.044600  1.0
  H  H367  1  0.308200  0.629800  0.544600  1.0
  H  H368  1  0.370200  0.691800  0.955400  1.0
  H  H369  1  0.203300  0.187100  0.625500  1.0
  H  H370  1  0.812900  0.796700  0.874500  1.0
  H  H371  1  0.796700  0.812900  0.374500  1.0
  H  H372  1  0.187100  0.203300  0.125500  1.0
  H  H373  1  0.290800  0.352800  0.551400  1.0
  H  H374  1  0.647200  0.709200  0.948600  1.0
  H  H375  1  0.709200  0.647200  0.448600  1.0
  H  H376  1  0.352800  0.290800  0.051400  1.0
  H  H377  1  0.296300  0.543700  0.293300  1.0
  H  H378  1  0.456300  0.703700  0.206700  1.0
  H  H379  1  0.703700  0.456300  0.706700  1.0
  H  H380  1  0.543700  0.296300  0.793300  1.0
  H  H381  1  0.225200  0.730200  0.473400  1.0
  H  H382  1  0.269800  0.774800  0.026600  1.0
  H  H383  1  0.774800  0.269800  0.526600  1.0
  H  H384  1  0.730200  0.225200  0.973400  1.0
  H  H385  1  0.109800  0.856800  0.471300  1.0
  H  H386  1  0.143200  0.890200  0.028700  1.0
  H  H387  1  0.890200  0.143200  0.528700  1.0
  H  H388  1  0.856800  0.109800  0.971300  1.0
  H  H389  1  0.460700  0.493500  0.416900  1.0
  H  H390  1  0.506500  0.539300  0.083100  1.0
  H  H391  1  0.539300  0.506500  0.583100  1.0
  H  H392  1  0.493500  0.460700  0.916900  1.0
  H  H393  1  0.312000  0.029800  0.484900  1.0
  H  H394  1  0.970200  0.688000  0.015100  1.0
  H  H395  1  0.688000  0.970200  0.515100  1.0
  H  H396  1  0.029800  0.312000  0.984900  1.0
  H  H397  1  0.358100  0.149700  0.371700  1.0
  H  H398  1  0.850300  0.641900  0.128300  1.0
  H  H399  1  0.641900  0.850300  0.628300  1.0
  H  H400  1  0.149700  0.358100  0.871700  1.0
  H  H401  1  0.300600  0.267600  0.615400  1.0
  H  H402  1  0.732400  0.699400  0.884600  1.0
  H  H403  1  0.699400  0.732400  0.384600  1.0
  H  H404  1  0.267600  0.300600  0.115400  1.0
  H  H405  1  0.420700  0.170300  0.433200  1.0
  H  H406  1  0.829700  0.579300  0.066800  1.0
  H  H407  1  0.579300  0.829700  0.566800  1.0
  H  H408  1  0.170300  0.420700  0.933200  1.0
  H  H409  1  0.476900  0.073900  0.444700  1.0
  H  H410  1  0.926100  0.523100  0.055300  1.0
  H  H411  1  0.523100  0.926100  0.555300  1.0
  H  H412  1  0.073900  0.476900  0.944700  1.0
  H  H413  1  0.405800  0.126200  0.477900  1.0
  H  H414  1  0.873800  0.594200  0.022100  1.0
  H  H415  1  0.594200  0.873800  0.522100  1.0
  H  H416  1  0.126200  0.405800  0.977900  1.0
  H  H417  1  0.116600  0.936400  0.343200  1.0
  H  H418  1  0.063600  0.883400  0.156800  1.0
  H  H419  1  0.883400  0.063600  0.656800  1.0
  H  H420  1  0.936400  0.116600  0.843200  1.0
  H  H421  1  0.191100  0.909100  0.376000  1.0
  H  H422  1  0.090900  0.808900  0.124000  1.0
  H  H423  1  0.808900  0.090900  0.624000  1.0
  H  H424  1  0.909100  0.191100  0.876000  1.0
  H  H425  1  0.203700  0.959100  0.332700  1.0
  H  H426  1  0.040900  0.796300  0.167300  1.0
  H  H427  1  0.796300  0.040900  0.667300  1.0
  H  H428  1  0.959100  0.203700  0.832700  1.0
  H  H429  1  0.097200  0.109200  0.318800  1.0
  H  H430  1  0.890800  0.902800  0.181200  1.0
  H  H431  1  0.902800  0.890800  0.681200  1.0
  H  H432  1  0.109200  0.097200  0.818800  1.0
  H  H433  1  0.027400  0.151200  0.354800  1.0
  H  H434  1  0.848800  0.972600  0.145200  1.0
  H  H435  1  0.972600  0.848800  0.645200  1.0
  H  H436  1  0.151200  0.027400  0.854800  1.0
  H  H437  1  0.025000  0.066000  0.333900  1.0
  H  H438  1  0.934000  0.975000  0.166100  1.0
  H  H439  1  0.975000  0.934000  0.666100  1.0
  H  H440  1  0.066000  0.025000  0.833900  1.0
  H  H441  1  0.084600  0.031800  0.401300  1.0
  H  H442  1  0.968200  0.915400  0.098700  1.0
  H  H443  1  0.915400  0.968200  0.598700  1.0
  H  H444  1  0.031800  0.084600  0.901300  1.0
  N  N445  1  0.019300  0.279300  0.425900  1.0
  N  N446  1  0.720700  0.980700  0.074100  1.0
  N  N447  1  0.980700  0.720700  0.574100  1.0
  N  N448  1  0.279300  0.019300  0.925900  1.0
  N  N449  1  0.100200  0.254200  0.406700  1.0
  N  N450  1  0.745800  0.899800  0.093300  1.0
  N  N451  1  0.899800  0.745800  0.593300  1.0
  N  N452  1  0.254200  0.100200  0.906700  1.0
  N  N453  1  0.010600  0.361400  0.365800  1.0
  N  N454  1  0.638600  0.989400  0.134200  1.0
  N  N455  1  0.989400  0.638600  0.634200  1.0
  N  N456  1  0.361400  0.010600  0.865800  1.0
  N  N457  1  0.093700  0.301700  0.370900  1.0
  N  N458  1  0.698300  0.906300  0.129100  1.0
  N  N459  1  0.906300  0.698300  0.629100  1.0
  N  N460  1  0.301700  0.093700  0.870900  1.0
  N  N461  1  0.276100  0.402100  0.426600  1.0
  N  N462  1  0.597900  0.723900  0.073400  1.0
  N  N463  1  0.723900  0.597900  0.573400  1.0
  N  N464  1  0.402100  0.276100  0.926600  1.0
  N  N465  1  0.253800  0.279800  0.439500  1.0
  N  N466  1  0.720200  0.746200  0.060500  1.0
  N  N467  1  0.746200  0.720200  0.560500  1.0
  N  N468  1  0.279800  0.253800  0.939500  1.0
  N  N469  1  0.265000  0.335000  0.406800  1.0
  N  N470  1  0.665000  0.735000  0.093200  1.0
  N  N471  1  0.735000  0.665000  0.593200  1.0
  N  N472  1  0.335000  0.265000  0.906800  1.0
  N  N473  1  0.163700  0.534300  0.372300  1.0
  N  N474  1  0.465700  0.836300  0.127700  1.0
  N  N475  1  0.836300  0.465700  0.627700  1.0
  N  N476  1  0.534300  0.163700  0.872300  1.0
  N  N477  1  0.133700  0.482300  0.346300  1.0
  N  N478  1  0.517700  0.866300  0.153700  1.0
  N  N479  1  0.866300  0.517700  0.653700  1.0
  N  N480  1  0.482300  0.133700  0.846300  1.0
  N  N481  1  0.046600  0.514600  0.348200  1.0
  N  N482  1  0.485400  0.953400  0.151800  1.0
  N  N483  1  0.953400  0.485400  0.651800  1.0
  N  N484  1  0.514600  0.046600  0.848200  1.0
  N  N485  1  0.023400  0.585400  0.365700  1.0
  N  N486  1  0.414600  0.976600  0.134300  1.0
  N  N487  1  0.976600  0.414600  0.634300  1.0
  N  N488  1  0.585400  0.023400  0.865700  1.0
  N  N489  1  0.273100  0.393100  0.469100  1.0
  N  N490  1  0.606900  0.726900  0.030900  1.0
  N  N491  1  0.726900  0.606900  0.530900  1.0
  N  N492  1  0.393100  0.273100  0.969100  1.0
  O  O493  1  0.726700  0.570700  0.753400  1
  O  O494  1  0.429300  0.273300  0.746600  1
  O  O495  1  0.273300  0.429300  0.246600  1
  O  O496  1  0.570700  0.726700  0.253400  1
  O  O497  1  0.654000  0.700000  0.797000  1
  O  O498  1  0.300000  0.346000  0.703000  1
  O  O499  1  0.346000  0.300000  0.203000  1
  O  O500  1  0.700000  0.654000  0.297000  1
  O  O501  1  0.679000  0.551000  0.828000  1
  O  O502  1  0.449000  0.321000  0.672000  1
  O  O503  1  0.321000  0.449000  0.172000  1
  O  O504  1  0.551000  0.679000  0.328000  1
  O  O505  1  0.944900  0.545300  0.545300  1
  O  O506  1  0.454700  0.055100  0.954700  1
  O  O507  1  0.055100  0.454700  0.454700  1
  O  O508  1  0.545300  0.944900  0.045300  1
  O  O509  1  0.496000  0.380000  0.506000  1
  O  O510  1  0.620000  0.504000  0.994000  1
  O  O511  1  0.504000  0.620000  0.494000  1
  O  O512  1  0.380000  0.496000  0.006000  1
  O  O513  1  0.518000  0.958000  0.361000  1
  O  O514  1  0.042000  0.482000  0.139000  1
  O  O515  1  0.482000  0.042000  0.639000  1
  O  O516  1  0.958000  0.518000  0.861000  1
  O  O517  1  0.746000  0.082000  0.454000  1
  O  O518  1  0.918000  0.254000  0.046000  1
  O  O519  1  0.254000  0.918000  0.546000  1
  O  O520  1  0.082000  0.746000  0.954000  1
  O  O521  1  0.868000  0.036000  0.456000  1
  O  O522  1  0.964000  0.132000  0.044000  1
  O  O523  1  0.132000  0.964000  0.544000  1
  O  O524  1  0.036000  0.868000  0.956000  1
  O  O525  1  0.882000  0.056000  0.474000  1
  O  O526  1  0.944000  0.118000  0.026000  1
  O  O527  1  0.118000  0.944000  0.526000  1
  O  O528  1  0.056000  0.882000  0.974000  1
  O  O529  1  0.884700  0.509900  0.361000  1.0
  O  O530  1  0.490100  0.115300  0.139000  1.0
  O  O531  1  0.115300  0.490100  0.639000  1.0
  O  O532  1  0.509900  0.884700  0.861000  1.0
  O  O533  1  0.149500  0.200500  0.489300  1.0
  O  O534  1  0.799500  0.850500  0.010700  1.0
  O  O535  1  0.850500  0.799500  0.510700  1.0
  O  O536  1  0.200500  0.149500  0.989300  1.0
  O  O537  1  0.897700  0.739700  0.307800  1.0
  O  O538  1  0.260300  0.102300  0.192200  1.0
  O  O539  1  0.102300  0.260300  0.692200  1.0
  O  O540  1  0.739700  0.897700  0.807800  1.0
  O  O541  1  0.853400  0.803400  0.238400  1.0
  O  O542  1  0.196600  0.146600  0.261600  1.0
  O  O543  1  0.146600  0.196600  0.761600  1.0
  O  O544  1  0.803400  0.853400  0.738400  1.0
  O  O545  1  0.794300  0.886300  0.300700  1.0
  O  O546  1  0.113700  0.205700  0.199300  1.0
  O  O547  1  0.205700  0.113700  0.699300  1.0
  O  O548  1  0.886300  0.794300  0.800700  1.0
  O  O549  1  0.234400  0.580600  0.439700  1.0
  O  O550  1  0.419400  0.765600  0.060300  1.0
  O  O551  1  0.765600  0.419400  0.560300  1.0
  O  O552  1  0.580600  0.234400  0.939700  1.0
  O  O553  1  0.299900  0.233300  0.290500  1.0
  O  O554  1  0.766700  0.700100  0.209500  1.0
  O  O555  1  0.700100  0.766700  0.709500  1.0
  O  O556  1  0.233300  0.299900  0.790500  1.0
  Ru  Ru557  1  0.977780  0.450580  0.317480  1.0
  Ru  Ru558  1  0.549420  0.022220  0.182520  1.0
  Ru  Ru559  1  0.022220  0.549420  0.682520  1.0
  Ru  Ru560  1  0.450580  0.977780  0.817480  1.0
  Ru  Ru561  1  0.295930  0.508730  0.387080  1.0
  Ru  Ru562  1  0.491270  0.704070  0.112920  1.0
  Ru  Ru563  1  0.704070  0.491270  0.612920  1.0
  Ru  Ru564  1  0.508730  0.295930  0.887080  1.0
  Ru  Ru565  1  0.212790  0.170190  0.431380  1.0
  Ru  Ru566  1  0.829810  0.787210  0.068620  1.0
  Ru  Ru567  1  0.787210  0.829810  0.568620  1.0
  Ru  Ru568  1  0.170190  0.212790  0.931380  1.0
  S  S569  1  0.667500  0.616500  0.786400  1
  S  S570  1  0.383500  0.332500  0.713600  1
  S  S571  1  0.332500  0.383500  0.213600  1
  S  S572  1  0.616500  0.667500  0.286400  1
  S  S573  1  0.811400  0.121400  0.454100  1
  S  S574  1  0.878600  0.188600  0.045900  1
  S  S575  1  0.188600  0.878600  0.545900  1
  S  S576  1  0.121400  0.811400  0.954100  1
  S  S577  1  0.865100  0.815300  0.280300  1.0
  S  S578  1  0.184700  0.134900  0.219700  1.0
  S  S579  1  0.134900  0.184700  0.719700  1.0
  S  S580  1  0.815300  0.865100  0.780300  1.0
