# generated using pymatgen
data_Ag3H51Ru3C55S3N12O13F9
_symmetry_space_group_name_H-M   'P 1'
_cell_length_a   16.17750000
_cell_length_b   16.63090000
_cell_length_c   17.17670000
_cell_angle_alpha   99.28500000
_cell_angle_beta   114.25800000
_cell_angle_gamma   104.74400000
_symmetry_Int_Tables_number   1
_chemical_formula_structural   Ag3H51Ru3C55S3N12O13F9
_chemical_formula_sum   'Ag6 H102 Ru6 C110 S6 N24 O26 F18'
_cell_volume   3884.83586820
_cell_formula_units_Z   2
loop_
 _symmetry_equiv_pos_site_id
 _symmetry_equiv_pos_as_xyz
  1  'x, y, z'
loop_
 _atom_site_type_symbol
 _atom_site_label
 _atom_site_symmetry_multiplicity
 _atom_site_fract_x
 _atom_site_fract_y
 _atom_site_fract_z
 _atom_site_occupancy
  Ag  Ag1  1  0.206570  0.396800  0.031460  1.0
  Ag  Ag2  1  0.793430  0.603200  0.968540  1.0
  Ag  Ag3  1  0.630780  0.418940  0.275800  1.0
  Ag  Ag4  1  0.369220  0.581060  0.724200  1.0
  Ag  Ag5  1  0.475240  0.781490  0.115000  1.0
  Ag  Ag6  1  0.524760  0.218510  0.885000  1.0
  H  H7  1  0.645900  0.828500  0.302800  1.0
  H  H8  1  0.354100  0.171500  0.697200  1.0
  H  H9  1  0.672200  0.579800  0.384300  1.0
  H  H10  1  0.327800  0.420200  0.615700  1.0
  H  H11  1  0.792600  0.826300  0.411000  1.0
  H  H12  1  0.207400  0.173700  0.589000  1.0
  H  H13  1  0.804500  0.702800  0.453800  1.0
  H  H14  1  0.195500  0.297200  0.546200  1.0
  H  H15  1  0.107200  0.221500  0.885400  1.0
  H  H16  1  0.892800  0.778500  0.114600  1.0
  H  H17  1  0.174300  0.243800  0.166000  1.0
  H  H18  1  0.825700  0.756200  0.834000  1.0
  H  H19  1  0.458700  0.294800  0.335900  1.0
  H  H20  1  0.541300  0.705200  0.664100  1.0
  H  H21  1  0.174700  0.124700  0.074700  1.0
  H  H22  1  0.825300  0.875300  0.925300  1.0
  H  H23  1  0.203600  0.705100  0.134300  1.0
  H  H24  1  0.796400  0.294900  0.865700  1.0
  H  H25  1  0.359600  0.810400  0.249600  1.0
  H  H26  1  0.640400  0.189600  0.750400  1.0
  H  H27  1  0.399300  0.626200  0.385700  1.0
  H  H28  1  0.600700  0.373800  0.614300  1.0
  H  H29  1  0.246900  0.523500  0.270800  1.0
  H  H30  1  0.753100  0.476500  0.729200  1.0
  H  H31  1  0.757500  0.175100  0.033500  1.0
  H  H32  1  0.242500  0.824900  0.966500  1.0
  H  H33  1  0.798700  0.288700  0.322900  1.0
  H  H34  1  0.201300  0.711300  0.677100  1.0
  H  H35  1  0.663900  0.167400  0.217300  1.0
  H  H36  1  0.336100  0.832600  0.782700  1.0
  H  H37  1  0.893000  0.290900  0.136100  1.0
  H  H38  1  0.107000  0.709100  0.863900  1.0
  H  H39  1  0.273700  0.279800  0.398300  1.0
  H  H40  1  0.726300  0.720200  0.601700  1.0
  H  H41  1  0.179700  0.283100  0.317900  1.0
  H  H42  1  0.820300  0.716900  0.682100  1.0
  H  H43  1  0.246300  0.365800  0.405500  1.0
  H  H44  1  0.753700  0.634200  0.594500  1.0
  H  H45  1  0.457900  0.177300  0.241000  1.0
  H  H46  1  0.542100  0.822700  0.759000  1.0
  H  H47  1  0.249300  0.037200  0.027000  1.0
  H  H48  1  0.750700  0.962800  0.973000  1.0
  H  H49  1  0.317100  0.009400  0.107900  1.0
  H  H50  1  0.682900  0.990600  0.892100  1.0
  H  H51  1  0.364900  0.079300  0.070300  1.0
  H  H52  1  0.635100  0.920700  0.929700  1.0
  H  H53  1  0.449700  0.388900  0.417500  1.0
  H  H54  1  0.550300  0.611100  0.582500  1.0
  H  H55  1  0.396600  0.451600  0.439500  1.0
  H  H56  1  0.603400  0.548400  0.560500  1.0
  H  H57  1  0.431600  0.459600  0.365600  1.0
  H  H58  1  0.568400  0.540400  0.634400  1.0
  H  H59  1  0.274200  0.384300  0.280600  1.0
  H  H60  1  0.725800  0.615700  0.719400  1.0
  H  H61  1  0.836300  0.546100  0.355700  1.0
  H  H62  1  0.163700  0.453900  0.644300  1.0
  H  H63  1  0.949000  0.677500  0.385200  1.0
  H  H64  1  0.051000  0.322500  0.614800  1.0
  H  H65  1  0.605200  0.083200  0.989400  1.0
  H  H66  1  0.394800  0.916800  0.010600  1.0
  H  H67  1  0.554700  0.089900  0.051900  1.0
  H  H68  1  0.445300  0.910100  0.948100  1.0
  H  H69  1  0.621000  0.031400  0.062000  1.0
  H  H70  1  0.379000  0.968600  0.938000  1.0
  H  H71  1  0.931500  0.425700  0.339900  1.0
  H  H72  1  0.068500  0.574300  0.660100  1.0
  H  H73  1  0.415000  0.846300  0.480000  1.0
  H  H74  1  0.585000  0.153700  0.520000  1.0
  H  H75  1  0.421400  0.898600  0.410900  1.0
  H  H76  1  0.578600  0.101400  0.589100  1.0
  H  H77  1  0.515000  0.920400  0.505200  1.0
  H  H78  1  0.485000  0.079600  0.494800  1.0
  H  H79  1  0.524300  0.828300  0.381000  1.0
  H  H80  1  0.475700  0.171700  0.619000  1.0
  H  H81  1  0.111500  0.484500  0.120300  1.0
  H  H82  1  0.888500  0.515500  0.879700  1.0
  H  H83  1  0.095500  0.556800  0.070200  1.0
  H  H84  1  0.904500  0.443200  0.929800  1.0
  H  H85  1  0.059000  0.547500  0.143100  1.0
  H  H86  1  0.941000  0.452500  0.856900  1.0
  H  H87  1  0.344100  0.118500  0.857700  1.0
  H  H88  1  0.655900  0.881500  0.142300  1.0
  H  H89  1  0.075900  0.130600  0.750000  1.0
  H  H90  1  0.924100  0.869400  0.250000  1.0
  H  H91  1  0.191700  0.075800  0.737700  1.0
  H  H92  1  0.808300  0.924200  0.262300  1.0
  H  H93  1  0.040900  0.389300  0.256400  1.0
  H  H94  1  0.959100  0.610700  0.743600  1.0
  H  H95  1  0.075600  0.476000  0.335300  1.0
  H  H96  1  0.924400  0.524000  0.664700  1.0
  H  H97  1  0.984800  0.456500  0.239700  1.0
  H  H98  1  0.015200  0.543500  0.760300  1.0
  H  H99  1  0.046100  0.317300  0.364800  1.0
  H  H100  1  0.953900  0.682700  0.635200  1.0
  H  H101  1  0.971400  0.313200  0.404100  1.0
  H  H102  1  0.028600  0.686800  0.595900  1.0
  H  H103  1  0.063300  0.400400  0.439200  1.0
  H  H104  1  0.936700  0.599600  0.560800  1.0
  H  H105  1  0.913500  0.600500  0.129500  1.0
  H  H106  1  0.086500  0.399500  0.870500  1.0
  H  H107  1  0.990200  0.707800  0.269300  1.0
  H  H108  1  0.009800  0.292200  0.730700  1.0
  Ru  Ru109  1  0.724050  0.300810  0.144220  1.0
  Ru  Ru110  1  0.275950  0.699190  0.855780  1.0
  Ru  Ru111  1  0.350630  0.636760  0.210710  1.0
  Ru  Ru112  1  0.649370  0.363240  0.789290  1.0
  Ru  Ru113  1  0.349450  0.269950  0.152950  1.0
  Ru  Ru114  1  0.650550  0.730050  0.847050  1.0
  C  C115  1  0.534000  0.533000  0.051000  1
  C  C116  1  0.466000  0.467000  0.949000  1
  C  C117  1  0.649800  0.777300  0.319400  1.0
  C  C118  1  0.350200  0.222700  0.680600  1.0
  C  C119  1  0.578100  0.624600  0.303000  1.0
  C  C120  1  0.421900  0.375400  0.697000  1.0
  C  C121  1  0.496800  0.544200  0.254400  1.0
  C  C122  1  0.503200  0.455800  0.745600  1.0
  C  C123  1  0.571000  0.701500  0.282200  1.0
  C  C124  1  0.429000  0.298500  0.717800  1.0
  C  C125  1  0.666800  0.630800  0.367800  1.0
  C  C126  1  0.333200  0.369200  0.632200  1.0
  C  C127  1  0.736500  0.774700  0.383500  1.0
  C  C128  1  0.263500  0.225300  0.616500  1.0
  C  C129  1  0.745000  0.702000  0.408800  1.0
  C  C130  1  0.255000  0.298000  0.591200  1.0
  C  C131  1  0.323900  0.200900  0.943000  1.0
  C  C132  1  0.676100  0.799100  0.057000  1.0
  C  C133  1  0.248300  0.229800  0.950800  1.0
  C  C134  1  0.751700  0.770200  0.049200  1.0
  C  C135  1  0.423200  0.236400  0.018800  1.0
  C  C136  1  0.576800  0.763600  0.981200  1.0
  C  C137  1  0.156000  0.202900  0.880000  1.0
  C  C138  1  0.844000  0.797100  0.120000  1.0
  C  C139  1  0.312100  0.132700  0.151100  1.0
  C  C140  1  0.687900  0.867300  0.848900  1.0
  C  C141  1  0.231100  0.229200  0.184600  1.0
  C  C142  1  0.768900  0.770800  0.815400  1.0
  C  C143  1  0.394800  0.253200  0.285900  1.0
  C  C144  1  0.605200  0.746800  0.714100  1.0
  C  C145  1  0.311500  0.278300  0.265200  1.0
  C  C146  1  0.688500  0.721700  0.734800  1.0
  C  C147  1  0.231900  0.157700  0.129500  1.0
  C  C148  1  0.768100  0.842300  0.870500  1.0
  C  C149  1  0.237500  0.693100  0.192200  1.0
  C  C150  1  0.762500  0.306900  0.807800  1.0
  C  C151  1  0.330300  0.755100  0.259800  1.0
  C  C152  1  0.669700  0.244900  0.740200  1.0
  C  C153  1  0.205000  0.607200  0.198200  1.0
  C  C154  1  0.795000  0.392800  0.801800  1.0
  C  C155  1  0.386900  0.731300  0.336900  1.0
  C  C156  1  0.613100  0.268700  0.663100  1.0
  C  C157  1  0.353800  0.646900  0.341100  1.0
  C  C158  1  0.646200  0.353100  0.658900  1.0
  C  C159  1  0.262800  0.586200  0.272900  1.0
  C  C160  1  0.737200  0.413800  0.727100  1.0
  C  C161  1  0.766000  0.197300  0.091900  1.0
  C  C162  1  0.234000  0.802700  0.908100  1.0
  C  C163  1  0.793400  0.266700  0.265800  1.0
  C  C164  1  0.206600  0.733300  0.734200  1.0
  C  C165  1  0.870300  0.308700  0.246000  1.0
  C  C166  1  0.129700  0.691300  0.754000  1.0
  C  C167  1  0.711600  0.194300  0.201700  1.0
  C  C168  1  0.288400  0.805700  0.798300  1.0
  C  C169  1  0.698500  0.160900  0.116200  1.0
  C  C170  1  0.301500  0.839100  0.883800  1.0
  C  C171  1  0.846800  0.267000  0.154600  1.0
  C  C172  1  0.153200  0.733000  0.845400  1.0
  C  C173  1  0.246400  0.317200  0.364700  1.0
  C  C174  1  0.753600  0.682800  0.635300  1.0
  C  C175  1  0.394900  0.184800  0.229300  1.0
  C  C176  1  0.605100  0.815200  0.770700  1.0
  C  C177  1  0.310700  0.057700  0.082700  1.0
  C  C178  1  0.689300  0.942300  0.917300  1.0
  C  C179  1  0.405000  0.419100  0.392100  1.0
  C  C180  1  0.595000  0.580900  0.607900  1.0
  C  C181  1  0.308500  0.353400  0.321100  1.0
  C  C182  1  0.691500  0.646600  0.678900  1.0
  C  C183  1  0.851300  0.557700  0.309700  1.0
  C  C184  1  0.148700  0.442300  0.690300  1.0
  C  C185  1  0.824300  0.514600  0.160100  1.0
  C  C186  1  0.175700  0.485400  0.839900  1.0
  C  C187  1  0.918300  0.635400  0.328000  1.0
  C  C188  1  0.081700  0.364600  0.672000  1.0
  C  C189  1  0.803500  0.494200  0.228000  1.0
  C  C190  1  0.196500  0.505800  0.772000  1.0
  C  C191  1  0.770600  0.451300  0.070500  1.0
  C  C192  1  0.229400  0.548700  0.929500  1.0
  C  C193  1  0.612700  0.085000  0.049300  1.0
  C  C194  1  0.387300  0.915000  0.950700  1.0
  C  C195  1  0.954500  0.383700  0.313600  1.0
  C  C196  1  0.045500  0.616300  0.686400  1.0
  C  C197  1  0.456800  0.873900  0.456300  1.0
  C  C198  1  0.543200  0.126100  0.543700  1.0
  C  C199  1  0.549600  0.761000  0.474700  1.0
  C  C200  1  0.450400  0.239000  0.525300  1.0
  C  C201  1  0.488300  0.801200  0.411100  1.0
  C  C202  1  0.511700  0.198800  0.588900  1.0
  C  C203  1  0.109700  0.543600  0.126900  1.0
  C  C204  1  0.890300  0.456400  0.873100  1.0
  C  C205  1  0.298000  0.141600  0.863200  1.0
  C  C206  1  0.702000  0.858400  0.136800  1.0
  C  C207  1  0.137800  0.147700  0.800800  1.0
  C  C208  1  0.862200  0.852300  0.199200  1.0
  C  C209  1  0.207800  0.115500  0.792600  1.0
  C  C210  1  0.792200  0.884500  0.207400  1.0
  C  C211  1  0.019200  0.430100  0.283800  1.0
  C  C212  1  0.980800  0.569900  0.716200  1.0
  C  C213  1  0.014100  0.350700  0.386900  1.0
  C  C214  1  0.985900  0.649300  0.613100  1.0
  C  C215  1  0.896600  0.591400  0.175100  1.0
  C  C216  1  0.103400  0.408600  0.824900  1.0
  C  C217  1  0.943000  0.653700  0.257900  1.0
  C  C218  1  0.057000  0.346300  0.742100  1.0
  C  C219  1  0.780000  0.335000  0.512000  1.0
  C  C220  1  0.220000  0.665000  0.488000  1.0
  C  C221  1  0.615000  0.027900  0.340400  1.0
  C  C222  1  0.385000  0.972100  0.659600  1.0
  C  C223  1  0.938000  0.175000  0.970000  1.0
  C  C224  1  0.062000  0.825000  0.030000  1.0
  S  S225  1  0.712000  0.397100  0.471800  1.0
  S  S226  1  0.288000  0.602900  0.528200  1.0
  S  S227  1  0.526400  0.986200  0.232100  1.0
  S  S228  1  0.473600  0.013800  0.767900  1.0
  S  S229  1  0.989000  0.288800  0.009600  1.0
  S  S230  1  0.011000  0.711200  0.990400  1.0
  N  N231  1  0.348500  0.451500  0.175000  1.0
  N  N232  1  0.651500  0.548500  0.825000  1.0
  N  N233  1  0.500400  0.462400  0.240400  1.0
  N  N234  1  0.499600  0.537600  0.759600  1.0
  N  N235  1  0.409100  0.406600  0.192800  1.0
  N  N236  1  0.590900  0.593400  0.807200  1.0
  N  N237  1  0.404000  0.536500  0.213300  1.0
  N  N238  1  0.596000  0.463500  0.786700  1.0
  N  N239  1  0.445500  0.265800  0.103400  1.0
  N  N240  1  0.554500  0.734200  0.896600  1.0
  N  N241  1  0.541300  0.290900  0.149500  1.0
  N  N242  1  0.458700  0.709100  0.850500  1.0
  N  N243  1  0.573800  0.275100  0.092300  1.0
  N  N244  1  0.426200  0.724900  0.907700  1.0
  N  N245  1  0.724100  0.366000  0.051800  1.0
  N  N246  1  0.275900  0.634000  0.948200  1.0
  N  N247  1  0.501800  0.240000  0.008000  1.0
  N  N248  1  0.498200  0.760000  0.992000  1.0
  N  N249  1  0.679700  0.330800  0.963800  1.0
  N  N250  1  0.320300  0.669200  0.036200  1.0
  N  N251  1  0.756400  0.472400  0.993900  1.0
  N  N252  1  0.243600  0.527600  0.006100  1.0
  N  N253  1  0.700600  0.394800  0.929800  1.0
  N  N254  1  0.299400  0.605200  0.070200  1.0
  O  O255  1  0.623000  0.592000  0.105000  1
  O  O256  1  0.377000  0.408000  0.895000  1
  O  O257  1  0.484200  0.701400  0.218200  1.0
  O  O258  1  0.515800  0.298600  0.781800  1.0
  O  O259  1  0.271400  0.286700  0.029600  1.0
  O  O260  1  0.728600  0.713300  0.970400  1.0
  O  O261  1  0.735500  0.421400  0.213600  1.0
  O  O262  1  0.264500  0.578600  0.786400  1.0
  O  O263  1  0.751600  0.438200  0.428500  1.0
  O  O264  1  0.248400  0.561800  0.571500  1.0
  O  O265  1  0.728700  0.455200  0.548800  1.0
  O  O266  1  0.271300  0.544800  0.451200  1.0
  O  O267  1  0.624600  0.337400  0.434000  1.0
  O  O268  1  0.375400  0.662600  0.566000  1.0
  O  O269  1  0.454000  0.951000  0.241000  1.0
  O  O270  1  0.546000  0.049000  0.759000  1.0
  O  O271  1  0.516600  0.052900  0.192200  1.0
  O  O272  1  0.483400  0.947100  0.807800  1.0
  O  O273  1  0.550000  0.927200  0.209400  1.0
  O  O274  1  0.450000  0.072800  0.790600  1.0
  O  O275  1  0.018000  0.307400  0.946900  1.0
  O  O276  1  0.982000  0.692600  0.053100  1.0
  O  O277  1  0.067100  0.308300  0.092900  1.0
  O  O278  1  0.932900  0.691700  0.907100  1.0
  O  O279  1  0.913900  0.315300  0.010100  1.0
  O  O280  1  0.086100  0.684700  0.989900  1.0
  F  F281  1  0.762000  0.294600  0.563000  1.0
  F  F282  1  0.238000  0.705400  0.437000  1.0
  F  F283  1  0.798000  0.291000  0.469900  1.0
  F  F284  1  0.202000  0.709000  0.530100  1.0
  F  F285  1  0.876000  0.393100  0.556000  1.0
  F  F286  1  0.124000  0.606900  0.444000  1.0
  F  F287  1  0.687000  0.054000  0.338000  1.0
  F  F288  1  0.313000  0.946000  0.662000  1.0
  F  F289  1  0.615000  0.986300  0.388100  1.0
  F  F290  1  0.385000  0.013700  0.611900  1.0
  F  F291  1  0.610000  0.091200  0.373800  1.0
  F  F292  1  0.390000  0.908800  0.626200  1.0
  F  F293  1  0.000200  0.136100  0.966500  1.0
  F  F294  1  0.999800  0.863900  0.033500  1.0
  F  F295  1  0.922400  0.147900  0.032700  1.0
  F  F296  1  0.077600  0.852100  0.967300  1.0
  F  F297  1  0.865500  0.147000  0.895300  1.0
  F  F298  1  0.134500  0.853000  0.104700  1.0
