# generated using pymatgen
data_B8H134Pd6C96N70O43
_symmetry_space_group_name_H-M   'P 1'
_cell_length_a   19.46910000
_cell_length_b   19.72410000
_cell_length_c   23.41200000
_cell_angle_alpha   110.75400000
_cell_angle_beta   93.66000000
_cell_angle_gamma   116.55700000
_symmetry_Int_Tables_number   1
_chemical_formula_structural   B8H134Pd6C96N70O43
_chemical_formula_sum   'B16 H268 Pd12 C192 N140 O86'
_cell_volume   7249.68578017
_cell_formula_units_Z   2
loop_
 _symmetry_equiv_pos_site_id
 _symmetry_equiv_pos_as_xyz
  1  'x, y, z'
loop_
 _atom_site_type_symbol
 _atom_site_label
 _atom_site_symmetry_multiplicity
 _atom_site_fract_x
 _atom_site_fract_y
 _atom_site_fract_z
 _atom_site_occupancy
  B  B1  1  0.952400  0.061900  0.314700  1
  B  B2  1  0.047600  0.938100  0.685300  1
  B  B3  1  0.907300  0.656200  0.092800  1
  B  B4  1  0.092700  0.343800  0.907200  1
  B  B5  1  0.284000  0.124100  0.553000  1
  B  B6  1  0.716000  0.875900  0.447000  1
  B  B7  1  0.209600  0.876200  0.942800  1
  B  B8  1  0.790400  0.123800  0.057200  1
  B  B9  1  0.235200  0.711500  0.329800  1
  B  B10  1  0.764800  0.288500  0.670200  1
  B  B11  1  0.583700  0.345800  0.403500  1
  B  B12  1  0.416300  0.654200  0.596500  1
  B  B13  1  0.258300  0.295000  0.172200  1
  B  B14  1  0.741700  0.705000  0.827800  1
  B  B15  1  0.539600  0.940000  0.180300  1
  B  B16  1  0.460400  0.060000  0.819700  1
  H  H17  1  0.825500  0.902200  0.215900  1
  H  H18  1  0.174500  0.097800  0.784100  1
  H  H19  1  0.847700  0.858900  0.109000  1
  H  H20  1  0.152300  0.141100  0.891000  1
  H  H21  1  0.038000  0.078400  0.222000  1
  H  H22  1  0.962000  0.921600  0.778000  1
  H  H23  1  0.002000  0.224100  0.312800  1
  H  H24  1  0.998000  0.775900  0.687200  1
  H  H25  1  0.143200  0.326000  0.352200  1
  H  H26  1  0.856800  0.674000  0.647800  1
  H  H27  1  0.114400  0.126900  0.373700  1
  H  H28  1  0.885600  0.873100  0.626300  1
  H  H29  1  0.925800  0.040000  0.432300  1
  H  H30  1  0.074200  0.960000  0.567700  1
  H  H31  1  0.962900  0.945500  0.452700  1
  H  H32  1  0.037100  0.054500  0.547300  1
  H  H33  1  0.006500  0.947000  0.290500  1
  H  H34  1  0.993500  0.053000  0.709500  1
  H  H35  1  0.787200  0.004200  0.249700  1
  H  H36  1  0.212800  0.995800  0.750300  1
  H  H37  1  0.719900  0.070900  0.314500  1
  H  H38  1  0.280100  0.929100  0.685500  1
  H  H39  1  0.934400  0.171900  0.420600  1
  H  H40  1  0.065600  0.828100  0.579400  1
  H  H41  1  0.839400  0.520900  0.969700  1
  H  H42  1  0.160600  0.479100  0.030300  1
  H  H43  1  0.713800  0.398300  0.948700  1
  H  H44  1  0.286200  0.601700  0.051300  1
  H  H45  1  0.771200  0.562800  0.124900  1
  H  H46  1  0.228800  0.437200  0.875100  1
  H  H47  1  0.806000  0.708800  0.160400  1
  H  H48  1  0.194000  0.291200  0.839600  1
  H  H49  1  0.855900  0.786100  0.275000  1
  H  H50  1  0.144100  0.213900  0.725000  1
  H  H51  1  0.015900  0.729300  0.212000  1
  H  H52  1  0.984100  0.270700  0.788000  1
  H  H53  1  0.866200  0.648500  0.965600  1
  H  H54  1  0.133800  0.351500  0.034400  1
  H  H55  1  0.918000  0.782100  0.958600  1
  H  H56  1  0.082000  0.217900  0.041400  1
  H  H57  1  0.984200  0.829300  0.136200  1
  H  H58  1  0.015800  0.170700  0.863800  1
  H  H59  1  0.936500  0.530200  0.103900  1
  H  H60  1  0.063500  0.469800  0.896100  1
  H  H61  1  0.072200  0.548700  0.102500  1
  H  H62  1  0.927800  0.451300  0.897500  1
  H  H63  1  0.067500  0.738800  0.083300  1
  H  H64  1  0.932500  0.261200  0.916700  1
  H  H65  1  0.175000  0.189700  0.570900  1
  H  H66  1  0.825000  0.810300  0.429100  1
  H  H67  1  0.170100  0.263700  0.507600  1
  H  H68  1  0.829900  0.736300  0.492400  1
  H  H69  1  0.329800  0.194900  0.468100  1
  H  H70  1  0.670200  0.805100  0.531900  1
  H  H71  1  0.253500  0.055100  0.646600  1
  H  H72  1  0.746500  0.944900  0.353400  1
  H  H73  1  0.287600  0.151900  0.756200  1
  H  H74  1  0.712400  0.848100  0.243800  1
  H  H75  1  0.330500  0.276200  0.655000  1
  H  H76  1  0.669500  0.723800  0.345000  1
  H  H77  1  0.237500  0.959100  0.555200  1
  H  H78  1  0.762500  0.040900  0.444800  1
  H  H79  1  0.124100  0.834300  0.470600  1
  H  H80  1  0.875900  0.165700  0.529400  1
  H  H81  1  0.150100  0.032900  0.445900  1
  H  H82  1  0.849900  0.967100  0.554100  1
  H  H83  1  0.452100  0.234000  0.613700  1
  H  H84  1  0.547900  0.766000  0.386300  1
  H  H85  1  0.543300  0.204500  0.553700  1
  H  H86  1  0.456700  0.795500  0.446300  1
  H  H87  1  0.321700  0.027600  0.455300  1
  H  H88  1  0.678300  0.972400  0.544700  1
  H  H89  1  0.195500  0.015000  0.934200  1
  H  H90  1  0.804500  0.985000  0.065800  1
  H  H91  1  0.108400  0.053500  0.993000  1
  H  H92  1  0.891600  0.946500  0.007000  1
  H  H93  1  0.095500  0.857200  0.013000  1
  H  H94  1  0.904500  0.142800  0.987000  1
  H  H95  1  0.083200  0.706700  0.894900  1
  H  H96  1  0.916800  0.293300  0.105100  1
  H  H97  1  0.079900  0.629500  0.959000  1
  H  H98  1  0.920100  0.370500  0.041000  1
  H  H99  1  0.272100  0.855600  0.044700  1
  H  H100  1  0.727900  0.144400  0.955300  1
  H  H101  1  0.139100  0.889500  0.831900  1
  H  H102  1  0.860900  0.110500  0.168100  1
  H  H103  1  0.134900  0.791200  0.728100  1
  H  H104  1  0.865100  0.208800  0.271900  1
  H  H105  1  0.242800  0.762200  0.856500  1
  H  H106  1  0.757200  0.237800  0.143500  1
  H  H107  1  0.371800  0.925400  0.922900  1
  H  H108  1  0.628200  0.074600  0.077100  1
  H  H109  1  0.483300  0.052600  0.010100  1
  H  H110  1  0.516700  0.947400  0.989900  1
  H  H111  1  0.285100  0.017200  0.061800  1
  H  H112  1  0.714900  0.982800  0.938200  1
  H  H113  1  0.065700  0.589000  0.294500  1
  H  H114  1  0.934300  0.411000  0.705500  1
  H  H115  1  0.972900  0.642800  0.304500  1
  H  H116  1  0.027100  0.357200  0.695500  1
  H  H117  1  0.189700  0.836400  0.359700  1
  H  H118  1  0.810300  0.163600  0.640300  1
  H  H119  1  0.347900  0.681800  0.266700  1
  H  H120  1  0.652100  0.318200  0.733300  1
  H  H121  1  0.336700  0.673900  0.158900  1
  H  H122  1  0.663300  0.326100  0.841100  1
  H  H123  1  0.168100  0.714900  0.220400  1
  H  H124  1  0.831900  0.285100  0.779600  1
  H  H125  1  0.290400  0.808100  0.467400  1
  H  H126  1  0.709600  0.191900  0.532600  1
  H  H127  1  0.397900  0.953300  0.508800  1
  H  H128  1  0.602100  0.046700  0.491200  1
  H  H129  1  0.359700  0.851000  0.322700  1
  H  H130  1  0.640300  0.149000  0.677300  1
  H  H131  1  0.200100  0.548100  0.257900  1
  H  H132  1  0.799900  0.451900  0.742100  1
  H  H133  1  0.209700  0.528300  0.413400  1
  H  H134  1  0.790300  0.471700  0.586600  1
  H  H135  1  0.237700  0.671300  0.437900  1
  H  H136  1  0.762300  0.328700  0.562100  1
  H  H137  1  0.651100  0.508800  0.422100  1
  H  H138  1  0.348900  0.491200  0.577900  1
  H  H139  1  0.788300  0.612400  0.482700  1
  H  H140  1  0.211700  0.387600  0.517300  1
  H  H141  1  0.729400  0.405500  0.479000  1
  H  H142  1  0.270600  0.594500  0.521000  1
  H  H143  1  0.557200  0.400600  0.529500  1
  H  H144  1  0.442800  0.599400  0.470500  1
  H  H145  1  0.425500  0.384000  0.535400  1
  H  H146  1  0.574500  0.616000  0.464600  1
  H  H147  1  0.422600  0.303500  0.353900  1
  H  H148  1  0.577400  0.696500  0.646100  1
  H  H149  1  0.693000  0.284300  0.390500  1
  H  H150  1  0.307000  0.715700  0.609500  1
  H  H151  1  0.652400  0.150900  0.397900  1
  H  H152  1  0.347600  0.849100  0.602100  1
  H  H153  1  0.481000  0.205300  0.424200  1
  H  H154  1  0.519000  0.794700  0.575800  1
  H  H155  1  0.599300  0.442700  0.330000  1
  H  H156  1  0.400700  0.557300  0.670000  1
  H  H157  1  0.555100  0.362000  0.212300  1
  H  H158  1  0.444900  0.638000  0.787700  1
  H  H159  1  0.506300  0.202200  0.286900  1
  H  H160  1  0.493700  0.797800  0.713100  1
  H  H161  1  0.380700  0.450900  0.276200  1
  H  H162  1  0.619300  0.549100  0.723800  1
  H  H163  1  0.392400  0.453700  0.383300  1
  H  H164  1  0.607600  0.546300  0.616700  1
  H  H165  1  0.217600  0.230800  0.262200  1
  H  H166  1  0.782400  0.769200  0.737800  1
  H  H167  1  0.098800  0.269900  0.175600  1
  H  H168  1  0.901200  0.730100  0.824400  1
  H  H169  1  0.987600  0.123900  0.133400  1
  H  H170  1  0.012400  0.876100  0.866600  1
  H  H171  1  0.188700  0.120700  0.116400  1
  H  H172  1  0.811300  0.879300  0.883600  1
  H  H173  1  0.176500  0.383100  0.183600  1
  H  H174  1  0.823500  0.616900  0.816400  1
  H  H175  1  0.336400  0.514200  0.117800  1
  H  H176  1  0.663600  0.485800  0.882200  1
  H  H177  1  0.361600  0.402500  0.120900  1
  H  H178  1  0.638400  0.597500  0.879100  1
  H  H179  1  0.282800  0.241200  0.045800  1
  H  H180  1  0.717200  0.758800  0.954200  1
  H  H181  1  0.367600  0.177600  0.027300  1
  H  H182  1  0.632400  0.822400  0.972700  1
  H  H183  1  0.367100  0.250400  0.209300  1
  H  H184  1  0.632900  0.749600  0.790700  1
  H  H185  1  0.567900  0.865200  0.260700  1
  H  H186  1  0.432100  0.134800  0.739300  1
  H  H187  1  0.542000  0.907600  0.366500  1
  H  H188  1  0.458000  0.092400  0.633500  1
  H  H189  1  0.500900  0.032300  0.281500  1
  H  H190  1  0.499100  0.967700  0.718500  1
  H  H191  1  0.664300  0.116500  0.237800  1
  H  H192  1  0.335700  0.883500  0.762200  1
  H  H193  1  0.635000  0.215200  0.217500  1
  H  H194  1  0.365000  0.784800  0.782500  1
  H  H195  1  0.446100  0.987400  0.125100  1
  H  H196  1  0.553900  0.012600  0.874900  1
  H  H197  1  0.481100  0.834000  0.046000  1
  H  H198  1  0.518900  0.166000  0.954000  1
  H  H199  1  0.337400  0.731400  0.004400  1
  H  H200  1  0.662600  0.268600  0.995600  1
  H  H201  1  0.380700  0.856200  0.188500  1
  H  H202  1  0.619300  0.143800  0.811500  1
  H  H203  1  0.564700  0.796900  0.145500  1
  H  H204  1  0.435300  0.203100  0.854500  1
  H  H205  1  0.681700  0.812800  0.105900  1
  H  H206  1  0.318300  0.187200  0.894100  1
  H  H207  1  0.685100  0.025600  0.149800  1
  H  H208  1  0.314900  0.974400  0.850200  1
  H  H209  1  0.822000  0.230000  0.460000  1
  H  H210  1  0.178000  0.770000  0.540000  1
  H  H211  1  0.871000  0.294000  0.509000  1
  H  H212  1  0.129000  0.706000  0.491000  1
  H  H213  1  0.009400  0.393000  0.527000  1
  H  H214  1  0.990600  0.607000  0.473000  1
  H  H215  1  0.004500  0.411000  0.587000  1
  H  H216  1  0.995500  0.589000  0.413000  1
  H  H217  1  0.025000  0.286000  0.540000  1
  H  H218  1  0.975000  0.714000  0.460000  1
  H  H219  1  0.077000  0.264000  0.569000  1
  H  H220  1  0.923000  0.736000  0.431000  1
  H  H221  1  0.157000  0.347000  0.673000  1
  H  H222  1  0.843000  0.653000  0.327000  1
  H  H223  1  0.174000  0.477000  0.781000  1
  H  H224  1  0.826000  0.523000  0.219000  1
  H  H225  1  0.243900  0.452000  0.776600  1
  H  H226  1  0.756100  0.548000  0.223400  1
  H  H227  1  0.181300  0.480100  0.700400  1
  H  H228  1  0.818700  0.519900  0.299600  1
  H  H229  1  0.211000  0.670000  0.710000  1
  H  H230  1  0.789000  0.330000  0.290000  1
  H  H231  1  0.205900  0.599000  0.675400  1
  H  H232  1  0.794100  0.401000  0.324600  1
  H  H233  1  0.191600  0.585000  0.845000  1
  H  H234  1  0.808400  0.415000  0.155000  1
  H  H235  1  0.090000  0.560000  0.820000  1
  H  H236  1  0.910000  0.440000  0.180000  1
  H  H237  1  0.985400  0.601700  0.777900  1
  H  H238  1  0.014600  0.398300  0.222100  1
  H  H239  1  0.850000  0.536000  0.863000  1
  H  H240  1  0.150000  0.464000  0.137000  1
  H  H241  1  0.935000  0.550000  0.847000  1
  H  H242  1  0.065000  0.450000  0.153000  1
  H  H243  1  0.400000  0.584000  0.944000  1
  H  H244  1  0.600000  0.416000  0.056000  1
  H  H245  1  0.443600  0.654000  0.929200  1
  H  H246  1  0.556400  0.346000  0.070800  1
  H  H247  1  0.380000  0.524000  0.852000  1
  H  H248  1  0.620000  0.476000  0.148000  1
  H  H249  1  0.385000  0.479000  0.787000  1
  H  H250  1  0.615000  0.521000  0.213000  1
  H  H251  1  0.339000  0.330000  0.810000  1
  H  H252  1  0.661000  0.670000  0.190000  1
  H  H253  1  0.349000  0.408000  0.832000  1
  H  H254  1  0.651000  0.592000  0.168000  1
  H  H255  1  0.308000  0.329000  0.911000  1
  H  H256  1  0.692000  0.671000  0.089000  1
  H  H257  1  0.340000  0.335000  0.971000  1
  H  H258  1  0.660000  0.665000  0.029000  1
  H  H259  1  0.484000  0.402000  0.045000  1
  H  H260  1  0.516000  0.598000  0.955000  1
  H  H261  1  0.449500  0.400100  0.890100  1
  H  H262  1  0.550500  0.599900  0.109900  1
  H  H263  1  0.523000  0.379400  0.693700  1
  H  H264  1  0.477000  0.620600  0.306300  1
  H  H265  1  0.578100  0.388900  0.620900  1
  H  H266  1  0.421900  0.611100  0.379100  1
  H  H267  1  0.847000  0.340000  0.450000  1
  H  H268  1  0.153000  0.660000  0.550000  1
  H  H269  1  0.972800  0.419500  0.358000  1
  H  H270  1  0.027200  0.580500  0.642000  1
  H  H271  1  0.941800  0.380600  0.389000  1
  H  H272  1  0.058200  0.619400  0.611000  1
  H  H273  1  0.963400  0.570800  0.556600  1
  H  H274  1  0.036600  0.429200  0.443400  1
  H  H275  1  0.885700  0.539400  0.511900  1
  H  H276  1  0.114300  0.460600  0.488100  1
  H  H277  1  0.101000  0.410000  0.284000  1
  H  H278  1  0.899000  0.590000  0.716000  1
  H  H279  1  0.029300  0.360900  0.297500  1
  H  H280  1  0.970700  0.639100  0.702500  1
  H  H281  1  0.892600  0.446100  0.331800  1
  H  H282  1  0.107400  0.553900  0.668200  1
  H  H283  1  0.907800  0.496000  0.334100  1
  H  H284  1  0.092200  0.504000  0.665900  1
  Pd  Pd285  1  0.019532  0.962896  0.082673  1
  Pd  Pd286  1  0.980468  0.037104  0.917327  1
  Pd  Pd287  1  0.032653  0.842292  0.353243  1
  Pd  Pd288  1  0.967347  0.157708  0.646757  1
  Pd  Pd289  1  0.213747  0.714907  0.093156  1
  Pd  Pd290  1  0.786253  0.285093  0.906844  1
  Pd  Pd291  1  0.457180  0.159812  0.142454  1
  Pd  Pd292  1  0.542820  0.840188  0.857546  1
  Pd  Pd293  1  0.277880  0.289270  0.406956  1
  Pd  Pd294  1  0.722120  0.710730  0.593044  1
  Pd  Pd295  1  0.476829  0.041120  0.414963  1
  Pd  Pd296  1  0.523171  0.958880  0.585037  1
  C  C297  1  0.871000  0.933000  0.204000  1
  C  C298  1  0.129000  0.067000  0.796000  1
  C  C299  1  0.883800  0.908800  0.145600  1
  C  C300  1  0.116200  0.091200  0.854400  1
  C  C301  1  0.987300  0.028900  0.207200  1
  C  C302  1  0.012700  0.971100  0.792800  1
  C  C303  1  0.042100  0.216600  0.330100  1
  C  C304  1  0.957900  0.783400  0.669900  1
  C  C305  1  0.119000  0.271800  0.351700  1
  C  C306  1  0.881000  0.728200  0.648300  1
  C  C307  1  0.103900  0.164500  0.363500  1
  C  C308  1  0.896100  0.835500  0.636500  1
  C  C309  1  0.946500  0.009300  0.405700  1
  C  C310  1  0.053500  0.990700  0.594300  1
  C  C311  1  0.967000  0.957700  0.416900  1
  C  C312  1  0.033000  0.042300  0.583100  1
  C  C313  1  0.990500  0.958400  0.328700  1
  C  C314  1  0.009500  0.041600  0.671300  1
  C  C315  1  0.809600  0.046200  0.292200  1
  C  C316  1  0.190400  0.953800  0.707800  1
  C  C317  1  0.773100  0.083800  0.327800  1
  C  C318  1  0.226900  0.916200  0.672200  1
  C  C319  1  0.888900  0.138200  0.385300  1
  C  C320  1  0.111100  0.861800  0.614700  1
  C  C321  1  0.808500  0.514700  0.999200  1
  C  C322  1  0.191500  0.485300  0.000800  1
  C  C323  1  0.739500  0.448100  0.987200  1
  C  C324  1  0.260500  0.551900  0.012800  1
  C  C325  1  0.771200  0.537800  0.082000  1
  C  C326  1  0.228800  0.462200  0.918000  1
  C  C327  1  0.854500  0.721900  0.185300  1
  C  C328  1  0.145500  0.278100  0.814700  1
  C  C329  1  0.882100  0.764100  0.247600  1
  C  C330  1  0.117900  0.235900  0.752400  1
  C  C331  1  0.969000  0.733000  0.213700  1
  C  C332  1  0.031000  0.267000  0.786300  1
  C  C333  1  0.897200  0.702400  0.000100  1
  C  C334  1  0.102800  0.297600  0.999900  1
  C  C335  1  0.925400  0.775400  0.996300  1
  C  C336  1  0.074600  0.224600  0.003700  1
  C  C337  1  0.960800  0.799800  0.091800  1
  C  C338  1  0.039200  0.200200  0.908200  1
  C  C339  1  0.979300  0.574500  0.099000  1
  C  C340  1  0.020700  0.425500  0.901000  1
  C  C341  1  0.054100  0.584700  0.098500  1
  C  C342  1  0.945900  0.415300  0.901500  1
  C  C343  1  0.051000  0.688200  0.087800  1
  C  C344  1  0.949000  0.311800  0.912200  1
  C  C345  1  0.206400  0.200400  0.542400  1
  C  C346  1  0.793600  0.799600  0.457600  1
  C  C347  1  0.203600  0.240500  0.507600  1
  C  C348  1  0.796400  0.759500  0.492400  1
  C  C349  1  0.290500  0.203300  0.486500  1
  C  C350  1  0.709500  0.796700  0.513500  1
  C  C351  1  0.274300  0.113700  0.661300  1
  C  C352  1  0.725700  0.886300  0.338700  1
  C  C353  1  0.292100  0.166400  0.721400  1
  C  C354  1  0.707900  0.833600  0.278600  1
  C  C355  1  0.314700  0.231000  0.666667  1
  C  C356  1  0.685300  0.769000  0.333333  1
  C  C357  1  0.205500  0.958900  0.522600  1
  C  C358  1  0.794500  0.041100  0.477400  1
  C  C359  1  0.143800  0.890500  0.476310  1
  C  C360  1  0.856200  0.109500  0.523690  1
  C  C361  1  0.158100  0.999300  0.463100  1
  C  C362  1  0.841900  0.000700  0.536900  1
  C  C363  1  0.436700  0.188500  0.573600  1
  C  C364  1  0.563300  0.811500  0.426400  1
  C  C365  1  0.486800  0.171900  0.540600  1
  C  C366  1  0.513200  0.828100  0.459400  1
  C  C367  1  0.366300  0.076400  0.487400  1
  C  C368  1  0.633700  0.923600  0.512600  1
  C  C369  1  0.164400  0.987500  0.957100  1
  C  C370  1  0.835600  0.012500  0.042900  1
  C  C371  1  0.117100  0.008800  0.990000  1
  C  C372  1  0.882900  0.991200  0.010000  1
  C  C373  1  0.109800  0.901700  0.000670  1
  C  C374  1  0.890200  0.098300  0.999330  1
  C  C375  1  0.121100  0.727600  0.933300  1
  C  C376  1  0.878900  0.272400  0.066700  1
  C  C377  1  0.119600  0.685300  0.968600  1
  C  C378  1  0.880400  0.314700  0.031400  1
  C  C379  1  0.224100  0.808500  0.015110  1
  C  C380  1  0.775900  0.191500  0.984890  1
  C  C381  1  0.159400  0.852400  0.825000  1
  C  C382  1  0.840600  0.147600  0.175000  1
  C  C383  1  0.158200  0.798100  0.768100  1
  C  C384  1  0.841800  0.201900  0.231900  1
  C  C385  1  0.216200  0.781900  0.837000  1
  C  C386  1  0.783800  0.218100  0.163000  1
  C  C387  1  0.367600  0.959500  0.961400  1
  C  C388  1  0.632400  0.040500  0.038600  1
  C  C389  1  0.428700  0.029400  0.009600  1
  C  C390  1  0.571300  0.970600  0.990400  1
  C  C391  1  0.321000  0.010500  0.037830  1
  C  C392  1  0.679000  0.989500  0.962170  1
  C  C393  1  0.080200  0.646300  0.309500  1
  C  C394  1  0.919800  0.353700  0.690500  1
  C  C395  1  0.029200  0.675700  0.314300  1
  C  C396  1  0.970800  0.324300  0.685700  1
  C  C397  1  0.146700  0.780400  0.344530  1
  C  C398  1  0.853300  0.219600  0.655470  1
  C  C399  1  0.309900  0.686800  0.243600  1
  C  C400  1  0.690100  0.313200  0.756400  1
  C  C401  1  0.303900  0.684200  0.185100  1
  C  C402  1  0.696100  0.315800  0.814900  1
  C  C403  1  0.211900  0.705700  0.217920  1
  C  C404  1  0.788100  0.294300  0.782080  1
  C  C405  1  0.318000  0.835000  0.442900  1
  C  C406  1  0.682000  0.165000  0.557100  1
  C  C407  1  0.376600  0.914300  0.465400  1
  C  C408  1  0.623400  0.085700  0.534600  1
  C  C409  1  0.355800  0.858800  0.364500  1
  C  C410  1  0.644200  0.141200  0.635500  1
  C  C411  1  0.208500  0.562800  0.302000  1
  C  C412  1  0.791500  0.437200  0.698000  1
  C  C413  1  0.211700  0.550500  0.383200  1
  C  C414  1  0.788300  0.449500  0.616800  1
  C  C415  1  0.228800  0.630000  0.397200  1
  C  C416  1  0.771200  0.370000  0.602800  1
  C  C417  1  0.684200  0.495800  0.442500  1
  C  C418  1  0.315800  0.504200  0.557500  1
  C  C419  1  0.760400  0.555700  0.476900  1
  C  C420  1  0.239600  0.444300  0.523100  1
  C  C421  1  0.724100  0.447600  0.471900  1
  C  C422  1  0.275900  0.552400  0.528100  1
  C  C423  1  0.514100  0.379500  0.494600  1
  C  C424  1  0.485900  0.620500  0.505400  1
  C  C425  1  0.441800  0.369500  0.497600  1
  C  C426  1  0.558200  0.630500  0.502400  1
  C  C427  1  0.440200  0.326100  0.398700  1
  C  C428  1  0.559800  0.673900  0.601300  1
  C  C429  1  0.644400  0.251600  0.398200  1
  C  C430  1  0.355600  0.748400  0.601800  1
  C  C431  1  0.622400  0.178500  0.402000  1
  C  C432  1  0.377600  0.821500  0.598000  1
  C  C433  1  0.529400  0.208600  0.416300  1
  C  C434  1  0.470600  0.791400  0.583700  1
  C  C435  1  0.575600  0.383600  0.307100  1
  C  C436  1  0.424400  0.616400  0.692900  1
  C  C437  1  0.548400  0.339000  0.242300  1
  C  C438  1  0.451600  0.661000  0.757700  1
  C  C439  1  0.523400  0.253300  0.283100  1
  C  C440  1  0.476600  0.746700  0.716900  1
  C  C441  1  0.348500  0.406100  0.286400  1
  C  C442  1  0.651500  0.593900  0.713600  1
  C  C443  1  0.354900  0.407700  0.345300  1
  C  C444  1  0.645100  0.592300  0.654700  1
  C  C445  1  0.260300  0.287100  0.279500  1
  C  C446  1  0.739700  0.712900  0.720500  1
  C  C447  1  0.103100  0.221000  0.157500  1
  C  C448  1  0.896900  0.779000  0.842500  1
  C  C449  1  0.042000  0.141200  0.134900  1
  C  C450  1  0.958000  0.858800  0.865100  1
  C  C451  1  0.151700  0.139500  0.125200  1
  C  C452  1  0.848300  0.860500  0.874800  1
  C  C453  1  0.221700  0.403300  0.167800  1
  C  C454  1  0.778300  0.596700  0.832200  1
  C  C455  1  0.306600  0.473900  0.132800  1
  C  C456  1  0.693400  0.526100  0.867200  1
  C  C457  1  0.320000  0.411500  0.134000  1
  C  C458  1  0.680000  0.588500  0.866000  1
  C  C459  1  0.310800  0.235500  0.076900  1
  C  C460  1  0.689200  0.764500  0.923100  1
  C  C461  1  0.357500  0.200600  0.066700  1
  C  C462  1  0.642500  0.799400  0.933300  1
  C  C463  1  0.357200  0.240600  0.166100  1
  C  C464  1  0.642800  0.759400  0.833900  1
  C  C465  1  0.551000  0.904700  0.277900  1
  C  C466  1  0.449000  0.095300  0.722100  1
  C  C467  1  0.535800  0.927200  0.335900  1
  C  C468  1  0.464200  0.072800  0.664100  1
  C  C469  1  0.513900  0.994800  0.289400  1
  C  C470  1  0.486100  0.005200  0.710600  1
  C  C471  1  0.616000  0.102300  0.211800  1
  C  C472  1  0.384000  0.897700  0.788200  1
  C  C473  1  0.600000  0.156400  0.201300  1
  C  C474  1  0.400000  0.843600  0.798700  1
  C  C475  1  0.497500  0.032300  0.150800  1
  C  C476  1  0.502500  0.967700  0.849200  1
  C  C477  1  0.443100  0.825400  0.070100  1
  C  C478  1  0.556900  0.174600  0.929900  1
  C  C479  1  0.364300  0.769800  0.047500  1
  C  C480  1  0.635700  0.230200  0.952500  1
  C  C481  1  0.387900  0.837000  0.147300  1
  C  C482  1  0.612100  0.163000  0.852700  1
  C  C483  1  0.602800  0.845300  0.141900  1
  C  C484  1  0.397200  0.154700  0.858100  1
  C  C485  1  0.667100  0.854800  0.119800  1
  C  C486  1  0.332900  0.145200  0.880200  1
  C  C487  1  0.669300  0.969900  0.143600  1
  C  C488  1  0.330700  0.030100  0.856400  1
  N  N489  1  0.936100  0.010600  0.243010  1
  N  N490  1  0.063900  0.989400  0.756990  1
  N  N491  1  0.956800  0.968000  0.148410  1
  N  N492  1  0.043200  0.032000  0.851590  1
  N  N493  1  0.030300  0.145500  0.337130  1
  N  N494  1  0.969700  0.854500  0.662870  1
  N  N495  1  0.159400  0.239400  0.373530  1
  N  N496  1  0.840600  0.760600  0.626470  1
  N  N497  1  0.960800  0.010300  0.348560  1
  N  N498  1  0.039200  0.989700  0.651440  1
  N  N499  1  0.995000  0.925340  0.367630  1
  N  N500  1  0.005000  0.074660  0.632370  1
  N  N501  1  0.884300  0.079900  0.328860  1
  N  N502  1  0.115700  0.920100  0.671140  1
  N  N503  1  0.824000  0.142000  0.384700  1
  N  N504  1  0.176000  0.858000  0.615300  1
  N  N505  1  0.829800  0.573500  0.059480  1
  N  N506  1  0.170200  0.426500  0.940520  1
  N  N507  1  0.710700  0.462800  0.039800  1
  N  N508  1  0.289300  0.537200  0.960200  1
  N  N509  1  0.909600  0.700300  0.163090  1
  N  N510  1  0.090400  0.299700  0.836910  1
  N  N511  1  0.954400  0.771400  0.266750  1
  N  N512  1  0.045600  0.228600  0.733250  1
  N  N513  1  0.920500  0.717700  0.062240  1
  N  N514  1  0.079500  0.282300  0.937760  1
  N  N515  1  0.966160  0.838300  0.054770  1
  N  N516  1  0.033840  0.161700  0.945230  1
  N  N517  1  0.977800  0.639800  0.091280  1
  N  N518  1  0.022200  0.360200  0.908720  1
  N  N519  1  0.096900  0.656400  0.091340  1
  N  N520  1  0.903100  0.343600  0.908660  1
  N  N521  1  0.262800  0.177100  0.529470  1
  N  N522  1  0.737200  0.822900  0.470530  1
  N  N523  1  0.256600  0.242900  0.472090  1
  N  N524  1  0.743400  0.757100  0.527910  1
  N  N525  1  0.289300  0.153200  0.625080  1
  N  N526  1  0.710700  0.846800  0.374920  1
  N  N527  1  0.316500  0.241000  0.725000  1
  N  N528  1  0.683500  0.759000  0.275000  1
  N  N529  1  0.215500  0.029900  0.515570  1
  N  N530  1  0.784500  0.970100  0.484430  1
  N  N531  1  0.114000  0.915900  0.438480  1
  N  N532  1  0.886000  0.084100  0.561520  1
  N  N533  1  0.360300  0.127600  0.538630  1
  N  N534  1  0.639700  0.872400  0.461370  1
  N  N535  1  0.442000  0.100100  0.485320  1
  N  N536  1  0.558000  0.899900  0.514680  1
  N  N537  1  0.159070  0.918020  0.963270  1
  N  N538  1  0.840930  0.081980  0.036730  1
  N  N539  1  0.083500  0.956500  0.018340  1
  N  N540  1  0.916500  0.043500  0.981660  1
  N  N541  1  0.187710  0.806060  0.963290  1
  N  N542  1  0.812290  0.193940  0.036710  1
  N  N543  1  0.183800  0.735730  0.019740  1
  N  N544  1  0.816200  0.264270  0.980260  1
  N  N545  1  0.197800  0.840710  0.870940  1
  N  N546  1  0.802200  0.159290  0.129060  1
  N  N547  1  0.194500  0.754900  0.775700  1
  N  N548  1  0.805500  0.245100  0.224300  1
  N  N549  1  0.298200  0.947540  0.979020  1
  N  N550  1  0.701800  0.052460  0.020980  1
  N  N551  1  0.399100  0.061240  0.057840  1
  N  N552  1  0.600900  0.938760  0.942160  1
  N  N553  1  0.156300  0.712800  0.329770  1
  N  N554  1  0.843700  0.287200  0.670230  1
  N  N555  1  0.072300  0.760200  0.335550  1
  N  N556  1  0.927700  0.239800  0.664450  1
  N  N557  1  0.249600  0.698200  0.262360  1
  N  N558  1  0.750400  0.301800  0.737640  1
  N  N559  1  0.244900  0.698300  0.168460  1
  N  N560  1  0.755100  0.301700  0.831540  1
  N  N561  1  0.304000  0.798500  0.377740  1
  N  N562  1  0.696000  0.201500  0.622260  1
  N  N563  1  0.401700  0.931000  0.414920  1
  N  N564  1  0.598300  0.069000  0.585080  1
  N  N565  1  0.231000  0.640500  0.343550  1
  N  N566  1  0.769000  0.359500  0.656450  1
  N  N567  1  0.198500  0.509300  0.323300  1
  N  N568  1  0.801500  0.490700  0.676700  1
  N  N569  1  0.660300  0.427700  0.438550  1
  N  N570  1  0.339700  0.572300  0.561450  1
  N  N571  1  0.783100  0.522700  0.497200  1
  N  N572  1  0.216900  0.477300  0.502800  1
  N  N573  1  0.514800  0.353200  0.430850  1
  N  N574  1  0.485200  0.646800  0.569150  1
  N  N575  1  0.395200  0.334800  0.437070  1
  N  N576  1  0.604800  0.665200  0.562930  1
  N  N577  1  0.586000  0.271000  0.407160  1
  N  N578  1  0.414000  0.729000  0.592840  1
  N  N579  1  0.549800  0.151800  0.412720  1
  N  N580  1  0.450200  0.848200  0.587280  1
  N  N581  1  0.562600  0.328400  0.332070  1
  N  N582  1  0.437400  0.671600  0.667930  1
  N  N583  1  0.510800  0.257300  0.229010  1
  N  N584  1  0.489200  0.742700  0.770990  1
  N  N585  1  0.288600  0.329500  0.244970  1
  N  N586  1  0.711400  0.670500  0.755030  1
  N  N587  1  0.298100  0.332000  0.340010  1
  N  N588  1  0.701900  0.668000  0.659990  1
  N  N589  1  0.171900  0.220500  0.150400  1
  N  N590  1  0.828100  0.779500  0.849600  1
  N  N591  1  0.074600  0.088700  0.114080  1
  N  N592  1  0.925400  0.911300  0.885920  1
  N  N593  1  0.266600  0.366900  0.155900  1
  N  N594  1  0.733400  0.633100  0.844100  1
  N  N595  1  0.245100  0.468000  0.156000  1
  N  N596  1  0.754900  0.532000  0.844000  1
  N  N597  1  0.310700  0.261600  0.140130  1
  N  N598  1  0.689300  0.738400  0.859870  1
  N  N599  1  0.388300  0.204100  0.123930  1
  N  N600  1  0.611700  0.795900  0.876070  1
  N  N601  1  0.537700  0.948100  0.249180  1
  N  N602  1  0.462300  0.051900  0.750820  1
  N  N603  1  0.510300  0.983000  0.342070  1
  N  N604  1  0.489700  0.017000  0.657930  1
  N  N605  1  0.551600  0.022600  0.178850  1
  N  N606  1  0.448400  0.977400  0.821150  1
  N  N607  1  0.523700  0.112100  0.162980  1
  N  N608  1  0.476300  0.887900  0.837020  1
  N  N609  1  0.458300  0.867200  0.134620  1
  N  N610  1  0.541700  0.132800  0.865380  1
  N  N611  1  0.329200  0.777430  0.096330  1
  N  N612  1  0.670800  0.222570  0.903670  1
  N  N613  1  0.603440  0.921500  0.158560  1
  N  N614  1  0.396560  0.078500  0.841440  1
  N  N615  1  0.708600  0.931400  0.119800  1
  N  N616  1  0.291400  0.068600  0.880200  1
  N  N617  1  0.366300  0.745500  0.905100  1
  N  N618  1  0.633700  0.254500  0.094900  1
  N  N619  1  0.442800  0.426000  0.671400  1
  N  N620  1  0.557200  0.574000  0.328600  1
  N  N621  1  0.255000  0.047700  0.351300  1
  N  N622  1  0.745000  0.952300  0.648700  1
  N  N623  1  0.235700  0.094800  0.226400  1
  N  N624  1  0.764300  0.905200  0.773600  1
  N  N625  1  0.257700  0.907900  0.271100  1
  N  N626  1  0.742300  0.092100  0.728900  1
  N  N627  1  0.225400  0.953700  0.145900  1
  N  N628  1  0.774600  0.046300  0.854100  1
  O  O629  1  0.819400  0.263100  0.488700  1
  O  O630  1  0.180600  0.736900  0.511300  1
  O  O631  1  0.979300  0.362600  0.548600  1
  O  O632  1  0.020700  0.637400  0.451400  1
  O  O633  1  0.044300  0.246600  0.534000  1
  O  O634  1  0.955700  0.753400  0.466000  1
  O  O635  1  0.142000  0.296800  0.633200  1
  O  O636  1  0.858000  0.703200  0.366800  1
  O  O637  1  0.192900  0.441400  0.758500  1
  O  O638  1  0.807100  0.558600  0.241500  1
  O  O639  1  0.178700  0.501700  0.672200  1
  O  O640  1  0.821300  0.498300  0.327800  1
  O  O641  1  0.221500  0.649800  0.677600  1
  O  O642  1  0.778500  0.350200  0.322400  1
  O  O643  1  0.136900  0.551000  0.825500  1
  O  O644  1  0.863100  0.449000  0.174500  1
  O  O645  1  0.001400  0.580400  0.799100  1
  O  O646  1  0.998600  0.419600  0.200900  1
  O  O647  1  0.902700  0.537300  0.870300  1
  O  O648  1  0.097300  0.462700  0.129700  1
  O  O649  1  0.364100  0.816700  0.914900  1
  O  O650  1  0.635900  0.183300  0.085100  1
  O  O651  1  0.297400  0.667900  0.876300  1
  O  O652  1  0.702600  0.332100  0.123700  1
  O  O653  1  0.437900  0.749400  0.924000  1
  O  O654  1  0.562100  0.250600  0.076000  1
  O  O655  1  0.445400  0.607800  0.926700  1
  O  O656  1  0.554600  0.392200  0.073300  1
  O  O657  1  0.345100  0.472000  0.811600  1
  O  O658  1  0.654900  0.528000  0.188400  1
  O  O659  1  0.368100  0.404100  0.640300  1
  O  O660  1  0.631900  0.595900  0.359700  1
  O  O661  1  0.466500  0.471700  0.735800  1
  O  O662  1  0.533500  0.528300  0.264200  1
  O  O663  1  0.493400  0.405600  0.642200  1
  O  O664  1  0.506600  0.594400  0.357800  1
  O  O665  1  0.354600  0.372700  0.851100  1
  O  O666  1  0.645400  0.627300  0.148900  1
  O  O667  1  0.283900  0.301500  0.941900  1
  O  O668  1  0.716100  0.698500  0.058100  1
  O  O669  1  0.443200  0.410500  0.029500  1
  O  O670  1  0.556800  0.589500  0.970500  1
  O  O671  1  0.499600  0.414700  0.906000  1
  O  O672  1  0.500400  0.585300  0.094000  1
  O  O673  1  0.526800  0.328000  0.825500  1
  O  O674  1  0.473200  0.672000  0.174500  1
  O  O675  1  0.544700  0.353300  0.720500  1
  O  O676  1  0.455300  0.646700  0.279500  1
  O  O677  1  0.617200  0.380400  0.608000  1
  O  O678  1  0.382800  0.619600  0.392000  1
  O  O679  1  0.857200  0.377500  0.430200  1
  O  O680  1  0.142800  0.622500  0.569800  1
  O  O681  1  0.987300  0.381500  0.367800  1
  O  O682  1  0.012700  0.618500  0.632200  1
  O  O683  1  0.936300  0.547100  0.517700  1
  O  O684  1  0.063700  0.452900  0.482300  1
  O  O685  1  0.050600  0.350500  0.260500  1
  O  O686  1  0.949400  0.649500  0.739500  1
  O  O687  1  0.952700  0.492900  0.336900  1
  O  O688  1  0.047300  0.507100  0.663100  1
  O  O689  1  0.251900  0.963700  0.343600  1
  O  O690  1  0.748100  0.036300  0.656400  1
  O  O691  1  0.336300  0.117400  0.362700  1
  O  O692  1  0.663700  0.882600  0.637300  1
  O  O693  1  0.184500  0.046000  0.343000  1
  O  O694  1  0.815500  0.954000  0.657000  1
  O  O695  1  0.233300  0.035500  0.152200  1
  O  O696  1  0.766700  0.964500  0.847800  1
  O  O697  1  0.174000  0.087400  0.244100  1
  O  O698  1  0.826000  0.912600  0.755900  1
  O  O699  1  0.324400  0.154300  0.263400  1
  O  O700  1  0.675600  0.845700  0.736600  1
  O  O701  1  0.400800  0.067500  0.264700  1
  O  O702  1  0.599200  0.932500  0.735300  1
  O  O703  1  0.090300  0.931100  0.227600  1
  O  O704  1  0.909700  0.068900  0.772400  1
  O  O705  1  0.453800  0.417000  0.654000  1
  O  O706  1  0.546200  0.583000  0.346000  1
  O  O707  1  0.313300  0.912000  0.256800  1
  O  O708  1  0.686700  0.088000  0.743200  1
  O  O709  1  0.163500  0.848300  0.231500  1
  O  O710  1  0.836500  0.151700  0.768500  1
  O  O711  1  0.158500  0.891600  0.130600  1
  O  O712  1  0.841500  0.108400  0.869400  1
  O  O713  1  0.309700  0.957500  0.158100  1
  O  O714  1  0.690300  0.042500  0.841900  1
