# generated using pymatgen
data_B4H48Pd3(C3N2)16
_symmetry_space_group_name_H-M   'P 1'
_cell_length_a   19.46910000
_cell_length_b   19.72410000
_cell_length_c   23.41200000
_cell_angle_alpha   110.75400000
_cell_angle_beta   93.66000000
_cell_angle_gamma   116.55700000
_symmetry_Int_Tables_number   1
_chemical_formula_structural   B4H48Pd3(C3N2)16
_chemical_formula_sum   'B16 H192 Pd12 C192 N128'
_cell_volume   7249.68578017
_cell_formula_units_Z   4
loop_
 _symmetry_equiv_pos_site_id
 _symmetry_equiv_pos_as_xyz
  1  'x, y, z'
loop_
 _atom_site_type_symbol
 _atom_site_label
 _atom_site_symmetry_multiplicity
 _atom_site_fract_x
 _atom_site_fract_y
 _atom_site_fract_z
 _atom_site_occupancy
  B  B1  1  0.952220  0.060940  0.314670  1
  B  B2  1  0.047780  0.939060  0.685330  1
  B  B3  1  0.906830  0.656350  0.092870  1
  B  B4  1  0.093170  0.343650  0.907130  1
  B  B5  1  0.283960  0.124190  0.553190  1
  B  B6  1  0.716040  0.875810  0.446810  1
  B  B7  1  0.209820  0.875910  0.942200  1
  B  B8  1  0.790180  0.124090  0.057800  1
  B  B9  1  0.235540  0.711700  0.330260  1
  B  B10  1  0.764460  0.288300  0.669740  1
  B  B11  1  0.584600  0.346500  0.403990  1
  B  B12  1  0.415400  0.653500  0.596010  1
  B  B13  1  0.257900  0.294730  0.172030  1
  B  B14  1  0.742100  0.705270  0.827970  1
  B  B15  1  0.539770  0.940230  0.180050  1
  B  B16  1  0.460230  0.059770  0.819950  1
  H  H17  1  0.826300  0.902000  0.216100  1
  H  H18  1  0.173700  0.098000  0.783900  1
  H  H19  1  0.848300  0.860100  0.109300  1
  H  H20  1  0.151700  0.139900  0.890700  1
  H  H21  1  0.036800  0.077300  0.221700  1
  H  H22  1  0.963200  0.922700  0.778300  1
  H  H23  1  0.002500  0.223900  0.313800  1
  H  H24  1  0.997500  0.776100  0.686200  1
  H  H25  1  0.143100  0.324800  0.352500  1
  H  H26  1  0.856900  0.675200  0.647500  1
  H  H27  1  0.114500  0.128400  0.373800  1
  H  H28  1  0.885500  0.871600  0.626200  1
  H  H29  1  0.925600  0.038900  0.431800  1
  H  H30  1  0.074400  0.961100  0.568200  1
  H  H31  1  0.964000  0.946700  0.452400  1
  H  H32  1  0.036000  0.053300  0.547600  1
  H  H33  1  0.005600  0.946300  0.291000  1
  H  H34  1  0.994400  0.053700  0.709000  1
  H  H35  1  0.786700  0.005600  0.250500  1
  H  H36  1  0.213300  0.994400  0.749500  1
  H  H37  1  0.720300  0.070800  0.314700  1
  H  H38  1  0.279700  0.929200  0.685300  1
  H  H39  1  0.934000  0.171400  0.419300  1
  H  H40  1  0.066000  0.828600  0.580700  1
  H  H41  1  0.839100  0.520300  0.970100  1
  H  H42  1  0.160900  0.479700  0.029900  1
  H  H43  1  0.714400  0.398900  0.949900  1
  H  H44  1  0.285600  0.601100  0.050100  1
  H  H45  1  0.771500  0.563300  0.123700  1
  H  H46  1  0.228500  0.436700  0.876300  1
  H  H47  1  0.806800  0.707800  0.161100  1
  H  H48  1  0.193200  0.292200  0.838900  1
  H  H49  1  0.856200  0.785400  0.274600  1
  H  H50  1  0.143800  0.214600  0.725400  1
  H  H51  1  0.014600  0.729400  0.212000  1
  H  H52  1  0.985400  0.270600  0.788000  1
  H  H53  1  0.865400  0.649800  0.966900  1
  H  H54  1  0.134600  0.350200  0.033100  1
  H  H55  1  0.919700  0.781100  0.959100  1
  H  H56  1  0.080300  0.218900  0.040900  1
  H  H57  1  0.983700  0.828800  0.135300  1
  H  H58  1  0.016300  0.171200  0.864700  1
  H  H59  1  0.937700  0.531200  0.103800  1
  H  H60  1  0.062300  0.468800  0.896200  1
  H  H61  1  0.071000  0.548600  0.101000  1
  H  H62  1  0.929000  0.451400  0.899000  1
  H  H63  1  0.067000  0.737700  0.083600  1
  H  H64  1  0.933000  0.262300  0.916400  1
  H  H65  1  0.176400  0.190500  0.571300  1
  H  H66  1  0.823600  0.809500  0.428700  1
  H  H67  1  0.170400  0.262700  0.506800  1
  H  H68  1  0.829600  0.737300  0.493200  1
  H  H69  1  0.328700  0.194600  0.467800  1
  H  H70  1  0.671300  0.805400  0.532200  1
  H  H71  1  0.258900  0.057700  0.647700  1
  H  H72  1  0.741100  0.942300  0.352300  1
  H  H73  1  0.283100  0.152600  0.755300  1
  H  H74  1  0.716900  0.847400  0.244700  1
  H  H75  1  0.334300  0.276700  0.655300  1
  H  H76  1  0.665700  0.723300  0.344700  1
  H  H77  1  0.236000  0.959300  0.554900  1
  H  H78  1  0.764000  0.040700  0.445100  1
  H  H79  1  0.125300  0.836000  0.470100  1
  H  H80  1  0.874700  0.164000  0.529900  1
  H  H81  1  0.150700  0.032100  0.446300  1
  H  H82  1  0.849300  0.967900  0.553700  1
  H  H83  1  0.452600  0.234000  0.612700  1
  H  H84  1  0.547400  0.766000  0.387300  1
  H  H85  1  0.541600  0.202800  0.553900  1
  H  H86  1  0.458400  0.797200  0.446100  1
  H  H87  1  0.322900  0.028000  0.456400  1
  H  H88  1  0.677100  0.972000  0.543600  1
  H  H89  1  0.195100  0.013900  0.934700  1
  H  H90  1  0.804900  0.986100  0.065300  1
  H  H91  1  0.109100  0.052600  0.992700  1
  H  H92  1  0.890900  0.947400  0.007300  1
  H  H93  1  0.096400  0.858700  0.013300  1
  H  H94  1  0.903600  0.141300  0.986700  1
  H  H95  1  0.084900  0.706700  0.895100  1
  H  H96  1  0.915100  0.293300  0.104900  1
  H  H97  1  0.080300  0.631400  0.959200  1
  H  H98  1  0.919700  0.368600  0.040800  1
  H  H99  1  0.270600  0.854500  0.043900  1
  H  H100  1  0.729400  0.145500  0.956100  1
  H  H101  1  0.139600  0.889000  0.832400  1
  H  H102  1  0.860400  0.111000  0.167600  1
  H  H103  1  0.135900  0.792500  0.728800  1
  H  H104  1  0.864100  0.207500  0.271200  1
  H  H105  1  0.242400  0.762300  0.856400  1
  H  H106  1  0.757600  0.237700  0.143600  1
  H  H107  1  0.372500  0.927500  0.924000  1
  H  H108  1  0.627500  0.072500  0.076000  1
  H  H109  1  0.482100  0.051800  0.010600  1
  H  H110  1  0.517900  0.948200  0.989400  1
  H  H111  1  0.286200  0.017200  0.060700  1
  H  H112  1  0.713800  0.982800  0.939300  1
  H  H113  1  0.064500  0.589900  0.295700  1
  H  H114  1  0.935500  0.410100  0.704300  1
  H  H115  1  0.974100  0.643300  0.303800  1
  H  H116  1  0.025900  0.356700  0.696200  1
  H  H117  1  0.188900  0.835600  0.360100  1
  H  H118  1  0.811100  0.164400  0.639900  1
  H  H119  1  0.347100  0.680400  0.264500  1
  H  H120  1  0.652900  0.319600  0.735500  1
  H  H121  1  0.336100  0.675000  0.160300  1
  H  H122  1  0.663900  0.325000  0.839700  1
  H  H123  1  0.170900  0.717100  0.220700  1
  H  H124  1  0.829100  0.282900  0.779300  1
  H  H125  1  0.291000  0.808400  0.466700  1
  H  H126  1  0.709000  0.191600  0.533300  1
  H  H127  1  0.396800  0.952500  0.508100  1
  H  H128  1  0.603200  0.047500  0.491900  1
  H  H129  1  0.359200  0.850900  0.323400  1
  H  H130  1  0.640800  0.149100  0.676600  1
  H  H131  1  0.195600  0.546700  0.258100  1
  H  H132  1  0.804400  0.453300  0.741900  1
  H  H133  1  0.205300  0.525400  0.411300  1
  H  H134  1  0.794700  0.474600  0.588700  1
  H  H135  1  0.235700  0.669500  0.436600  1
  H  H136  1  0.764300  0.330500  0.563400  1
  H  H137  1  0.649100  0.511700  0.427400  1
  H  H138  1  0.350900  0.488300  0.572600  1
  H  H139  1  0.789500  0.609000  0.478900  1
  H  H140  1  0.210500  0.391000  0.521100  1
  H  H141  1  0.729700  0.405100  0.475800  1
  H  H142  1  0.270300  0.594900  0.524200  1
  H  H143  1  0.555000  0.400700  0.529400  1
  H  H144  1  0.445000  0.599300  0.470600  1
  H  H145  1  0.424900  0.383500  0.534200  1
  H  H146  1  0.575100  0.616500  0.465800  1
  H  H147  1  0.422800  0.302700  0.355100  1
  H  H148  1  0.577200  0.697300  0.644900  1
  H  H149  1  0.691400  0.284100  0.389900  1
  H  H150  1  0.308600  0.715900  0.610100  1
  H  H151  1  0.652900  0.153300  0.398700  1
  H  H152  1  0.347100  0.846700  0.601300  1
  H  H153  1  0.482500  0.206400  0.423900  1
  H  H154  1  0.517500  0.793600  0.576100  1
  H  H155  1  0.592700  0.441000  0.328800  1
  H  H156  1  0.407300  0.559000  0.671200  1
  H  H157  1  0.555300  0.361400  0.213700  1
  H  H158  1  0.444700  0.638600  0.786300  1
  H  H159  1  0.507800  0.204100  0.286500  1
  H  H160  1  0.492200  0.795900  0.713500  1
  H  H161  1  0.379400  0.450600  0.276800  1
  H  H162  1  0.620600  0.549400  0.723200  1
  H  H163  1  0.392000  0.453800  0.381400  1
  H  H164  1  0.608000  0.546200  0.618600  1
  H  H165  1  0.219000  0.232700  0.263400  1
  H  H166  1  0.781000  0.767300  0.736600  1
  H  H167  1  0.099600  0.268800  0.175500  1
  H  H168  1  0.900400  0.731200  0.824500  1
  H  H169  1  0.989300  0.124900  0.133100  1
  H  H170  1  0.010700  0.875100  0.866900  1
  H  H171  1  0.188400  0.122000  0.117500  1
  H  H172  1  0.811600  0.878000  0.882500  1
  H  H173  1  0.176100  0.382600  0.183500  1
  H  H174  1  0.823900  0.617400  0.816500  1
  H  H175  1  0.333700  0.512400  0.118000  1
  H  H176  1  0.666300  0.487600  0.882000  1
  H  H177  1  0.360800  0.403000  0.120300  1
  H  H178  1  0.639200  0.597000  0.879700  1
  H  H179  1  0.283600  0.241700  0.046300  1
  H  H180  1  0.716400  0.758300  0.953700  1
  H  H181  1  0.367300  0.178200  0.028500  1
  H  H182  1  0.632700  0.821800  0.971500  1
  H  H183  1  0.369300  0.252000  0.208000  1
  H  H184  1  0.630700  0.748000  0.792000  1
  H  H185  1  0.566800  0.865300  0.260800  1
  H  H186  1  0.433200  0.134700  0.739200  1
  H  H187  1  0.541800  0.907900  0.365500  1
  H  H188  1  0.458200  0.092100  0.634500  1
  H  H189  1  0.499500  0.030800  0.282300  1
  H  H190  1  0.500500  0.969200  0.717700  1
  H  H191  1  0.663000  0.115900  0.236200  1
  H  H192  1  0.337000  0.884100  0.763800  1
  H  H193  1  0.633500  0.214000  0.216600  1
  H  H194  1  0.366500  0.786000  0.783400  1
  H  H195  1  0.447600  0.988300  0.125000  1
  H  H196  1  0.552400  0.011700  0.875000  1
  H  H197  1  0.480300  0.832500  0.046200  1
  H  H198  1  0.519700  0.167500  0.953800  1
  H  H199  1  0.338900  0.732900  0.005500  1
  H  H200  1  0.661100  0.267100  0.994500  1
  H  H201  1  0.380700  0.854800  0.188000  1
  H  H202  1  0.619300  0.145200  0.812000  1
  H  H203  1  0.565200  0.797700  0.145100  1
  H  H204  1  0.434800  0.202300  0.854900  1
  H  H205  1  0.681800  0.814500  0.105900  1
  H  H206  1  0.318200  0.185500  0.894100  1
  H  H207  1  0.683800  0.023800  0.149000  1
  H  H208  1  0.316200  0.976200  0.851000  1
  Pd  Pd209  1  0.019577  0.962936  0.082706  1
  Pd  Pd210  1  0.980423  0.037064  0.917294  1
  Pd  Pd211  1  0.032693  0.842306  0.353275  1
  Pd  Pd212  1  0.967307  0.157694  0.646725  1
  Pd  Pd213  1  0.213806  0.714947  0.093170  1
  Pd  Pd214  1  0.786194  0.285053  0.906830  1
  Pd  Pd215  1  0.457179  0.159827  0.142509  1
  Pd  Pd216  1  0.542821  0.840173  0.857491  1
  Pd  Pd217  1  0.277900  0.289285  0.406982  1
  Pd  Pd218  1  0.722100  0.710715  0.593018  1
  Pd  Pd219  1  0.476818  0.041082  0.414961  1
  Pd  Pd220  1  0.523182  0.958918  0.585039  1
  C  C221  1  0.870600  0.932420  0.204310  1
  C  C222  1  0.129400  0.067580  0.795690  1
  C  C223  1  0.883670  0.908610  0.145320  1
  C  C224  1  0.116330  0.091390  0.854680  1
  C  C225  1  0.987210  0.028800  0.207250  1
  C  C226  1  0.012790  0.971200  0.792750  1
  C  C227  1  0.041830  0.216400  0.330430  1
  C  C228  1  0.958170  0.783600  0.669570  1
  C  C229  1  0.119380  0.271710  0.351850  1
  C  C230  1  0.880620  0.728290  0.648150  1
  C  C231  1  0.103970  0.164780  0.363470  1
  C  C232  1  0.896030  0.835220  0.636530  1
  C  C233  1  0.946310  0.009250  0.405820  1
  C  C234  1  0.053690  0.990750  0.594180  1
  C  C235  1  0.967370  0.958210  0.417110  1
  C  C236  1  0.032630  0.041790  0.582890  1
  C  C237  1  0.990330  0.957860  0.328560  1
  C  C238  1  0.009670  0.042140  0.671440  1
  C  C239  1  0.808610  0.046360  0.292130  1
  C  C240  1  0.191390  0.953640  0.707870  1
  C  C241  1  0.772480  0.083590  0.327650  1
  C  C242  1  0.227520  0.916410  0.672350  1
  C  C243  1  0.889090  0.138200  0.384910  1
  C  C244  1  0.110910  0.861800  0.615090  1
  C  C245  1  0.809100  0.514700  0.999170  1
  C  C246  1  0.190900  0.485300  0.000830  1
  C  C247  1  0.739500  0.447800  0.987480  1
  C  C248  1  0.260500  0.552200  0.012520  1
  C  C249  1  0.771700  0.538300  0.081700  1
  C  C250  1  0.228300  0.461700  0.918300  1
  C  C251  1  0.854570  0.721280  0.185540  1
  C  C252  1  0.145430  0.278720  0.814460  1
  C  C253  1  0.881810  0.763820  0.247820  1
  C  C254  1  0.118190  0.236180  0.752180  1
  C  C255  1  0.968650  0.732930  0.213680  1
  C  C256  1  0.031350  0.267070  0.786320  1
  C  C257  1  0.896800  0.702500  0.000580  1
  C  C258  1  0.103200  0.297500  0.999420  1
  C  C259  1  0.926000  0.774900  0.996300  1
  C  C260  1  0.074000  0.225100  0.003700  1
  C  C261  1  0.960780  0.799920  0.091750  1
  C  C262  1  0.039220  0.200080  0.908250  1
  C  C263  1  0.979460  0.574540  0.098900  1
  C  C264  1  0.020540  0.425460  0.901100  1
  C  C265  1  0.053620  0.584340  0.097890  1
  C  C266  1  0.946380  0.415660  0.902110  1
  C  C267  1  0.050860  0.688180  0.087940  1
  C  C268  1  0.949140  0.311820  0.912060  1
  C  C269  1  0.206590  0.200310  0.542920  1
  C  C270  1  0.793410  0.799690  0.457080  1
  C  C271  1  0.203520  0.240380  0.507160  1
  C  C272  1  0.796480  0.759620  0.492840  1
  C  C273  1  0.290390  0.203050  0.485980  1
  C  C274  1  0.709610  0.796950  0.514020  1
  C  C275  1  0.276200  0.114500  0.661470  1
  C  C276  1  0.723800  0.885500  0.338530  1
  C  C277  1  0.290500  0.167100  0.721620  1
  C  C278  1  0.709500  0.832900  0.278380  1
  C  C279  1  0.316700  0.232100  0.666500  1
  C  C280  1  0.683300  0.767900  0.333500  1
  C  C281  1  0.205140  0.959170  0.522770  1
  C  C282  1  0.794860  0.040830  0.477230  1
  C  C283  1  0.144080  0.891080  0.476040  1
  C  C284  1  0.855920  0.108920  0.523960  1
  C  C285  1  0.158260  0.999140  0.463260  1
  C  C286  1  0.841740  0.000860  0.536740  1
  C  C287  1  0.437310  0.188960  0.573730  1
  C  C288  1  0.562690  0.811040  0.426270  1
  C  C289  1  0.486280  0.171490  0.540870  1
  C  C290  1  0.513720  0.828510  0.459130  1
  C  C291  1  0.366590  0.076120  0.487550  1
  C  C292  1  0.633410  0.923880  0.512450  1
  C  C293  1  0.164580  0.987070  0.957150  1
  C  C294  1  0.835420  0.012930  0.042850  1
  C  C295  1  0.117370  0.008700  0.989860  1
  C  C296  1  0.882630  0.991300  0.010140  1
  C  C297  1  0.109960  0.901960  0.000950  1
  C  C298  1  0.890040  0.098040  0.999050  1
  C  C299  1  0.121470  0.727360  0.933040  1
  C  C300  1  0.878530  0.272640  0.066960  1
  C  C301  1  0.119540  0.685890  0.968290  1
  C  C302  1  0.880460  0.314110  0.031710  1
  C  C303  1  0.223630  0.808250  0.014900  1
  C  C304  1  0.776370  0.191750  0.985100  1
  C  C305  1  0.159530  0.852620  0.825430  1
  C  C306  1  0.840470  0.147380  0.174570  1
  C  C307  1  0.158130  0.798500  0.767890  1
  C  C308  1  0.841870  0.201500  0.232110  1
  C  C309  1  0.216280  0.781600  0.837390  1
  C  C310  1  0.783720  0.218400  0.162610  1
  C  C311  1  0.368080  0.960380  0.961840  1
  C  C312  1  0.631920  0.039620  0.038160  1
  C  C313  1  0.428550  0.029210  0.009880  1
  C  C314  1  0.571450  0.970790  0.990120  1
  C  C315  1  0.321450  0.010440  0.037390  1
  C  C316  1  0.678550  0.989560  0.962610  1
  C  C317  1  0.079110  0.646080  0.309820  1
  C  C318  1  0.920890  0.353920  0.690180  1
  C  C319  1  0.029280  0.675490  0.313960  1
  C  C320  1  0.970720  0.324510  0.686040  1
  C  C321  1  0.146960  0.780700  0.344890  1
  C  C322  1  0.853040  0.219300  0.655110  1
  C  C323  1  0.310050  0.686250  0.242600  1
  C  C324  1  0.689950  0.313750  0.757400  1
  C  C325  1  0.303690  0.684370  0.185910  1
  C  C326  1  0.696310  0.315630  0.814090  1
  C  C327  1  0.212980  0.706670  0.217970  1
  C  C328  1  0.787020  0.293330  0.782030  1
  C  C329  1  0.317950  0.834870  0.442650  1
  C  C330  1  0.682050  0.165130  0.557350  1
  C  C331  1  0.376410  0.914390  0.465630  1
  C  C332  1  0.623590  0.085610  0.534370  1
  C  C333  1  0.355730  0.858680  0.364410  1
  C  C334  1  0.644270  0.141320  0.635590  1
  C  C335  1  0.206400  0.561780  0.301440  1
  C  C336  1  0.793600  0.438220  0.698560  1
  C  C337  1  0.209200  0.548300  0.382300  1
  C  C338  1  0.790800  0.451700  0.617700  1
  C  C339  1  0.227400  0.629400  0.396800  1
  C  C340  1  0.772600  0.370600  0.603200  1
  C  C341  1  0.682500  0.497400  0.444100  1
  C  C342  1  0.317500  0.502600  0.555900  1
  C  C343  1  0.760800  0.555000  0.476200  1
  C  C344  1  0.239200  0.445000  0.523800  1
  C  C345  1  0.723700  0.447100  0.470900  1
  C  C346  1  0.276300  0.552900  0.529100  1
  C  C347  1  0.513200  0.379800  0.494820  1
  C  C348  1  0.486800  0.620200  0.505180  1
  C  C349  1  0.441240  0.369350  0.497430  1
  C  C350  1  0.558760  0.630650  0.502570  1
  C  C351  1  0.440300  0.325600  0.398970  1
  C  C352  1  0.559700  0.674400  0.601030  1
  C  C353  1  0.644200  0.252100  0.397880  1
  C  C354  1  0.355800  0.747900  0.602120  1
  C  C355  1  0.622810  0.179500  0.402200  1
  C  C356  1  0.377190  0.820500  0.597800  1
  C  C357  1  0.529800  0.209310  0.416090  1
  C  C358  1  0.470200  0.790690  0.583910  1
  C  C359  1  0.572600  0.383700  0.306620  1
  C  C360  1  0.427400  0.616300  0.693380  1
  C  C361  1  0.547900  0.338900  0.243180  1
  C  C362  1  0.452100  0.661100  0.756820  1
  C  C363  1  0.524090  0.254050  0.282800  1
  C  C364  1  0.475910  0.745950  0.717200  1
  C  C365  1  0.348200  0.406560  0.286640  1
  C  C366  1  0.651800  0.593440  0.713360  1
  C  C367  1  0.355000  0.408400  0.344390  1
  C  C368  1  0.645000  0.591600  0.655610  1
  C  C369  1  0.260730  0.287850  0.279890  1
  C  C370  1  0.739270  0.712150  0.720110  1
  C  C371  1  0.103630  0.220870  0.157450  1
  C  C372  1  0.896370  0.779130  0.842550  1
  C  C373  1  0.042470  0.141480  0.134730  1
  C  C374  1  0.957530  0.858520  0.865270  1
  C  C375  1  0.151910  0.140170  0.125630  1
  C  C376  1  0.848090  0.859830  0.874370  1
  C  C377  1  0.220300  0.402300  0.168000  1
  C  C378  1  0.779700  0.597700  0.832000  1
  C  C379  1  0.304900  0.472950  0.132740  1
  C  C380  1  0.695100  0.527050  0.867260  1
  C  C381  1  0.319900  0.411400  0.133400  1
  C  C382  1  0.680100  0.588600  0.866600  1
  C  C383  1  0.310850  0.235790  0.076680  1
  C  C384  1  0.689150  0.764210  0.923320  1
  C  C385  1  0.357340  0.200920  0.067020  1
  C  C386  1  0.642660  0.799080  0.932980  1
  C  C387  1  0.358260  0.241220  0.165450  1
  C  C388  1  0.641740  0.758780  0.834550  1
  C  C389  1  0.550690  0.904350  0.277780  1
  C  C390  1  0.449310  0.095650  0.722220  1
  C  C391  1  0.535720  0.927150  0.335610  1
  C  C392  1  0.464280  0.072850  0.664390  1
  C  C393  1  0.513190  0.994680  0.290060  1
  C  C394  1  0.486810  0.005320  0.709940  1
  C  C395  1  0.615610  0.102020  0.211040  1
  C  C396  1  0.384390  0.897980  0.788960  1
  C  C397  1  0.599280  0.156380  0.200860  1
  C  C398  1  0.400720  0.843620  0.799140  1
  C  C399  1  0.497730  0.032330  0.150600  1
  C  C400  1  0.502270  0.967670  0.849400  1
  C  C401  1  0.443240  0.824910  0.069910  1
  C  C402  1  0.556760  0.175090  0.930090  1
  C  C403  1  0.364920  0.770330  0.047810  1
  C  C404  1  0.635080  0.229670  0.952190  1
  C  C405  1  0.387580  0.836700  0.147500  1
  C  C406  1  0.612420  0.163300  0.852500  1
  C  C407  1  0.602720  0.845200  0.141770  1
  C  C408  1  0.397280  0.154800  0.858230  1
  C  C409  1  0.667360  0.855390  0.119720  1
  C  C410  1  0.332640  0.144610  0.880280  1
  C  C411  1  0.668740  0.969520  0.143470  1
  C  C412  1  0.331260  0.030480  0.856530  1
  N  N413  1  0.936670  0.011230  0.243380  1
  N  N414  1  0.063330  0.988770  0.756620  1
  N  N415  1  0.957600  0.968470  0.148510  1
  N  N416  1  0.042400  0.031530  0.851490  1
  N  N417  1  0.030190  0.145400  0.337470  1
  N  N418  1  0.969810  0.854600  0.662530  1
  N  N419  1  0.159320  0.239420  0.372770  1
  N  N420  1  0.840680  0.760580  0.627230  1
  N  N421  1  0.960740  0.010210  0.348800  1
  N  N422  1  0.039260  0.989790  0.651200  1
  N  N423  1  0.994910  0.925530  0.367530  1
  N  N424  1  0.005090  0.074470  0.632470  1
  N  N425  1  0.884070  0.080030  0.329180  1
  N  N426  1  0.115930  0.919970  0.670820  1
  N  N427  1  0.823940  0.142270  0.384840  1
  N  N428  1  0.176060  0.857730  0.615160  1
  N  N429  1  0.830750  0.574140  0.059130  1
  N  N430  1  0.169250  0.425860  0.940870  1
  N  N431  1  0.710600  0.462000  0.039500  1
  N  N432  1  0.289400  0.538000  0.960500  1
  N  N433  1  0.909490  0.700430  0.163220  1
  N  N434  1  0.090510  0.299570  0.836780  1
  N  N435  1  0.954200  0.771060  0.266820  1
  N  N436  1  0.045800  0.228940  0.733180  1
  N  N437  1  0.920150  0.717500  0.062140  1
  N  N438  1  0.079850  0.282500  0.937860  1
  N  N439  1  0.966310  0.838210  0.054640  1
  N  N440  1  0.033690  0.161790  0.945360  1
  N  N441  1  0.977490  0.639630  0.091440  1
  N  N442  1  0.022510  0.360370  0.908560  1
  N  N443  1  0.096680  0.656190  0.091510  1
  N  N444  1  0.903320  0.343810  0.908490  1
  N  N445  1  0.262810  0.176490  0.529560  1
  N  N446  1  0.737190  0.823510  0.470440  1
  N  N447  1  0.256900  0.242670  0.471670  1
  N  N448  1  0.743100  0.757330  0.528330  1
  N  N449  1  0.289440  0.153110  0.624640  1
  N  N450  1  0.710560  0.846890  0.375360  1
  N  N451  1  0.316400  0.241300  0.724930  1
  N  N452  1  0.683600  0.758700  0.275070  1
  N  N453  1  0.215240  0.029560  0.515710  1
  N  N454  1  0.784760  0.970440  0.484290  1
  N  N455  1  0.114020  0.915970  0.438670  1
  N  N456  1  0.885980  0.084030  0.561330  1
  N  N457  1  0.360480  0.127500  0.538730  1
  N  N458  1  0.639520  0.872500  0.461270  1
  N  N459  1  0.441680  0.100140  0.485030  1
  N  N460  1  0.558320  0.899860  0.514970  1
  N  N461  1  0.159220  0.918230  0.963100  1
  N  N462  1  0.840780  0.081770  0.036900  1
  N  N463  1  0.083380  0.956370  0.018220  1
  N  N464  1  0.916620  0.043630  0.981780  1
  N  N465  1  0.187680  0.806120  0.963510  1
  N  N466  1  0.812320  0.193880  0.036490  1
  N  N467  1  0.184420  0.736580  0.019680  1
  N  N468  1  0.815580  0.263420  0.980320  1
  N  N469  1  0.197650  0.840840  0.871220  1
  N  N470  1  0.802350  0.159160  0.128780  1
  N  N471  1  0.193780  0.754380  0.775330  1
  N  N472  1  0.806220  0.245620  0.224670  1
  N  N473  1  0.298710  0.947630  0.979100  1
  N  N474  1  0.701290  0.052370  0.020900  1
  N  N475  1  0.399100  0.060830  0.057480  1
  N  N476  1  0.600900  0.939170  0.942520  1
  N  N477  1  0.156610  0.713000  0.330030  1
  N  N478  1  0.843390  0.287000  0.669970  1
  N  N479  1  0.071720  0.759920  0.335400  1
  N  N480  1  0.928280  0.240080  0.664600  1
  N  N481  1  0.249780  0.698790  0.262750  1
  N  N482  1  0.750220  0.301210  0.737250  1
  N  N483  1  0.244100  0.697680  0.168580  1
  N  N484  1  0.755900  0.302320  0.831420  1
  N  N485  1  0.303610  0.798120  0.377910  1
  N  N486  1  0.696390  0.201880  0.622090  1
  N  N487  1  0.402240  0.931180  0.414990  1
  N  N488  1  0.597760  0.068820  0.585010  1
  N  N489  1  0.231250  0.640510  0.343630  1
  N  N490  1  0.768750  0.359490  0.656370  1
  N  N491  1  0.198400  0.509300  0.322820  1
  N  N492  1  0.801600  0.490700  0.677180  1
  N  N493  1  0.659630  0.427440  0.438770  1
  N  N494  1  0.340370  0.572560  0.561230  1
  N  N495  1  0.784200  0.524300  0.498800  1
  N  N496  1  0.215800  0.475700  0.501200  1
  N  N497  1  0.515450  0.353670  0.430980  1
  N  N498  1  0.484550  0.646330  0.569020  1
  N  N499  1  0.395680  0.334610  0.437340  1
  N  N500  1  0.604320  0.665390  0.562660  1
  N  N501  1  0.585330  0.270860  0.407150  1
  N  N502  1  0.414670  0.729140  0.592850  1
  N  N503  1  0.549280  0.151430  0.412650  1
  N  N504  1  0.450720  0.848570  0.587350  1
  N  N505  1  0.562500  0.328520  0.331740  1
  N  N506  1  0.437500  0.671480  0.668260  1
  N  N507  1  0.511320  0.257390  0.229310  1
  N  N508  1  0.488680  0.742610  0.770690  1
  N  N509  1  0.287920  0.329130  0.244510  1
  N  N510  1  0.712080  0.670870  0.755490  1
  N  N511  1  0.298540  0.332570  0.339920  1
  N  N512  1  0.701460  0.667430  0.660080  1
  N  N513  1  0.171850  0.220430  0.150140  1
  N  N514  1  0.828150  0.779570  0.849860  1
  N  N515  1  0.074470  0.088590  0.113900  1
  N  N516  1  0.925530  0.911410  0.886100  1
  N  N517  1  0.266150  0.366460  0.155830  1
  N  N518  1  0.733850  0.633540  0.844170  1
  N  N519  1  0.245400  0.468190  0.155500  1
  N  N520  1  0.754600  0.531810  0.844500  1
  N  N521  1  0.310870  0.261200  0.139590  1
  N  N522  1  0.689130  0.738800  0.860410  1
  N  N523  1  0.387740  0.204270  0.123320  1
  N  N524  1  0.612260  0.795730  0.876680  1
  N  N525  1  0.538140  0.948360  0.249350  1
  N  N526  1  0.461860  0.051640  0.750650  1
  N  N527  1  0.510450  0.982920  0.342090  1
  N  N528  1  0.489550  0.017080  0.657910  1
  N  N529  1  0.551660  0.022700  0.178610  1
  N  N530  1  0.448340  0.977300  0.821390  1
  N  N531  1  0.523400  0.112040  0.163140  1
  N  N532  1  0.476600  0.887960  0.836860  1
  N  N533  1  0.458510  0.867640  0.134260  1
  N  N534  1  0.541490  0.132360  0.865740  1
  N  N535  1  0.328250  0.777080  0.095910  1
  N  N536  1  0.671750  0.222920  0.904090  1
  N  N537  1  0.604320  0.922460  0.158750  1
  N  N538  1  0.395680  0.077540  0.841250  1
  N  N539  1  0.708600  0.931580  0.119890  1
  N  N540  1  0.291400  0.068420  0.880110  1
