# generated using pymatgen
data_P2H127PtC130S2N2Cl8(OF)6
_symmetry_space_group_name_H-M   'P 1'
_cell_length_a   13.25200000
_cell_length_b   20.82100000
_cell_length_c   21.98300000
_cell_angle_alpha   102.40700000
_cell_angle_beta   102.97300000
_cell_angle_gamma   95.74200000
_symmetry_Int_Tables_number   1
_chemical_formula_structural   P2H127PtC130S2N2Cl8(OF)6
_chemical_formula_sum   'P4 H254 Pt2 C260 S4 N4 Cl16 O12 F12'
_cell_volume   5702.19387098
_cell_formula_units_Z   2
loop_
 _symmetry_equiv_pos_site_id
 _symmetry_equiv_pos_as_xyz
  1  'x, y, z'
loop_
 _atom_site_type_symbol
 _atom_site_label
 _atom_site_symmetry_multiplicity
 _atom_site_fract_x
 _atom_site_fract_y
 _atom_site_fract_z
 _atom_site_occupancy
  P  P1  1  0.159000  0.134700  0.201100  1.0
  P  P2  1  0.841000  0.865300  0.798900  1.0
  P  P3  1  0.894000  0.100300  0.137120  1.0
  P  P4  1  0.106000  0.899700  0.862880  1.0
  H  H5  1  0.113600  0.694900  0.193100  1
  H  H6  1  0.886400  0.305100  0.806900  1
  H  H7  1  0.003800  0.668700  0.140200  1
  H  H8  1  0.996200  0.331300  0.859800  1
  H  H9  1  0.919300  0.664800  0.227600  1
  H  H10  1  0.080700  0.335200  0.772400  1
  H  H11  1  0.967600  0.739200  0.229300  1
  H  H12  1  0.032400  0.260800  0.770700  1
  H  H13  1  0.450200  0.040200  0.936400  1
  H  H14  1  0.549800  0.959800  0.063600  1
  H  H15  1  0.431100  0.017800  0.859700  1
  H  H16  1  0.568900  0.982200  0.140300  1
  H  H17  1  0.615000  0.036600  0.907800  1
  H  H18  1  0.385000  0.963400  0.092200  1
  H  H19  1  0.608700  0.110600  0.945200  1
  H  H20  1  0.391300  0.889400  0.054800  1
  H  H21  1  0.103700  0.551900  0.399800  1
  H  H22  1  0.896300  0.448100  0.600200  1
  H  H23  1  0.013000  0.562700  0.342600  1
  H  H24  1  0.987000  0.437300  0.657400  1
  H  H25  1  0.926200  0.554000  0.443400  1
  H  H26  1  0.073800  0.446000  0.556600  1
  H  H27  1  0.937100  0.617300  0.413300  1
  H  H28  1  0.062900  0.382700  0.586700  1
  H  H29  1  0.013100  0.287600  0.070700  1
  H  H30  1  0.986900  0.712400  0.929300  1
  H  H31  1  0.931700  0.334100  0.045800  1
  H  H32  1  0.068300  0.665900  0.954200  1
  H  H33  1  0.079000  0.328500  0.994300  1
  H  H34  1  0.921000  0.671500  0.005700  1
  H  H35  1  0.154000  0.369500  0.062400  1
  H  H36  1  0.846000  0.630500  0.937600  1
  H  H37  1  0.197000  0.807700  0.403000  1
  H  H38  1  0.803000  0.192300  0.597000  1
  H  H39  1  0.197500  0.834100  0.304800  1
  H  H40  1  0.802500  0.165900  0.695200  1
  H  H41  1  0.309600  0.927200  0.302300  1
  H  H42  1  0.690400  0.072800  0.697700  1
  H  H43  1  0.421300  0.993900  0.397900  1
  H  H44  1  0.578700  0.006100  0.602100  1
  H  H45  1  0.420800  0.967500  0.496100  1
  H  H46  1  0.579200  0.032500  0.503900  1
  H  H47  1  0.360700  0.652100  0.913500  1
  H  H48  1  0.639300  0.347900  0.086500  1
  H  H49  1  0.364600  0.740900  0.000200  1
  H  H50  1  0.635400  0.259100  0.999800  1
  H  H51  1  0.300100  0.721500  0.086400  1
  H  H52  1  0.699900  0.278500  0.913600  1
  H  H53  1  0.231600  0.613300  0.085900  1
  H  H54  1  0.768400  0.386700  0.914100  1
  H  H55  1  0.227600  0.524500  0.999200  1
  H  H56  1  0.772400  0.475500  0.000800  1
  H  H57  1  0.155200  0.075200  0.544200  1
  H  H58  1  0.844800  0.924800  0.455800  1
  H  H59  1  0.074500  0.993800  0.449500  1
  H  H60  1  0.925500  0.006200  0.550500  1
  H  H61  1  0.934500  0.015200  0.374300  1
  H  H62  1  0.065500  0.984800  0.625700  1
  H  H63  1  0.875200  0.118000  0.393900  1
  H  H64  1  0.124800  0.882000  0.606100  1
  H  H65  1  0.955900  0.199400  0.488700  1
  H  H66  1  0.044100  0.800600  0.511300  1
  H  H67  1  0.234800  0.129200  0.114500  1
  H  H68  1  0.765200  0.870800  0.885500  1
  H  H69  1  0.114100  0.135700  0.092600  1
  H  H70  1  0.885900  0.864300  0.907400  1
  H  H71  1  0.217400  0.229800  0.084000  1
  H  H72  1  0.782600  0.770200  0.916000  1
  H  H73  1  0.276800  0.245700  0.158700  1
  H  H74  1  0.723200  0.754300  0.841300  1
  H  H75  1  0.155500  0.252600  0.137600  1
  H  H76  1  0.844500  0.747400  0.862400  1
  H  H77  1  0.341400  0.104300  0.291800  1
  H  H78  1  0.658600  0.895700  0.708200  1
  H  H79  1  0.263800  0.217100  0.288800  1
  H  H80  1  0.736200  0.782900  0.711200  1
  H  H81  1  0.259000  0.146400  0.306300  1
  H  H82  1  0.741000  0.853600  0.693700  1
  H  H83  1  0.430700  0.182100  0.301500  1
  H  H84  1  0.569300  0.817900  0.698500  1
  H  H85  1  0.388500  0.188500  0.229200  1
  H  H86  1  0.611500  0.811500  0.770800  1
  H  H87  1  0.382100  0.116700  0.244600  1
  H  H88  1  0.617900  0.883300  0.755400  1
  H  H89  1  0.096900  0.020300  0.153300  1
  H  H90  1  0.903100  0.979700  0.846700  1
  H  H91  1  0.222700  0.032400  0.177800  1
  H  H92  1  0.777300  0.967600  0.822200  1
  H  H93  1  0.148200  0.980900  0.248900  1
  H  H94  1  0.851800  0.019100  0.751100  1
  H  H95  1  0.084600  0.041500  0.262800  1
  H  H96  1  0.915400  0.958500  0.737200  1
  H  H97  1  0.209800  0.053500  0.287200  1
  H  H98  1  0.790200  0.946500  0.712800  1
  H  H99  1  0.807900  0.994700  0.130000  1
  H  H100  1  0.192100  0.005300  0.870000  1
  H  H101  1  0.924700  0.005000  0.173400  1
  H  H102  1  0.075300  0.995000  0.826600  1
  H  H103  1  0.806400  0.990900  0.235800  1
  H  H104  1  0.193600  0.009100  0.764200  1
  H  H105  1  0.754000  0.053100  0.219200  1
  H  H106  1  0.246000  0.946900  0.780800  1
  H  H107  1  0.871600  0.064500  0.262900  1
  H  H108  1  0.128400  0.935500  0.737100  1
  H  H109  1  0.132100  0.317600  0.241400  1.0
  H  H110  1  0.867900  0.682400  0.758600  1.0
  H  H111  1  0.225600  0.400700  0.433900  1.0
  H  H112  1  0.774400  0.599300  0.566100  1.0
  H  H113  1  0.080900  0.209700  0.362800  1.0
  H  H114  1  0.919100  0.790300  0.637200  1.0
  H  H115  1  0.892200  0.287500  0.188200  1.0
  H  H116  1  0.107800  0.712500  0.811800  1.0
  H  H117  1  0.712000  0.330000  0.315300  1.0
  H  H118  1  0.288000  0.670000  0.684700  1.0
  H  H119  1  0.868400  0.172300  0.306400  1.0
  H  H120  1  0.131600  0.827700  0.693600  1.0
  H  H121  1  0.314600  0.517600  0.124300  1.0
  H  H122  1  0.685400  0.482400  0.875700  1.0
  H  H123  1  0.333900  0.425600  0.051900  1.0
  H  H124  1  0.666100  0.574400  0.948100  1.0
  H  H125  1  0.404500  0.335100  0.087600  1.0
  H  H126  1  0.595500  0.664900  0.912400  1.0
  H  H127  1  0.469300  0.348500  0.197400  1.0
  H  H128  1  0.530700  0.651500  0.802600  1.0
  H  H129  1  0.430600  0.437100  0.270400  1.0
  H  H130  1  0.569400  0.562900  0.729600  1.0
  H  H131  1  0.273000  0.659400  0.258000  1.0
  H  H132  1  0.727000  0.340600  0.742000  1.0
  H  H133  1  0.335000  0.760700  0.237700  1.0
  H  H134  1  0.665000  0.239300  0.762300  1.0
  H  H135  1  0.491000  0.775500  0.216700  1.0
  H  H136  1  0.509000  0.224500  0.783300  1.0
  H  H137  1  0.589100  0.689700  0.203000  1.0
  H  H138  1  0.410900  0.310300  0.797000  1.0
  H  H139  1  0.523900  0.585900  0.218100  1.0
  H  H140  1  0.476100  0.414100  0.781900  1.0
  H  H141  1  0.177500  0.835400  0.412800  1.0
  H  H142  1  0.822500  0.164600  0.587200  1.0
  H  H143  1  0.183500  0.857100  0.313500  1.0
  H  H144  1  0.816500  0.142900  0.686500  1.0
  H  H145  1  0.332100  0.920900  0.303700  1.0
  H  H146  1  0.667900  0.079100  0.696300  1.0
  H  H147  1  0.474700  0.962900  0.393400  1.0
  H  H148  1  0.525300  0.037100  0.606600  1.0
  H  H149  1  0.468800  0.941200  0.492700  1.0
  H  H150  1  0.531200  0.058800  0.507300  1.0
  H  H151  1  0.254500  0.988100  0.540700  1.0
  H  H152  1  0.745500  0.011900  0.459300  1.0
  H  H153  1  0.289600  0.074700  0.629800  1.0
  H  H154  1  0.710400  0.925300  0.370200  1.0
  H  H155  1  0.382900  0.067100  0.729000  1.0
  H  H156  1  0.617100  0.932900  0.271000  1.0
  H  H157  1  0.463500  0.970600  0.735100  1.0
  H  H158  1  0.536500  0.029400  0.264900  1.0
  H  H159  1  0.426000  0.881700  0.643900  1.0
  H  H160  1  0.574000  0.118300  0.356100  1.0
  H  H161  1  0.615300  0.347200  0.093100  1.0
  H  H162  1  0.384700  0.652800  0.906900  1.0
  H  H163  1  0.602100  0.253700  0.009000  1.0
  H  H164  1  0.397900  0.746300  0.991000  1.0
  H  H165  1  0.656700  0.265600  0.917400  1.0
  H  H166  1  0.343300  0.734400  0.082600  1.0
  H  H167  1  0.724500  0.370900  0.909700  1.0
  H  H168  1  0.275500  0.629100  0.090300  1.0
  H  H169  1  0.737800  0.464400  0.993800  1.0
  H  H170  1  0.262200  0.535600  0.006200  1.0
  H  H171  1  0.842500  0.580800  0.108400  1.0
  H  H172  1  0.157500  0.419200  0.891600  1.0
  H  H173  1  0.812700  0.686500  0.093900  1.0
  H  H174  1  0.187300  0.313500  0.906100  1.0
  H  H175  1  0.647000  0.708500  0.063400  1.0
  H  H176  1  0.353000  0.291500  0.936600  1.0
  H  H177  1  0.509000  0.629900  0.049100  1.0
  H  H178  1  0.491000  0.370100  0.950900  1.0
  H  H179  1  0.529400  0.525600  0.067100  1.0
  H  H180  1  0.470600  0.474400  0.932900  1.0
  H  H181  1  0.720000  0.770900  0.312400  1.0
  H  H182  1  0.280000  0.229100  0.687600  1.0
  H  H183  1  0.702400  0.801200  0.211900  1.0
  H  H184  1  0.297600  0.198800  0.788100  1.0
  H  H185  1  0.846000  0.864800  0.196000  1.0
  H  H186  1  0.154000  0.135200  0.804000  1.0
  H  H187  1  0.995700  0.904800  0.278900  1.0
  H  H188  1  0.004300  0.095200  0.721100  1.0
  H  H189  1  0.006100  0.879900  0.380000  1.0
  H  H190  1  0.993900  0.120100  0.620000  1.0
  H  H191  1  0.797800  0.907400  0.470700  1.0
  H  H192  1  0.202200  0.092600  0.529300  1.0
  H  H193  1  0.869600  0.988700  0.566900  1.0
  H  H194  1  0.130400  0.011300  0.433100  1.0
  H  H195  1  0.029200  0.980500  0.634400  1.0
  H  H196  1  0.970800  0.019500  0.365600  1.0
  H  H197  1  0.117000  0.891100  0.605700  1.0
  H  H198  1  0.883000  0.108900  0.394300  1.0
  H  H199  1  0.045200  0.809900  0.509500  1.0
  H  H200  1  0.954800  0.190100  0.490500  1.0
  H  H201  1  0.271400  0.131900  0.131500  1.0
  H  H202  1  0.728600  0.868100  0.868500  1.0
  H  H203  1  0.152200  0.107400  0.090200  1.0
  H  H204  1  0.847800  0.892600  0.909800  1.0
  H  H205  1  0.208800  0.214700  0.077800  1.0
  H  H206  1  0.791200  0.785300  0.922200  1.0
  H  H207  1  0.239600  0.244000  0.154200  1.0
  H  H208  1  0.760400  0.756000  0.845800  1.0
  H  H209  1  0.119100  0.220400  0.115900  1.0
  H  H210  1  0.880900  0.779600  0.884100  1.0
  H  H211  1  0.305600  0.218700  0.241600  1.0
  H  H212  1  0.694400  0.781300  0.758400  1.0
  H  H213  1  0.261800  0.202200  0.299500  1.0
  H  H214  1  0.738200  0.797800  0.700500  1.0
  H  H215  1  0.428200  0.168000  0.303800  1.0
  H  H216  1  0.571800  0.832000  0.696200  1.0
  H  H217  1  0.384300  0.120000  0.233200  1.0
  H  H218  1  0.615700  0.880000  0.766800  1.0
  H  H219  1  0.101600  0.021100  0.179800  1.0
  H  H220  1  0.898400  0.978900  0.820200  1.0
  H  H221  1  0.225200  0.036700  0.208400  1.0
  H  H222  1  0.774800  0.963300  0.791600  1.0
  H  H223  1  0.144400  0.990300  0.277100  1.0
  H  H224  1  0.855600  0.009700  0.722900  1.0
  H  H225  1  0.078300  0.050400  0.285900  1.0
  H  H226  1  0.921700  0.949600  0.714100  1.0
  H  H227  1  0.202900  0.064100  0.314000  1.0
  H  H228  1  0.797100  0.935900  0.686000  1.0
  H  H229  1  0.971600  0.077600  0.052600  1.0
  H  H230  1  0.028400  0.922400  0.947400  1.0
  H  H231  1  0.983500  0.021300  0.091900  1.0
  H  H232  1  0.016500  0.978700  0.908100  1.0
  H  H233  1  0.869900  0.974600  0.988300  1.0
  H  H234  1  0.130100  0.025400  0.011700  1.0
  H  H235  1  0.794100  0.028500  0.000800  1.0
  H  H236  1  0.205900  0.971500  0.999200  1.0
  H  H237  1  0.804200  0.972800  0.041000  1.0
  H  H238  1  0.195800  0.027200  0.959000  1.0
  H  H239  1  0.725800  0.098600  0.070700  1.0
  H  H240  1  0.274200  0.901400  0.929300  1.0
  H  H241  1  0.749700  0.158900  0.134100  1.0
  H  H242  1  0.250300  0.841100  0.865900  1.0
  H  H243  1  0.763700  0.202000  0.042700  1.0
  H  H244  1  0.236300  0.798000  0.957300  1.0
  H  H245  1  0.852600  0.157400  0.031300  1.0
  H  H246  1  0.147400  0.842600  0.968700  1.0
  H  H247  1  0.875200  0.217600  0.094100  1.0
  H  H248  1  0.124800  0.782400  0.905900  1.0
  H  H249  1  0.757000  0.095400  0.189900  1.0
  H  H250  1  0.243000  0.904600  0.810100  1.0
  H  H251  1  0.739900  0.029200  0.132800  1.0
  H  H252  1  0.260100  0.970800  0.867200  1.0
  H  H253  1  0.803100  0.003600  0.235100  1.0
  H  H254  1  0.196900  0.996400  0.764900  1.0
  H  H255  1  0.905000  0.058400  0.250300  1.0
  H  H256  1  0.095000  0.941600  0.749700  1.0
  H  H257  1  0.887600  0.992500  0.193600  1.0
  H  H258  1  0.112400  0.007500  0.806400  1.0
  Pt  Pt259  1  0.013150  0.177220  0.217510  1.0
  Pt  Pt260  1  0.986850  0.822780  0.782490  1.0
  C  C261  1  0.121700  0.846400  0.118500  1
  C  C262  1  0.878300  0.153600  0.881500  1
  C  C263  1  0.505000  0.195000  0.124100  1
  C  C264  1  0.495000  0.805000  0.875900  1
  C  C265  1  0.044000  0.667300  0.183600  1
  C  C266  1  0.956000  0.332700  0.816400  1
  C  C267  1  0.985400  0.695200  0.234100  1
  C  C268  1  0.014600  0.304800  0.765900  1
  C  C269  1  0.460000  0.055200  0.898100  1
  C  C270  1  0.540000  0.944800  0.101900  1
  C  C271  1  0.578300  0.075000  0.905200  1
  C  C272  1  0.421700  0.925000  0.094800  1
  C  C273  1  0.027000  0.545800  0.382000  1
  C  C274  1  0.973000  0.454200  0.618000  1
  C  C275  1  0.976000  0.585000  0.431800  1
  C  C276  1  0.024000  0.415000  0.568200  1
  C  C277  1  0.005000  0.334000  0.069500  1
  C  C278  1  0.995000  0.666000  0.930500  1
  C  C279  1  0.082000  0.361400  0.034700  1
  C  C280  1  0.918000  0.638600  0.965300  1
  C  C281  1  0.309000  0.885100  0.458800  1
  C  C282  1  0.691000  0.114900  0.541200  1
  C  C283  1  0.242600  0.845500  0.402000  1
  C  C284  1  0.757400  0.154500  0.598000  1
  C  C285  1  0.242800  0.861200  0.343700  1
  C  C286  1  0.757200  0.138800  0.656300  1
  C  C287  1  0.309000  0.916500  0.342200  1
  C  C288  1  0.691000  0.083500  0.657800  1
  C  C289  1  0.375800  0.956100  0.399000  1
  C  C290  1  0.624200  0.043900  0.601000  1
  C  C291  1  0.375500  0.940400  0.457300  1
  C  C292  1  0.624500  0.059600  0.542700  1
  C  C293  1  0.293800  0.579900  0.948200  1
  C  C294  1  0.706200  0.420100  0.051800  1
  C  C295  1  0.334500  0.644200  0.948500  1
  C  C296  1  0.665500  0.355800  0.051500  1
  C  C297  1  0.336800  0.697000  0.000000  1
  C  C298  1  0.663200  0.303000  0.000000  1
  C  C299  1  0.298500  0.685400  0.051200  1
  C  C300  1  0.701500  0.314600  0.948800  1
  C  C301  1  0.257800  0.621200  0.050900  1
  C  C302  1  0.742200  0.378800  0.949100  1
  C  C303  1  0.255400  0.568400  0.999400  1
  C  C304  1  0.744600  0.431600  0.000600  1
  C  C305  1  0.063200  0.144900  0.525400  1
  C  C306  1  0.936800  0.855100  0.474600  1
  C  C307  1  0.098400  0.083900  0.513700  1
  C  C308  1  0.901600  0.916100  0.486300  1
  C  C309  1  0.050500  0.035500  0.457400  1
  C  C310  1  0.949500  0.964500  0.542600  1
  C  C311  1  0.967300  0.048200  0.412800  1
  C  C312  1  0.032700  0.951800  0.587200  1
  C  C313  1  0.932100  0.109300  0.424400  1
  C  C314  1  0.067900  0.890700  0.575600  1
  C  C315  1  0.980000  0.157600  0.480700  1
  C  C316  1  0.020000  0.842400  0.519300  1
  C  C317  1  0.179000  0.153800  0.126900  1
  C  C318  1  0.821000  0.846200  0.873100  1
  C  C319  1  0.210000  0.227100  0.127000  1
  C  C320  1  0.790000  0.772900  0.873000  1
  C  C321  1  0.267700  0.169500  0.272400  1
  C  C322  1  0.732300  0.830500  0.727600  1
  C  C323  1  0.377000  0.164000  0.261000  1
  C  C324  1  0.623000  0.836000  0.739000  1
  C  C325  1  0.158000  0.044900  0.188700  1
  C  C326  1  0.842000  0.955100  0.811300  1
  C  C327  1  0.149000  0.029000  0.252700  1
  C  C328  1  0.851000  0.971000  0.747300  1
  C  C329  1  0.861000  0.026300  0.165600  1
  C  C330  1  0.139000  0.973700  0.834400  1
  C  C331  1  0.820000  0.034400  0.226400  1
  C  C332  1  0.180000  0.965600  0.773600  1
  C  C333  1  0.141500  0.313700  0.284600  1.0
  C  C334  1  0.858500  0.686300  0.715400  1.0
  C  C335  1  0.190900  0.369000  0.334300  1.0
  C  C336  1  0.809100  0.631000  0.665700  1.0
  C  C337  1  0.195200  0.363700  0.398400  1.0
  C  C338  1  0.804800  0.636300  0.601600  1.0
  C  C339  1  0.154500  0.303800  0.408500  1.0
  C  C340  1  0.845500  0.696200  0.591500  1.0
  C  C341  1  0.109700  0.250300  0.355800  1.0
  C  C342  1  0.890300  0.749700  0.644200  1.0
  C  C343  1  0.862100  0.276800  0.220800  1.0
  C  C344  1  0.137900  0.723200  0.779200  1.0
  C  C345  1  0.792100  0.317500  0.244900  1.0
  C  C346  1  0.207900  0.682500  0.755100  1.0
  C  C347  1  0.756000  0.303100  0.296400  1.0
  C  C348  1  0.244000  0.696900  0.703600  1.0
  C  C349  1  0.785500  0.249000  0.319300  1.0
  C  C350  1  0.214500  0.751000  0.680700  1.0
  C  C351  1  0.850200  0.209900  0.290900  1.0
  C  C352  1  0.149800  0.790100  0.709100  1.0
  C  C353  1  0.233300  0.429100  0.321700  1.0
  C  C354  1  0.766700  0.570900  0.678300  1.0
  C  C355  1  0.269900  0.478600  0.310400  1.0
  C  C356  1  0.730100  0.521400  0.689600  1.0
  C  C357  1  0.313900  0.541800  0.301800  1.0
  C  C358  1  0.686100  0.458200  0.698200  1.0
  C  C359  1  0.356200  0.547100  0.251500  1.0
  C  C360  1  0.643800  0.452900  0.748500  1.0
  C  C361  1  0.307200  0.598400  0.349300  1.0
  C  C362  1  0.692800  0.401600  0.650700  1.0
  C  C363  1  0.298200  0.645300  0.391100  1.0
  C  C364  1  0.701800  0.354700  0.608900  1.0
  C  C365  1  0.293000  0.699000  0.437700  1.0
  C  C366  1  0.707000  0.301000  0.562300  1.0
  C  C367  1  0.289600  0.748200  0.476700  1.0
  C  C368  1  0.710400  0.251800  0.523300  1.0
  C  C369  1  0.295400  0.805100  0.528300  1.0
  C  C370  1  0.704600  0.194900  0.471700  1.0
  C  C371  1  0.315200  0.870600  0.524400  1.0
  C  C372  1  0.684800  0.129400  0.475600  1.0
  C  C373  1  0.275000  0.788200  0.585500  1.0
  C  C374  1  0.725000  0.211800  0.414500  1.0
  C  C375  1  0.751000  0.231000  0.372600  1.0
  C  C376  1  0.249000  0.769000  0.627400  1.0
  C  C377  1  0.769300  0.372300  0.219000  1.0
  C  C378  1  0.230700  0.627700  0.781000  1.0
  C  C379  1  0.749800  0.416300  0.193300  1.0
  C  C380  1  0.250200  0.583700  0.806700  1.0
  C  C381  1  0.727500  0.475100  0.169600  1.0
  C  C382  1  0.272500  0.524900  0.830400  1.0
  C  C383  1  0.703600  0.476200  0.106000  1.0
  C  C384  1  0.296400  0.523800  0.894000  1.0
  C  C385  1  0.739100  0.533400  0.220300  1.0
  C  C386  1  0.260900  0.466600  0.779700  1.0
  C  C387  1  0.756600  0.580200  0.266500  1.0
  C  C388  1  0.243400  0.419800  0.733500  1.0
  C  C389  1  0.778600  0.634300  0.318200  1.0
  C  C390  1  0.221400  0.365700  0.681800  1.0
  C  C391  1  0.808000  0.683000  0.362200  1.0
  C  C392  1  0.192000  0.317000  0.637800  1.0
  C  C393  1  0.845800  0.737500  0.419200  1.0
  C  C394  1  0.154200  0.262500  0.580800  1.0
  C  C395  1  0.876300  0.800400  0.416000  1.0
  C  C396  1  0.123700  0.199600  0.584000  1.0
  C  C397  1  0.844100  0.719100  0.477700  1.0
  C  C398  1  0.155900  0.280900  0.522300  1.0
  C  C399  1  0.156800  0.294400  0.471000  1.0
  C  C400  1  0.843200  0.705600  0.529000  1.0
  C  C401  1  0.372200  0.486100  0.204500  1.0
  C  C402  1  0.627800  0.513900  0.795500  1.0
  C  C403  1  0.343200  0.482100  0.139300  1.0
  C  C404  1  0.656800  0.517900  0.860700  1.0
  C  C405  1  0.355200  0.427900  0.096700  1.0
  C  C406  1  0.644800  0.572100  0.903300  1.0
  C  C407  1  0.399100  0.374100  0.117500  1.0
  C  C408  1  0.600900  0.625900  0.882500  1.0
  C  C409  1  0.432600  0.381000  0.181800  1.0
  C  C410  1  0.567400  0.619000  0.818200  1.0
  C  C411  1  0.413900  0.435600  0.225700  1.0
  C  C412  1  0.586100  0.564400  0.774300  1.0
  C  C413  1  0.394900  0.613300  0.240400  1.0
  C  C414  1  0.605100  0.386700  0.759600  1.0
  C  C415  1  0.337600  0.664900  0.246400  1.0
  C  C416  1  0.662400  0.335100  0.753600  1.0
  C  C417  1  0.375300  0.725400  0.235300  1.0
  C  C418  1  0.624700  0.274600  0.764700  1.0
  C  C419  1  0.465100  0.733300  0.221700  1.0
  C  C420  1  0.534900  0.266700  0.778300  1.0
  C  C421  1  0.524300  0.683200  0.214200  1.0
  C  C422  1  0.475700  0.316800  0.785800  1.0
  C  C423  1  0.485400  0.621900  0.223700  1.0
  C  C424  1  0.514600  0.378100  0.776300  1.0
  C  C425  1  0.322600  0.886200  0.462100  1.0
  C  C426  1  0.677400  0.113800  0.537900  1.0
  C  C427  1  0.237800  0.861300  0.408800  1.0
  C  C428  1  0.762200  0.138700  0.591200  1.0
  C  C429  1  0.241400  0.874200  0.349800  1.0
  C  C430  1  0.758600  0.125800  0.650200  1.0
  C  C431  1  0.329700  0.912100  0.344100  1.0
  C  C432  1  0.670300  0.087900  0.655900  1.0
  C  C433  1  0.414400  0.937000  0.397300  1.0
  C  C434  1  0.585600  0.063000  0.602700  1.0
  C  C435  1  0.410800  0.924100  0.456300  1.0
  C  C436  1  0.589200  0.075900  0.543700  1.0
  C  C437  1  0.337500  0.925500  0.583000  1.0
  C  C438  1  0.662500  0.074500  0.417000  1.0
  C  C439  1  0.296800  0.983800  0.580200  1.0
  C  C440  1  0.703200  0.016200  0.419800  1.0
  C  C441  1  0.316900  0.034800  0.633600  1.0
  C  C442  1  0.683100  0.965200  0.366400  1.0
  C  C443  1  0.373800  0.031600  0.692000  1.0
  C  C444  1  0.626200  0.968400  0.308000  1.0
  C  C445  1  0.419100  0.973900  0.695800  1.0
  C  C446  1  0.580900  0.026100  0.304200  1.0
  C  C447  1  0.397800  0.921500  0.640900  1.0
  C  C448  1  0.602200  0.078500  0.359100  1.0
  C  C449  1  0.677800  0.414600  0.051300  1.0
  C  C450  1  0.322200  0.585400  0.948700  1.0
  C  C451  1  0.637500  0.352000  0.055900  1.0
  C  C452  1  0.362500  0.648000  0.944100  1.0
  C  C453  1  0.629600  0.296500  0.005900  1.0
  C  C454  1  0.370400  0.703500  0.994100  1.0
  C  C455  1  0.662100  0.303500  0.951500  1.0
  C  C456  1  0.337900  0.696500  0.048500  1.0
  C  C457  1  0.702400  0.366100  0.947000  1.0
  C  C458  1  0.297600  0.633900  0.053000  1.0
  C  C459  1  0.710200  0.421600  0.996900  1.0
  C  C460  1  0.289800  0.578400  0.003100  1.0
  C  C461  1  0.690000  0.542900  0.090900  1.0
  C  C462  1  0.310000  0.457100  0.909100  1.0
  C  C463  1  0.773000  0.590200  0.097400  1.0
  C  C464  1  0.227000  0.409800  0.902600  1.0
  C  C465  1  0.754800  0.652900  0.087800  1.0
  C  C466  1  0.245200  0.347100  0.912200  1.0
  C  C467  1  0.658100  0.665900  0.070200  1.0
  C  C468  1  0.341900  0.334100  0.929800  1.0
  C  C469  1  0.577700  0.619900  0.062300  1.0
  C  C470  1  0.422300  0.380100  0.937700  1.0
  C  C471  1  0.589100  0.557600  0.072500  1.0
  C  C472  1  0.410900  0.442400  0.927500  1.0
  C  C473  1  0.864000  0.819600  0.354000  1.0
  C  C474  1  0.136000  0.180400  0.646000  1.0
  C  C475  1  0.776500  0.798300  0.306000  1.0
  C  C476  1  0.223500  0.201700  0.694000  1.0
  C  C477  1  0.765500  0.815700  0.245100  1.0
  C  C478  1  0.234500  0.184300  0.754900  1.0
  C  C479  1  0.849900  0.854400  0.236400  1.0
  C  C480  1  0.150100  0.145600  0.763600  1.0
  C  C481  1  0.938700  0.877800  0.285300  1.0
  C  C482  1  0.061300  0.122200  0.714700  1.0
  C  C483  1  0.945700  0.861900  0.345400  1.0
  C  C484  1  0.054300  0.138100  0.654600  1.0
  C  C485  1  0.914800  0.851000  0.481100  1.0
  C  C486  1  0.085200  0.149000  0.518900  1.0
  C  C487  1  0.862600  0.904100  0.498100  1.0
  C  C488  1  0.137400  0.095900  0.501900  1.0
  C  C489  1  0.905300  0.952400  0.555200  1.0
  C  C490  1  0.094700  0.047600  0.444800  1.0
  C  C491  1  0.000100  0.947500  0.595300  1.0
  C  C492  1  0.999900  0.052500  0.404700  1.0
  C  C493  1  0.052200  0.894400  0.578300  1.0
  C  C494  1  0.947800  0.105600  0.421700  1.0
  C  C495  1  0.009600  0.846200  0.521200  1.0
  C  C496  1  0.990400  0.153800  0.478800  1.0
  C  C497  1  0.199000  0.140800  0.127700  1.0
  C  C498  1  0.801000  0.859200  0.872300  1.0
  C  C499  1  0.191000  0.211400  0.118000  1.0
  C  C500  1  0.809000  0.788600  0.882000  1.0
  C  C501  1  0.278900  0.182000  0.258800  1.0
  C  C502  1  0.721100  0.818000  0.741200  1.0
  C  C503  1  0.366000  0.140000  0.273000  1.0
  C  C504  1  0.634000  0.860000  0.727000  1.0
  C  C505  1  0.158000  0.051000  0.214500  1.0
  C  C506  1  0.842000  0.949000  0.785500  1.0
  C  C507  1  0.145000  0.038000  0.278700  1.0
  C  C508  1  0.855000  0.962000  0.721300  1.0
  C  C509  1  0.933800  0.048700  0.073300  1.0
  C  C510  1  0.066200  0.951300  0.926700  1.0
  C  C511  1  0.842100  0.001900  0.021100  1.0
  C  C512  1  0.157900  0.998100  0.978900  1.0
  C  C513  1  0.780300  0.134600  0.100600  1.0
  C  C514  1  0.219700  0.865400  0.899400  1.0
  C  C515  1  0.822000  0.182200  0.063900  1.0
  C  C516  1  0.178000  0.817800  0.936100  1.0
  C  C517  1  0.792800  0.061400  0.168100  1.0
  C  C518  1  0.207200  0.938600  0.831900  1.0
  C  C519  1  0.853000  0.025800  0.216100  1.0
  C  C520  1  0.147000  0.974200  0.783900  1.0
  S  S521  1  0.985200  0.848300  0.085300  1
  S  S522  1  0.014800  0.151700  0.914700  1
  S  S523  1  0.515700  0.109500  0.124000  1
  S  S524  1  0.484300  0.890500  0.876000  1
  N  N525  1  0.106300  0.254700  0.294800  1.0
  N  N526  1  0.893700  0.745300  0.705200  1.0
  N  N527  1  0.886500  0.223400  0.243500  1.0
  N  N528  1  0.113500  0.776600  0.756500  1.0
  Cl  Cl529  1  0.059600  0.582800  0.185300  1
  Cl  Cl530  1  0.940400  0.417200  0.814700  1
  Cl  Cl531  1  0.067200  0.703300  0.313500  1
  Cl  Cl532  1  0.932800  0.296700  0.686500  1
  Cl  Cl533  1  0.393900  0.125300  0.890200  1
  Cl  Cl534  1  0.606100  0.874700  0.109800  1
  Cl  Cl535  1  0.595700  0.105700  0.836800  1
  Cl  Cl536  1  0.404300  0.894300  0.163200  1
  Cl  Cl537  1  0.973100  0.458900  0.362400  1
  Cl  Cl538  1  0.026900  0.541100  0.637600  1
  Cl  Cl539  1  0.076800  0.628300  0.502700  1
  Cl  Cl540  1  0.923200  0.371700  0.497300  1
  Cl  Cl541  1  0.030300  0.385000  0.150200  1
  Cl  Cl542  1  0.969700  0.615000  0.849800  1
  Cl  Cl543  1  0.046800  0.438000  0.016900  1
  Cl  Cl544  1  0.953200  0.562000  0.983100  1
  O  O545  1  0.956800  0.909100  0.118400  1
  O  O546  1  0.043200  0.090900  0.881600  1
  O  O547  1  0.922800  0.791200  0.094000  1
  O  O548  1  0.077200  0.208800  0.906000  1
  O  O549  1  0.967700  0.845600  0.017300  1
  O  O550  1  0.032300  0.154400  0.982700  1
  O  O551  1  0.551100  0.079100  0.068300  1
  O  O552  1  0.448900  0.920900  0.931700  1
  O  O553  1  0.414100  0.074200  0.121200  1
  O  O554  1  0.585900  0.925800  0.878800  1
  O  O555  1  0.590600  0.107000  0.182400  1
  O  O556  1  0.409400  0.893000  0.817600  1
  F  F557  1  0.149600  0.789900  0.088300  1
  F  F558  1  0.850400  0.210100  0.911700  1
  F  F559  1  0.181100  0.899200  0.110800  1
  F  F560  1  0.818900  0.100800  0.889200  1
  F  F561  1  0.139500  0.848800  0.182000  1
  F  F562  1  0.860500  0.151200  0.818000  1
  F  F563  1  0.471900  0.223900  0.175700  1
  F  F564  1  0.528100  0.776100  0.824300  1
  F  F565  1  0.599100  0.228400  0.126700  1
  F  F566  1  0.400900  0.771600  0.873300  1
  F  F567  1  0.435300  0.198100  0.069900  1
  F  F568  1  0.564700  0.801900  0.930100  1
