# generated using pymatgen
data_P2H50PtC47S2N6(O3F)6
_symmetry_space_group_name_H-M   'P 1'
_cell_length_a   13.60560000
_cell_length_b   19.12460000
_cell_length_c   23.30730000
_cell_angle_alpha   90.00000000
_cell_angle_beta   90.00000000
_cell_angle_gamma   105.46080000
_symmetry_Int_Tables_number   1
_chemical_formula_structural   P2H50PtC47S2N6(O3F)6
_chemical_formula_sum   'P8 H200 Pt4 C188 S8 N24 O72 F24'
_cell_volume   5845.13887403
_cell_formula_units_Z   4
loop_
 _symmetry_equiv_pos_site_id
 _symmetry_equiv_pos_as_xyz
  1  'x, y, z'
loop_
 _atom_site_type_symbol
 _atom_site_label
 _atom_site_symmetry_multiplicity
 _atom_site_fract_x
 _atom_site_fract_y
 _atom_site_fract_z
 _atom_site_occupancy
  P  P1  1  0.911700  0.583300  0.733890  1.0
  P  P2  1  0.588300  0.916700  0.233890  1.0
  P  P3  1  0.088300  0.416700  0.266110  1.0
  P  P4  1  0.411700  0.083300  0.766110  1.0
  P  P5  1  0.716000  0.512010  0.816260  1.0
  P  P6  1  0.784000  0.987990  0.316260  1.0
  P  P7  1  0.284000  0.487990  0.183740  1.0
  P  P8  1  0.216000  0.012010  0.683740  1.0
  H  H9  1  0.601200  0.982400  0.614100  1
  H  H10  1  0.898800  0.517600  0.114100  1
  H  H11  1  0.398800  0.017600  0.385900  1
  H  H12  1  0.101200  0.482400  0.885900  1
  H  H13  1  0.502600  0.916900  0.601200  1
  H  H14  1  0.997400  0.583100  0.101200  1
  H  H15  1  0.497400  0.083100  0.398800  1
  H  H16  1  0.002600  0.416900  0.898800  1
  H  H17  1  0.508500  0.996600  0.577900  1
  H  H18  1  0.991500  0.503400  0.077900  1
  H  H19  1  0.491500  0.003400  0.422100  1
  H  H20  1  0.008500  0.496600  0.922100  1
  H  H21  1  0.350900  0.692000  0.671400  1
  H  H22  1  0.149100  0.808000  0.171400  1
  H  H23  1  0.649100  0.308000  0.328600  1
  H  H24  1  0.850900  0.192000  0.828600  1
  H  H25  1  0.419500  0.637000  0.682000  1
  H  H26  1  0.080500  0.863000  0.182000  1
  H  H27  1  0.580500  0.363000  0.318000  1
  H  H28  1  0.919500  0.137000  0.818000  1
  H  H29  1  0.304800  0.617800  0.705400  1
  H  H30  1  0.195200  0.882200  0.205400  1
  H  H31  1  0.695200  0.382200  0.294600  1
  H  H32  1  0.804800  0.117800  0.794600  1
  H  H33  1  0.048000  0.810600  0.963600  1
  H  H34  1  0.452000  0.689400  0.463600  1
  H  H35  1  0.952000  0.189400  0.036400  1
  H  H36  1  0.548000  0.310600  0.536400  1
  H  H37  1  0.011600  0.727700  0.943300  1
  H  H38  1  0.488400  0.772300  0.443300  1
  H  H39  1  0.988400  0.272300  0.056700  1
  H  H40  1  0.511600  0.227700  0.556700  1
  H  H41  1  0.019900  0.746900  0.010200  1
  H  H42  1  0.480100  0.753100  0.510200  1
  H  H43  1  0.980100  0.253100  0.989800  1
  H  H44  1  0.519900  0.246900  0.489800  1
  H  H45  1  0.370800  0.549400  0.013000  1
  H  H46  1  0.129200  0.950600  0.513000  1
  H  H47  1  0.629200  0.450600  0.987000  1
  H  H48  1  0.870800  0.049400  0.487000  1
  H  H49  1  0.385600  0.616400  0.969800  1
  H  H50  1  0.114400  0.883600  0.469800  1
  H  H51  1  0.614400  0.383600  0.030200  1
  H  H52  1  0.885600  0.116400  0.530200  1
  H  H53  1  0.411800  0.630600  0.036400  1
  H  H54  1  0.088200  0.869400  0.536400  1
  H  H55  1  0.588200  0.369400  0.963600  1
  H  H56  1  0.911800  0.130600  0.463600  1
  H  H57  1  0.821500  0.428500  0.628400  1.0
  H  H58  1  0.678500  0.071500  0.128400  1.0
  H  H59  1  0.178500  0.571500  0.371600  1.0
  H  H60  1  0.321500  0.928500  0.871600  1.0
  H  H61  1  0.865500  0.438700  0.532300  1.0
  H  H62  1  0.634500  0.061300  0.032300  1.0
  H  H63  1  0.134500  0.561300  0.467700  1.0
  H  H64  1  0.365500  0.938700  0.967700  1.0
  H  H65  1  0.777000  0.623000  0.524000  1.0
  H  H66  1  0.723000  0.877000  0.024000  1.0
  H  H67  1  0.223000  0.377000  0.476000  1.0
  H  H68  1  0.277000  0.123000  0.976000  1.0
  H  H69  1  0.724900  0.605400  0.618700  1.0
  H  H70  1  0.775100  0.894600  0.118700  1.0
  H  H71  1  0.275100  0.394600  0.381300  1.0
  H  H72  1  0.224900  0.105400  0.881300  1.0
  H  H73  1  0.902900  0.582300  0.357900  1.0
  H  H74  1  0.597100  0.917700  0.857900  1.0
  H  H75  1  0.097100  0.417700  0.642100  1.0
  H  H76  1  0.402900  0.082300  0.142100  1.0
  H  H77  1  0.992300  0.646500  0.384700  1.0
  H  H78  1  0.507700  0.853500  0.884700  1.0
  H  H79  1  0.007700  0.353500  0.615300  1.0
  H  H80  1  0.492300  0.146500  0.115300  1.0
  H  H81  1  0.869500  0.719200  0.385900  1.0
  H  H82  1  0.630500  0.780800  0.885900  1.0
  H  H83  1  0.130500  0.280800  0.614100  1.0
  H  H84  1  0.369500  0.219200  0.114100  1.0
  H  H85  1  0.907000  0.703100  0.322900  1.0
  H  H86  1  0.593000  0.796900  0.822900  1.0
  H  H87  1  0.093000  0.296900  0.677100  1.0
  H  H88  1  0.407000  0.203100  0.177100  1.0
  H  H89  1  0.522200  0.710000  0.331500  1.0
  H  H90  1  0.977800  0.790000  0.831500  1.0
  H  H91  1  0.477800  0.290000  0.668500  1.0
  H  H92  1  0.022200  0.210000  0.168500  1.0
  H  H93  1  0.640400  0.362700  0.691400  1.0
  H  H94  1  0.859600  0.137300  0.191400  1.0
  H  H95  1  0.359600  0.637300  0.308600  1.0
  H  H96  1  0.140400  0.862700  0.808600  1.0
  H  H97  1  0.534300  0.534300  0.705800  1.0
  H  H98  1  0.965700  0.965700  0.205800  1.0
  H  H99  1  0.465700  0.465700  0.294200  1.0
  H  H100  1  0.034300  0.034300  0.794200  1.0
  H  H101  1  0.631000  0.534500  0.315300  1.0
  H  H102  1  0.869000  0.965500  0.815300  1.0
  H  H103  1  0.369000  0.465500  0.684700  1.0
  H  H104  1  0.131000  0.034500  0.184700  1.0
  H  H105  1  0.004500  0.673600  0.793600  1.0
  H  H106  1  0.495500  0.826400  0.293600  1.0
  H  H107  1  0.995500  0.326400  0.206400  1.0
  H  H108  1  0.504500  0.173600  0.706400  1.0
  H  H109  1  0.893000  0.683700  0.783500  1.0
  H  H110  1  0.607000  0.816300  0.283500  1.0
  H  H111  1  0.107000  0.316300  0.216500  1.0
  H  H112  1  0.393000  0.183700  0.716500  1.0
  H  H113  1  0.928900  0.650000  0.880500  1.0
  H  H114  1  0.571100  0.850000  0.380500  1.0
  H  H115  1  0.071100  0.350000  0.119500  1.0
  H  H116  1  0.428900  0.150000  0.619500  1.0
  H  H117  1  0.925500  0.571400  0.855700  1.0
  H  H118  1  0.574500  0.928600  0.355700  1.0
  H  H119  1  0.074500  0.428600  0.144300  1.0
  H  H120  1  0.425500  0.071400  0.644300  1.0
  H  H121  1  0.753900  0.631600  0.849700  1.0
  H  H122  1  0.746100  0.868400  0.349700  1.0
  H  H123  1  0.246100  0.368400  0.150300  1.0
  H  H124  1  0.253900  0.131600  0.650300  1.0
  H  H125  1  0.767700  0.578700  0.900300  1.0
  H  H126  1  0.732300  0.921300  0.400300  1.0
  H  H127  1  0.232300  0.421300  0.099700  1.0
  H  H128  1  0.267700  0.078700  0.599700  1.0
  H  H129  1  0.888100  0.719300  0.688700  1.0
  H  H130  1  0.611900  0.780700  0.188700  1.0
  H  H131  1  0.111900  0.280700  0.311300  1.0
  H  H132  1  0.388100  0.219300  0.811300  1.0
  H  H133  1  0.940500  0.785200  0.604300  1.0
  H  H134  1  0.559500  0.714800  0.104300  1.0
  H  H135  1  0.059500  0.214800  0.395700  1.0
  H  H136  1  0.440500  0.285200  0.895700  1.0
  H  H137  1  0.047600  0.749900  0.540700  1.0
  H  H138  1  0.452400  0.750100  0.040700  1.0
  H  H139  1  0.952400  0.250100  0.459300  1.0
  H  H140  1  0.547600  0.249900  0.959300  1.0
  H  H141  1  0.094700  0.642000  0.555700  1.0
  H  H142  1  0.405300  0.858000  0.055700  1.0
  H  H143  1  0.905300  0.358000  0.444300  1.0
  H  H144  1  0.594700  0.142000  0.944300  1.0
  H  H145  1  0.041700  0.574100  0.638400  1.0
  H  H146  1  0.458300  0.925900  0.138400  1.0
  H  H147  1  0.958300  0.425900  0.361600  1.0
  H  H148  1  0.541700  0.074100  0.861600  1.0
  H  H149  1  0.126200  0.613900  0.758400  1.0
  H  H150  1  0.373800  0.886100  0.258400  1.0
  H  H151  1  0.873800  0.386100  0.241600  1.0
  H  H152  1  0.626200  0.113900  0.741600  1.0
  H  H153  1  0.237600  0.542300  0.777300  1.0
  H  H154  1  0.262400  0.957700  0.277300  1.0
  H  H155  1  0.762400  0.457700  0.222700  1.0
  H  H156  1  0.737600  0.042300  0.722700  1.0
  H  H157  1  0.180000  0.416300  0.776000  1.0
  H  H158  1  0.320000  0.083700  0.276000  1.0
  H  H159  1  0.820000  0.583700  0.224000  1.0
  H  H160  1  0.680000  0.916300  0.724000  1.0
  H  H161  1  0.010500  0.361000  0.754900  1.0
  H  H162  1  0.489500  0.139000  0.254900  1.0
  H  H163  1  0.989500  0.639000  0.245100  1.0
  H  H164  1  0.510500  0.861000  0.745100  1.0
  H  H165  1  0.898800  0.429700  0.736900  1.0
  H  H166  1  0.601200  0.070300  0.236900  1.0
  H  H167  1  0.101200  0.570300  0.263100  1.0
  H  H168  1  0.398800  0.929700  0.763100  1.0
  H  H169  1  0.734500  0.372300  0.779000  1.0
  H  H170  1  0.765500  0.127700  0.279000  1.0
  H  H171  1  0.265500  0.627700  0.221000  1.0
  H  H172  1  0.234500  0.872300  0.721000  1.0
  H  H173  1  0.768000  0.272200  0.822900  1.0
  H  H174  1  0.732000  0.227800  0.322900  1.0
  H  H175  1  0.232000  0.727800  0.177100  1.0
  H  H176  1  0.268000  0.772200  0.677100  1.0
  H  H177  1  0.789300  0.270800  0.920500  1.0
  H  H178  1  0.710700  0.229200  0.420500  1.0
  H  H179  1  0.210700  0.729200  0.079500  1.0
  H  H180  1  0.289300  0.770800  0.579500  1.0
  H  H181  1  0.780600  0.370800  0.975000  1.0
  H  H182  1  0.719400  0.129200  0.475000  1.0
  H  H183  1  0.219400  0.629200  0.025000  1.0
  H  H184  1  0.280600  0.870800  0.525000  1.0
  H  H185  1  0.754300  0.473500  0.931500  1.0
  H  H186  1  0.745700  0.026500  0.431500  1.0
  H  H187  1  0.245700  0.526500  0.068500  1.0
  H  H188  1  0.254300  0.973500  0.568500  1.0
  H  H189  1  0.538900  0.397700  0.842500  1.0
  H  H190  1  0.961100  0.102300  0.342500  1.0
  H  H191  1  0.461100  0.602300  0.157500  1.0
  H  H192  1  0.038900  0.897700  0.657500  1.0
  H  H193  1  0.366400  0.388200  0.859500  1.0
  H  H194  1  0.133600  0.111800  0.359500  1.0
  H  H195  1  0.633600  0.611800  0.140500  1.0
  H  H196  1  0.866400  0.888200  0.640500  1.0
  H  H197  1  0.308500  0.492900  0.860500  1.0
  H  H198  1  0.191500  0.007100  0.360500  1.0
  H  H199  1  0.691500  0.507100  0.139500  1.0
  H  H200  1  0.808500  0.992900  0.639500  1.0
  H  H201  1  0.417800  0.602800  0.836900  1.0
  H  H202  1  0.082200  0.897200  0.336900  1.0
  H  H203  1  0.582200  0.397200  0.163100  1.0
  H  H204  1  0.917800  0.102800  0.663100  1.0
  H  H205  1  0.592500  0.613500  0.817400  1.0
  H  H206  1  0.907500  0.886500  0.317400  1.0
  H  H207  1  0.407500  0.386500  0.182600  1.0
  H  H208  1  0.092500  0.113500  0.682600  1.0
  Pt  Pt209  1  0.749070  0.516186  0.721182  1.0
  Pt  Pt210  1  0.750930  0.983814  0.221182  1.0
  Pt  Pt211  1  0.250930  0.483814  0.278818  1.0
  Pt  Pt212  1  0.249070  0.016186  0.778818  1.0
  C  C213  1  0.275000  0.718700  0.896100  1
  C  C214  1  0.225000  0.781300  0.396100  1
  C  C215  1  0.725000  0.281300  0.103900  1
  C  C216  1  0.775000  0.218700  0.603900  1
  C  C217  1  0.645000  0.737300  0.630100  1
  C  C218  1  0.855000  0.762700  0.130100  1
  C  C219  1  0.355000  0.262700  0.369900  1
  C  C220  1  0.145000  0.237300  0.869900  1
  C  C221  1  0.548000  0.961700  0.585900  1
  C  C222  1  0.952000  0.538300  0.085900  1
  C  C223  1  0.452000  0.038300  0.414100  1
  C  C224  1  0.048000  0.461700  0.914100  1
  C  C225  1  0.350000  0.640800  0.674200  1
  C  C226  1  0.150000  0.859200  0.174200  1
  C  C227  1  0.650000  0.359200  0.325800  1
  C  C228  1  0.850000  0.140800  0.825800  1
  C  C229  1  0.003000  0.763000  0.972000  1
  C  C230  1  0.497000  0.737000  0.472000  1
  C  C231  1  0.997000  0.237000  0.028000  1
  C  C232  1  0.503000  0.263000  0.528000  1
  C  C233  1  0.413000  0.598000  0.004000  1
  C  C234  1  0.087000  0.902000  0.504000  1
  C  C235  1  0.587000  0.402000  0.996000  1
  C  C236  1  0.913000  0.098000  0.496000  1
  C  C237  1  0.812800  0.468700  0.606800  1.0
  C  C238  1  0.687200  0.031300  0.106800  1.0
  C  C239  1  0.187200  0.531300  0.393200  1.0
  C  C240  1  0.312800  0.968700  0.893200  1.0
  C  C241  1  0.840300  0.475000  0.550200  1.0
  C  C242  1  0.659700  0.025000  0.050200  1.0
  C  C243  1  0.159700  0.525000  0.449800  1.0
  C  C244  1  0.340300  0.975000  0.949800  1.0
  C  C245  1  0.831400  0.533700  0.519500  1.0
  C  C246  1  0.668600  0.966300  0.019500  1.0
  C  C247  1  0.168600  0.466300  0.480500  1.0
  C  C248  1  0.331400  0.033700  0.980500  1.0
  C  C249  1  0.787000  0.582900  0.545000  1.0
  C  C250  1  0.713000  0.917100  0.045000  1.0
  C  C251  1  0.213000  0.417100  0.455000  1.0
  C  C252  1  0.287000  0.082900  0.955000  1.0
  C  C253  1  0.757600  0.572800  0.601200  1.0
  C  C254  1  0.742400  0.927200  0.101200  1.0
  C  C255  1  0.242400  0.427200  0.398800  1.0
  C  C256  1  0.257600  0.072800  0.898800  1.0
  C  C257  1  0.874600  0.544700  0.460100  1.0
  C  C258  1  0.625400  0.955300  0.960100  1.0
  C  C259  1  0.125400  0.455300  0.539900  1.0
  C  C260  1  0.374600  0.044700  0.039900  1.0
  C  C261  1  0.917500  0.626200  0.382400  1.0
  C  C262  1  0.582500  0.873800  0.882400  1.0
  C  C263  1  0.082500  0.373800  0.617600  1.0
  C  C264  1  0.417500  0.126200  0.117600  1.0
  C  C265  1  0.869700  0.680600  0.357600  1.0
  C  C266  1  0.630300  0.819400  0.857600  1.0
  C  C267  1  0.130300  0.319400  0.642400  1.0
  C  C268  1  0.369700  0.180600  0.142400  1.0
  C  C269  1  0.697100  0.678100  0.340300  1.0
  C  C270  1  0.802900  0.821900  0.840300  1.0
  C  C271  1  0.302900  0.321900  0.659700  1.0
  C  C272  1  0.197100  0.178100  0.159700  1.0
  C  C273  1  0.593200  0.629000  0.324600  1.0
  C  C274  1  0.906800  0.871000  0.824600  1.0
  C  C275  1  0.406800  0.371000  0.675400  1.0
  C  C276  1  0.093200  0.129000  0.175400  1.0
  C  C277  1  0.512100  0.660000  0.323200  1.0
  C  C278  1  0.987900  0.840000  0.823200  1.0
  C  C279  1  0.487900  0.340000  0.676800  1.0
  C  C280  1  0.012100  0.160000  0.176800  1.0
  C  C281  1  0.584400  0.383600  0.690500  1.0
  C  C282  1  0.915600  0.116400  0.190500  1.0
  C  C283  1  0.415600  0.616400  0.309500  1.0
  C  C284  1  0.084400  0.883600  0.809500  1.0
  C  C285  1  0.522200  0.483800  0.699100  1.0
  C  C286  1  0.977800  0.016200  0.199100  1.0
  C  C287  1  0.477800  0.516200  0.300900  1.0
  C  C288  1  0.022200  0.983800  0.800900  1.0
  C  C289  1  0.576400  0.556800  0.313900  1.0
  C  C290  1  0.923600  0.943200  0.813900  1.0
  C  C291  1  0.423600  0.443200  0.686100  1.0
  C  C292  1  0.076400  0.056800  0.186100  1.0
  C  C293  1  0.931200  0.647500  0.791900  1.0
  C  C294  1  0.568800  0.852500  0.291900  1.0
  C  C295  1  0.068800  0.352500  0.208100  1.0
  C  C296  1  0.431200  0.147500  0.708100  1.0
  C  C297  1  0.898200  0.614100  0.850500  1.0
  C  C298  1  0.601800  0.885900  0.350500  1.0
  C  C299  1  0.101800  0.385900  0.149500  1.0
  C  C300  1  0.398200  0.114100  0.649500  1.0
  C  C301  1  0.782100  0.590400  0.859300  1.0
  C  C302  1  0.717900  0.909600  0.359300  1.0
  C  C303  1  0.217900  0.409600  0.140700  1.0
  C  C304  1  0.282100  0.090400  0.640700  1.0
  C  C305  1  0.960700  0.639600  0.672300  1.0
  C  C306  1  0.539300  0.860400  0.172300  1.0
  C  C307  1  0.039300  0.360400  0.327700  1.0
  C  C308  1  0.460700  0.139600  0.827700  1.0
  C  C309  1  0.930100  0.703400  0.661900  1.0
  C  C310  1  0.569900  0.796600  0.161900  1.0
  C  C311  1  0.069900  0.296600  0.338100  1.0
  C  C312  1  0.430100  0.203400  0.838100  1.0
  C  C313  1  0.962100  0.742800  0.611900  1.0
  C  C314  1  0.537900  0.757200  0.111900  1.0
  C  C315  1  0.037900  0.257200  0.388100  1.0
  C  C316  1  0.462100  0.242800  0.888100  1.0
  C  C317  1  0.024100  0.721300  0.573800  1.0
  C  C318  1  0.475900  0.778700  0.073800  1.0
  C  C319  1  0.975900  0.278700  0.426200  1.0
  C  C320  1  0.524100  0.221300  0.926200  1.0
  C  C321  1  0.053300  0.657600  0.583000  1.0
  C  C322  1  0.446700  0.842400  0.083000  1.0
  C  C323  1  0.946700  0.342400  0.417000  1.0
  C  C324  1  0.553300  0.157600  0.917000  1.0
  C  C325  1  0.021600  0.617400  0.632100  1.0
  C  C326  1  0.478400  0.882600  0.132100  1.0
  C  C327  1  0.978400  0.382600  0.367900  1.0
  C  C328  1  0.521600  0.117400  0.867900  1.0
  C  C329  1  0.000500  0.528800  0.747100  1.0
  C  C330  1  0.499500  0.971200  0.247100  1.0
  C  C331  1  0.999500  0.471200  0.252900  1.0
  C  C332  1  0.500500  0.028800  0.752900  1.0
  C  C333  1  0.102000  0.562500  0.758200  1.0
  C  C334  1  0.398000  0.937500  0.258200  1.0
  C  C335  1  0.898000  0.437500  0.241800  1.0
  C  C336  1  0.602000  0.062500  0.741800  1.0
  C  C337  1  0.168000  0.519700  0.769100  1.0
  C  C338  1  0.332000  0.980300  0.269100  1.0
  C  C339  1  0.832000  0.480300  0.230900  1.0
  C  C340  1  0.668000  0.019700  0.730900  1.0
  C  C341  1  0.134200  0.444900  0.768200  1.0
  C  C342  1  0.365800  0.055100  0.268200  1.0
  C  C343  1  0.865800  0.555100  0.231800  1.0
  C  C344  1  0.634200  0.944900  0.731800  1.0
  C  C345  1  0.034000  0.412400  0.756000  1.0
  C  C346  1  0.466000  0.087600  0.256000  1.0
  C  C347  1  0.966000  0.587600  0.244000  1.0
  C  C348  1  0.534000  0.912400  0.744000  1.0
  C  C349  1  0.968100  0.453100  0.745500  1.0
  C  C350  1  0.531900  0.046900  0.245500  1.0
  C  C351  1  0.031900  0.546900  0.254500  1.0
  C  C352  1  0.468100  0.953100  0.754500  1.0
  C  C353  1  0.740300  0.433100  0.850300  1.0
  C  C354  1  0.759700  0.066900  0.350300  1.0
  C  C355  1  0.259700  0.566900  0.149700  1.0
  C  C356  1  0.240300  0.933100  0.649700  1.0
  C  C357  1  0.744900  0.372700  0.819300  1.0
  C  C358  1  0.755100  0.127300  0.319300  1.0
  C  C359  1  0.255100  0.627300  0.180700  1.0
  C  C360  1  0.244900  0.872700  0.680700  1.0
  C  C361  1  0.764000  0.312900  0.845300  1.0
  C  C362  1  0.736000  0.187100  0.345300  1.0
  C  C363  1  0.236000  0.687100  0.154700  1.0
  C  C364  1  0.264000  0.812900  0.654700  1.0
  C  C365  1  0.776900  0.312200  0.902400  1.0
  C  C366  1  0.723100  0.187800  0.402400  1.0
  C  C367  1  0.223100  0.687800  0.097600  1.0
  C  C368  1  0.276900  0.812200  0.597600  1.0
  C  C369  1  0.772200  0.371700  0.934600  1.0
  C  C370  1  0.727800  0.128300  0.434600  1.0
  C  C371  1  0.227800  0.628300  0.065400  1.0
  C  C372  1  0.272200  0.871700  0.565400  1.0
  C  C373  1  0.755400  0.432300  0.909000  1.0
  C  C374  1  0.744600  0.067700  0.409000  1.0
  C  C375  1  0.244600  0.567700  0.091000  1.0
  C  C376  1  0.255400  0.932300  0.591000  1.0
  C  C377  1  0.582600  0.505700  0.829900  1.0
  C  C378  1  0.917400  0.994300  0.329900  1.0
  C  C379  1  0.417400  0.494300  0.170100  1.0
  C  C380  1  0.082600  0.005700  0.670100  1.0
  C  C381  1  0.515200  0.440100  0.841500  1.0
  C  C382  1  0.984800  0.059900  0.341500  1.0
  C  C383  1  0.484800  0.559900  0.158500  1.0
  C  C384  1  0.015200  0.940100  0.658500  1.0
  C  C385  1  0.412300  0.434300  0.852100  1.0
  C  C386  1  0.087700  0.065700  0.352100  1.0
  C  C387  1  0.587700  0.565700  0.147900  1.0
  C  C388  1  0.912300  0.934300  0.647900  1.0
  C  C389  1  0.377700  0.496100  0.851600  1.0
  C  C390  1  0.122300  0.003900  0.351600  1.0
  C  C391  1  0.622300  0.503900  0.148400  1.0
  C  C392  1  0.877700  0.996100  0.648400  1.0
  C  C393  1  0.442600  0.560900  0.838500  1.0
  C  C394  1  0.057400  0.939100  0.338500  1.0
  C  C395  1  0.557400  0.439100  0.161500  1.0
  C  C396  1  0.942600  0.060900  0.661500  1.0
  C  C397  1  0.547500  0.567700  0.826900  1.0
  C  C398  1  0.952500  0.932300  0.326900  1.0
  C  C399  1  0.452500  0.432300  0.173100  1.0
  C  C400  1  0.047500  0.067700  0.673100  1.0
  S  S401  1  0.266800  0.748570  0.828920  1
  S  S402  1  0.233200  0.751430  0.328920  1
  S  S403  1  0.733200  0.251430  0.171080  1
  S  S404  1  0.766800  0.248570  0.671080  1
  S  S405  1  0.659000  0.728070  0.700690  1
  S  S406  1  0.841000  0.771930  0.200690  1
  S  S407  1  0.341000  0.271930  0.299310  1
  S  S408  1  0.159000  0.228070  0.799310  1
  N  N409  1  0.592400  0.946500  0.536000  1
  N  N410  1  0.907600  0.553500  0.036000  1
  N  N411  1  0.407600  0.053500  0.464000  1
  N  N412  1  0.092400  0.446500  0.964000  1
  N  N413  1  0.315800  0.606000  0.622600  1
  N  N414  1  0.184200  0.894000  0.122600  1
  N  N415  1  0.684200  0.394000  0.377400  1
  N  N416  1  0.815800  0.106000  0.877400  1
  N  N417  1  0.904000  0.766100  0.972000  1
  N  N418  1  0.596000  0.733900  0.472000  1
  N  N419  1  0.096000  0.233900  0.028000  1
  N  N420  1  0.404000  0.266100  0.528000  1
  N  N421  1  0.509800  0.596000  0.993800  1
  N  N422  1  0.990200  0.904000  0.493800  1
  N  N423  1  0.490200  0.404000  0.006200  1
  N  N424  1  0.009800  0.096000  0.506200  1
  N  N425  1  0.774000  0.517700  0.632300  1.0
  N  N426  1  0.726000  0.982300  0.132300  1.0
  N  N427  1  0.226000  0.482300  0.367700  1.0
  N  N428  1  0.274000  0.017700  0.867700  1.0
  N  N429  1  0.600300  0.454100  0.702500  1.0
  N  N430  1  0.899700  0.045900  0.202500  1.0
  N  N431  1  0.399700  0.545900  0.297500  1.0
  N  N432  1  0.100300  0.954100  0.797500  1.0
  O  O433  1  0.327100  0.821400  0.828300  1
  O  O434  1  0.172900  0.678600  0.328300  1
  O  O435  1  0.672900  0.178600  0.171700  1
  O  O436  1  0.827100  0.321400  0.671700  1
  O  O437  1  0.306400  0.696600  0.802200  1
  O  O438  1  0.193600  0.803400  0.302200  1
  O  O439  1  0.693600  0.303400  0.197800  1
  O  O440  1  0.806400  0.196600  0.697800  1
  O  O441  1  0.163900  0.741400  0.815900  1
  O  O442  1  0.336100  0.758600  0.315900  1
  O  O443  1  0.836100  0.258600  0.184100  1
  O  O444  1  0.663900  0.241400  0.684100  1
  O  O445  1  0.741200  0.788000  0.717300  1
  O  O446  1  0.758800  0.712000  0.217300  1
  O  O447  1  0.258800  0.212000  0.282700  1
  O  O448  1  0.241200  0.288000  0.782700  1
  O  O449  1  0.673000  0.659900  0.706500  1
  O  O450  1  0.827000  0.840100  0.206500  1
  O  O451  1  0.327000  0.340100  0.293500  1
  O  O452  1  0.173000  0.159900  0.793500  1
  O  O453  1  0.565800  0.734500  0.730300  1
  O  O454  1  0.934200  0.765500  0.230300  1
  O  O455  1  0.434200  0.265500  0.269700  1
  O  O456  1  0.065800  0.234500  0.769700  1
  O  O457  1  0.693800  0.971000  0.532300  1
  O  O458  1  0.806200  0.529000  0.032300  1
  O  O459  1  0.306200  0.029000  0.467700  1
  O  O460  1  0.193800  0.471000  0.967700  1
  O  O461  1  0.541300  0.918100  0.490700  1
  O  O462  1  0.958700  0.581900  0.990700  1
  O  O463  1  0.458700  0.081900  0.509300  1
  O  O464  1  0.041300  0.418100  0.009300  1
  O  O465  1  0.314700  0.642200  0.573300  1
  O  O466  1  0.185300  0.857800  0.073300  1
  O  O467  1  0.685300  0.357800  0.426700  1
  O  O468  1  0.814700  0.142200  0.926700  1
  O  O469  1  0.307000  0.536100  0.611800  1
  O  O470  1  0.193000  0.963900  0.111800  1
  O  O471  1  0.693000  0.463900  0.388200  1
  O  O472  1  0.807000  0.036100  0.888200  1
  O  O473  1  0.889000  0.833400  0.967000  1
  O  O474  1  0.611000  0.666600  0.467000  1
  O  O475  1  0.111000  0.166600  0.033000  1
  O  O476  1  0.389000  0.333400  0.533000  1
  O  O477  1  0.818000  0.715000  0.982000  1
  O  O478  1  0.682000  0.785000  0.482000  1
  O  O479  1  0.182000  0.285000  0.018000  1
  O  O480  1  0.318000  0.215000  0.518000  1
  O  O481  1  0.542000  0.533400  0.992000  1
  O  O482  1  0.958000  0.966600  0.492000  1
  O  O483  1  0.458000  0.466600  0.008000  1
  O  O484  1  0.042000  0.033400  0.508000  1
  O  O485  1  0.589000  0.652800  0.979800  1
  O  O486  1  0.911000  0.847200  0.479800  1
  O  O487  1  0.411000  0.347200  0.020200  1
  O  O488  1  0.089000  0.152800  0.520200  1
  O  O489  1  0.911500  0.504100  0.436400  1.0
  O  O490  1  0.588500  0.995900  0.936400  1.0
  O  O491  1  0.088500  0.495900  0.563600  1.0
  O  O492  1  0.411500  0.004100  0.063600  1.0
  O  O493  1  0.875500  0.607900  0.438800  1.0
  O  O494  1  0.624500  0.892100  0.938800  1.0
  O  O495  1  0.124500  0.392100  0.561200  1.0
  O  O496  1  0.375500  0.107900  0.061200  1.0
  O  O497  1  0.766000  0.640600  0.343100  1.0
  O  O498  1  0.734000  0.859400  0.843100  1.0
  O  O499  1  0.234000  0.359400  0.656900  1.0
  O  O500  1  0.266000  0.140600  0.156900  1.0
  O  O501  1  0.712800  0.741300  0.349800  1.0
  O  O502  1  0.787200  0.758700  0.849800  1.0
  O  O503  1  0.287200  0.258700  0.650200  1.0
  O  O504  1  0.212800  0.241300  0.150200  1.0
  F  F505  1  0.217400  0.656900  0.908700  1
  F  F506  1  0.282600  0.843100  0.408700  1
  F  F507  1  0.782600  0.343100  0.091300  1
  F  F508  1  0.717400  0.156900  0.591300  1
  F  F509  1  0.360400  0.727000  0.915600  1
  F  F510  1  0.139600  0.773000  0.415600  1
  F  F511  1  0.639600  0.273000  0.084400  1
  F  F512  1  0.860400  0.227000  0.584400  1
  F  F513  1  0.242000  0.765600  0.933900  1
  F  F514  1  0.258000  0.734400  0.433900  1
  F  F515  1  0.758000  0.234400  0.066100  1
  F  F516  1  0.742000  0.265600  0.566100  1
  F  F517  1  0.564700  0.698000  0.609200  1
  F  F518  1  0.935300  0.802000  0.109200  1
  F  F519  1  0.435300  0.302000  0.390800  1
  F  F520  1  0.064700  0.198000  0.890800  1
  F  F521  1  0.722200  0.744900  0.599100  1
  F  F522  1  0.777800  0.755100  0.099100  1
  F  F523  1  0.277800  0.255100  0.400900  1
  F  F524  1  0.222200  0.244900  0.900900  1
  F  F525  1  0.634400  0.811100  0.620200  1
  F  F526  1  0.865600  0.688900  0.120200  1
  F  F527  1  0.365600  0.188900  0.379800  1
  F  F528  1  0.134400  0.311100  0.879800  1
