# generated using pymatgen
data_P2H42PtC27S3N2O14F9
_symmetry_space_group_name_H-M   'P 1'
_cell_length_a   8.80350000
_cell_length_b   9.10150000
_cell_length_c   23.33500000
_cell_angle_alpha   89.85870000
_cell_angle_beta   88.16240000
_cell_angle_gamma   80.53770000
_symmetry_Int_Tables_number   1
_chemical_formula_structural   P2H42PtC27S3N2O14F9
_chemical_formula_sum   'P4 H84 Pt2 C54 S6 N4 O28 F18'
_cell_volume   1843.32283832
_cell_formula_units_Z   2
loop_
 _symmetry_equiv_pos_site_id
 _symmetry_equiv_pos_as_xyz
  1  'x, y, z'
loop_
 _atom_site_type_symbol
 _atom_site_label
 _atom_site_symmetry_multiplicity
 _atom_site_fract_x
 _atom_site_fract_y
 _atom_site_fract_z
 _atom_site_occupancy
  P  P1  1  0.297870  0.042200  0.864010  1.0
  P  P2  1  0.702130  0.957800  0.135990  1.0
  P  P3  1  0.071110  0.779160  0.865750  1.0
  P  P4  1  0.928890  0.220840  0.134250  1.0
  H  H5  1  0.180000  0.649800  0.422000  1
  H  H6  1  0.820000  0.350200  0.578000  1
  H  H7  1  0.285800  0.777000  0.421600  1
  H  H8  1  0.714200  0.223000  0.578400  1
  H  H9  1  0.130500  0.799800  0.386500  1
  H  H10  1  0.869500  0.200200  0.613500  1
  H  H11  1  0.144200  0.782100  0.505900  1
  H  H12  1  0.855800  0.217900  0.494100  1
  H  H13  1  0.988400  0.805400  0.470600  1
  H  H14  1  0.011600  0.194600  0.529400  1
  H  H15  1  0.988800  0.995600  0.447700  1
  H  H16  1  0.011200  0.004400  0.552300  1
  H  H17  1  0.078400  0.150800  0.530700  1
  H  H18  1  0.921600  0.849200  0.469300  1
  H  H19  1  0.798600  0.194000  0.522700  1
  H  H20  1  0.201400  0.806000  0.477300  1
  H  H21  1  0.812700  0.051200  0.481700  1
  H  H22  1  0.187300  0.948800  0.518300  1
  H  H23  1  0.879300  0.195900  0.460300  1
  H  H24  1  0.120700  0.804100  0.539700  1
  H  H25  1  0.977200  0.301900  0.779300  1.0
  H  H26  1  0.022800  0.698100  0.220700  1.0
  H  H27  1  0.979200  0.458200  0.700900  1.0
  H  H28  1  0.020800  0.541800  0.299100  1.0
  H  H29  1  0.314500  0.155500  0.626500  1.0
  H  H30  1  0.685500  0.844500  0.373500  1.0
  H  H31  1  0.304800  0.005600  0.705900  1.0
  H  H32  1  0.695200  0.994400  0.294100  1.0
  H  H33  1  0.259400  0.536800  0.516800  1.0
  H  H34  1  0.740600  0.463200  0.483200  1.0
  H  H35  1  0.175000  0.418600  0.484300  1.0
  H  H36  1  0.825000  0.581400  0.515700  1.0
  H  H37  1  0.432700  0.415700  0.447200  1.0
  H  H38  1  0.567300  0.584300  0.552800  1.0
  H  H39  1  0.496300  0.368600  0.509000  1.0
  H  H40  1  0.503700  0.631400  0.491000  1.0
  H  H41  1  0.532000  0.156900  0.453600  1.0
  H  H42  1  0.468000  0.843100  0.546400  1.0
  H  H43  1  0.395800  0.140300  0.499500  1.0
  H  H44  1  0.604200  0.859700  0.500500  1.0
  H  H45  1  0.383600  0.914500  0.293300  1.0
  H  H46  1  0.616400  0.085500  0.706700  1.0
  H  H47  1  0.778700  0.088400  0.783000  1.0
  H  H48  1  0.221300  0.911600  0.217000  1.0
  H  H49  1  0.085400  0.771600  0.708300  1.0
  H  H50  1  0.914600  0.228400  0.291700  1.0
  H  H51  1  0.075700  0.241500  0.367400  1.0
  H  H52  1  0.924300  0.758500  0.632600  1.0
  H  H53  1  0.243300  0.299200  0.853800  1.0
  H  H54  1  0.756700  0.700800  0.146200  1.0
  H  H55  1  0.365000  0.228600  0.804900  1.0
  H  H56  1  0.635000  0.771400  0.195100  1.0
  H  H57  1  0.420500  0.248900  0.868600  1.0
  H  H58  1  0.579500  0.751100  0.131400  1.0
  H  H59  1  0.348300  0.094400  0.957700  1.0
  H  H60  1  0.651700  0.905600  0.042300  1.0
  H  H61  1  0.250700  0.960900  0.955800  1.0
  H  H62  1  0.749300  0.039100  0.044200  1.0
  H  H63  1  0.166900  0.129200  0.947800  1.0
  H  H64  1  0.833100  0.870800  0.052200  1.0
  H  H65  1  0.563900  0.973500  0.868400  1.0
  H  H66  1  0.436100  0.026500  0.131600  1.0
  H  H67  1  0.503200  0.905600  0.811900  1.0
  H  H68  1  0.496800  0.094400  0.188100  1.0
  H  H69  1  0.482100  0.829100  0.872800  1.0
  H  H70  1  0.517900  0.170900  0.127200  1.0
  H  H71  1  0.278900  0.722100  0.924600  1.0
  H  H72  1  0.721100  0.277900  0.075400  1.0
  H  H73  1  0.312200  0.633000  0.865300  1.0
  H  H74  1  0.687800  0.367000  0.134700  1.0
  H  H75  1  0.202400  0.577100  0.913800  1.0
  H  H76  1  0.797600  0.422900  0.086200  1.0
  H  H77  1  0.051800  0.608600  0.792900  1.0
  H  H78  1  0.948200  0.391400  0.207100  1.0
  H  H79  1  0.883800  0.690900  0.813000  1.0
  H  H80  1  0.116200  0.309100  0.187000  1.0
  H  H81  1  0.972900  0.559700  0.851100  1.0
  H  H82  1  0.027100  0.440300  0.148900  1.0
  H  H83  1  0.911200  0.744500  0.944100  1.0
  H  H84  1  0.088800  0.255500  0.055900  1.0
  H  H85  1  0.841100  0.891500  0.909900  1.0
  H  H86  1  0.158900  0.108500  0.090100  1.0
  H  H87  1  0.980900  0.894700  0.951800  1.0
  H  H88  1  0.019100  0.105300  0.048200  1.0
  Pt  Pt89  1  0.112990  0.973200  0.810198  1.0
  Pt  Pt90  1  0.887010  0.026800  0.189802  1.0
  C  C91  1  0.318400  0.568200  0.072200  1
  C  C92  1  0.681600  0.431800  0.927800  1
  C  C93  1  0.419600  0.494000  0.291600  1
  C  C94  1  0.580400  0.506000  0.708400  1
  C  C95  1  0.179600  0.757600  0.421300  1
  C  C96  1  0.820400  0.242400  0.578700  1
  C  C97  1  0.095900  0.824500  0.470500  1
  C  C98  1  0.904100  0.175500  0.529500  1
  C  C99  1  0.022100  0.070500  0.519200  1
  C  C100  1  0.977900  0.929500  0.480800  1
  C  C101  1  0.863500  0.133700  0.493600  1
  C  C102  1  0.136500  0.866300  0.506400  1
  C  C103  1  0.045700  0.271700  0.747600  1.0
  C  C104  1  0.954300  0.728300  0.252400  1.0
  C  C105  1  0.045700  0.364700  0.701200  1.0
  C  C106  1  0.954300  0.635300  0.298800  1.0
  C  C107  1  0.144100  0.320000  0.654700  1.0
  C  C108  1  0.855900  0.680000  0.345300  1.0
  C  C109  1  0.243200  0.186200  0.657300  1.0
  C  C110  1  0.756800  0.813800  0.342700  1.0
  C  C111  1  0.237500  0.098400  0.704600  1.0
  C  C112  1  0.762500  0.901600  0.295400  1.0
  C  C113  1  0.140400  0.414200  0.601000  1.0
  C  C114  1  0.859600  0.585800  0.399000  1.0
  C  C115  1  0.260600  0.429400  0.509600  1.0
  C  C116  1  0.739400  0.570600  0.490400  1.0
  C  C117  1  0.413700  0.358900  0.482200  1.0
  C  C118  1  0.586300  0.641100  0.517800  1.0
  C  C119  1  0.425200  0.198500  0.466300  1.0
  C  C120  1  0.574800  0.801500  0.533700  1.0
  C  C121  1  0.350600  0.071500  0.388000  1.0
  C  C122  1  0.649400  0.928500  0.612000  1.0
  C  C123  1  0.246000  0.075500  0.338300  1.0
  C  C124  1  0.754000  0.924500  0.661700  1.0
  C  C125  1  0.287600  0.979900  0.293400  1.0
  C  C126  1  0.712400  0.020100  0.706600  1.0
  C  C127  1  0.809100  0.022100  0.751800  1.0
  C  C128  1  0.190900  0.977900  0.248200  1.0
  C  C129  1  0.988400  0.835300  0.707900  1.0
  C  C130  1  0.011600  0.164700  0.292100  1.0
  C  C131  1  0.105700  0.171900  0.337300  1.0
  C  C132  1  0.894300  0.828100  0.662700  1.0
  C  C133  1  0.336000  0.225700  0.845800  1.0
  C  C134  1  0.664000  0.774300  0.154200  1.0
  C  C135  1  0.261900  0.058500  0.939900  1.0
  C  C136  1  0.738100  0.941500  0.060100  1.0
  C  C137  1  0.483000  0.924100  0.853000  1.0
  C  C138  1  0.517000  0.075900  0.147000  1.0
  C  C139  1  0.234700  0.664900  0.895700  1.0
  C  C140  1  0.765300  0.335100  0.104300  1.0
  C  C141  1  0.985000  0.644000  0.826100  1.0
  C  C142  1  0.015000  0.356000  0.173900  1.0
  C  C143  1  0.935600  0.833700  0.924600  1.0
  C  C144  1  0.064400  0.166300  0.075400  1.0
  S  S145  1  0.185160  0.737470  0.088280  1
  S  S146  1  0.814840  0.262530  0.911720  1
  S  S147  1  0.588900  0.361400  0.299110  1
  S  S148  1  0.411100  0.638600  0.700890  1
  S  S149  1  0.548600  0.331300  0.279200  1
  S  S150  1  0.451400  0.668700  0.720800  1
  N  N151  1  0.139400  0.139400  0.749800  1.0
  N  N152  1  0.860600  0.860600  0.250200  1.0
  N  N153  1  0.946600  0.931100  0.752200  1.0
  N  N154  1  0.053400  0.068900  0.247800  1.0
  O  O155  1  0.157600  0.804000  0.033700  1
  O  O156  1  0.842400  0.196000  0.966300  1
  O  O157  1  0.055000  0.686100  0.115000  1
  O  O158  1  0.945000  0.313900  0.885000  1
  O  O159  1  0.269100  0.816900  0.125800  1
  O  O160  1  0.730900  0.183100  0.874200  1
  O  O161  1  0.534700  0.219200  0.298100  1
  O  O162  1  0.465300  0.780800  0.701900  1
  O  O163  1  0.637900  0.400300  0.352200  1
  O  O164  1  0.362100  0.599700  0.647800  1
  O  O165  1  0.687200  0.387300  0.251400  1
  O  O166  1  0.312800  0.612700  0.748600  1
  O  O167  1  0.098200  0.985200  0.468000  1
  O  O168  1  0.901800  0.014800  0.532000  1
  O  O169  1  0.453000  0.261000  0.241000  1
  O  O170  1  0.547000  0.739000  0.759000  1
  O  O171  1  0.581000  0.257000  0.330800  1
  O  O172  1  0.419000  0.743000  0.669200  1
  O  O173  1  0.682000  0.379000  0.253000  1
  O  O174  1  0.318000  0.621000  0.747000  1
  O  O175  1  0.050000  0.526700  0.594300  1.0
  O  O176  1  0.950000  0.473300  0.405700  1.0
  O  O177  1  0.245200  0.351800  0.563000  1.0
  O  O178  1  0.754800  0.648200  0.437000  1.0
  O  O179  1  0.320000  0.192200  0.419780  1.0
  O  O180  1  0.680000  0.807800  0.580220  1.0
  O  O181  1  0.448500  0.964500  0.397500  1.0
  O  O182  1  0.551500  0.035500  0.602500  1.0
  F  F183  1  0.449100  0.595300  0.049000  1
  F  F184  1  0.550900  0.404700  0.951000  1
  F  F185  1  0.261200  0.482200  0.034900  1
  F  F186  1  0.738800  0.517800  0.965100  1
  F  F187  1  0.354300  0.487400  0.118000  1
  F  F188  1  0.645700  0.512600  0.882000  1
  F  F189  1  0.448200  0.628700  0.285300  1
  F  F190  1  0.551800  0.371300  0.714700  1
  F  F191  1  0.343900  0.467800  0.243100  1
  F  F192  1  0.656100  0.532200  0.756900  1
  F  F193  1  0.319200  0.490700  0.335700  1
  F  F194  1  0.680800  0.509300  0.664300  1
  F  F195  1  0.399000  0.589000  0.252400  1
  F  F196  1  0.601000  0.411000  0.747600  1
  F  F197  1  0.472000  0.571000  0.336300  1
  F  F198  1  0.528000  0.429000  0.663700  1
  F  F199  1  0.287000  0.455000  0.307800  1
  F  F200  1  0.713000  0.545000  0.692200  1
