# generated using pymatgen
data_P2H46PdC45S2N2(O2F)6
_symmetry_space_group_name_H-M   'P 1'
_cell_length_a   10.50430000
_cell_length_b   12.03940000
_cell_length_c   20.23340000
_cell_angle_alpha   91.94660000
_cell_angle_beta   104.84380000
_cell_angle_gamma   90.26280000
_symmetry_Int_Tables_number   1
_chemical_formula_structural   P2H46PdC45S2N2(O2F)6
_chemical_formula_sum   'P4 H92 Pd2 C90 S4 N4 O24 F12'
_cell_volume   2471.77158649
_cell_formula_units_Z   2
loop_
 _symmetry_equiv_pos_site_id
 _symmetry_equiv_pos_as_xyz
  1  'x, y, z'
loop_
 _atom_site_type_symbol
 _atom_site_label
 _atom_site_symmetry_multiplicity
 _atom_site_fract_x
 _atom_site_fract_y
 _atom_site_fract_z
 _atom_site_occupancy
  P  P1  1  0.023250  0.084570  0.323370  1.0
  P  P2  1  0.976750  0.915430  0.676630  1.0
  P  P3  1  0.963200  0.311580  0.246370  1.0
  P  P4  1  0.036800  0.688420  0.753630  1.0
  H  H5  1  0.686200  0.202400  0.438500  1
  H  H6  1  0.313800  0.797600  0.561500  1
  H  H7  1  0.609900  0.118400  0.513900  1
  H  H8  1  0.390100  0.881600  0.486100  1
  H  H9  1  0.571400  0.018100  0.458300  1
  H  H10  1  0.428600  0.981900  0.541700  1
  H  H11  1  0.500800  0.135500  0.443700  1
  H  H12  1  0.499200  0.864500  0.556300  1
  H  H13  1  0.976000  0.159000  0.926000  1
  H  H14  1  0.024000  0.841000  0.074000  1
  H  H15  1  0.867000  0.139000  0.970000  1
  H  H16  1  0.133000  0.861000  0.030000  1
  H  H17  1  0.343000  0.319500  0.244400  1.0
  H  H18  1  0.657000  0.680500  0.755600  1.0
  H  H19  1  0.465700  0.369900  0.169500  1.0
  H  H20  1  0.534300  0.630100  0.830500  1.0
  H  H21  1  0.180500  0.232100  0.013700  1.0
  H  H22  1  0.819500  0.767900  0.986300  1.0
  H  H23  1  0.066500  0.184500  0.092900  1.0
  H  H24  1  0.933500  0.815500  0.907100  1.0
  H  H25  1  0.495000  0.289200  0.921300  1.0
  H  H26  1  0.505000  0.710800  0.078700  1.0
  H  H27  1  0.464600  0.419100  0.929100  1.0
  H  H28  1  0.535400  0.580900  0.070900  1.0
  H  H29  1  0.254900  0.392000  0.852000  1.0
  H  H30  1  0.745100  0.608000  0.148000  1.0
  H  H31  1  0.283500  0.262200  0.844700  1.0
  H  H32  1  0.716500  0.737800  0.155300  1.0
  H  H33  1  0.317300  0.357200  0.750200  1.0
  H  H34  1  0.682700  0.642800  0.249800  1.0
  H  H35  1  0.427100  0.434900  0.800700  1.0
  H  H36  1  0.572900  0.565100  0.199300  1.0
  H  H37  1  0.438500  0.998200  0.680700  1.0
  H  H38  1  0.561500  0.001800  0.319300  1.0
  H  H39  1  0.397400  0.131400  0.317000  1.0
  H  H40  1  0.602600  0.868600  0.683000  1.0
  H  H41  1  0.141000  0.950600  0.177500  1.0
  H  H42  1  0.859000  0.049400  0.822500  1.0
  H  H43  1  0.700600  0.183200  0.825100  1.0
  H  H44  1  0.299400  0.816800  0.174900  1.0
  H  H45  1  0.809400  0.042700  0.260000  1.0
  H  H46  1  0.190600  0.957300  0.740000  1.0
  H  H47  1  0.817500  0.042400  0.339900  1.0
  H  H48  1  0.182500  0.957600  0.660100  1.0
  H  H49  1  0.686700  0.188800  0.297300  1.0
  H  H50  1  0.313300  0.811200  0.702700  1.0
  H  H51  1  0.822100  0.242000  0.342500  1.0
  H  H52  1  0.177900  0.758000  0.657500  1.0
  H  H53  1  0.737200  0.328300  0.234000  1.0
  H  H54  1  0.262800  0.671700  0.766000  1.0
  H  H55  1  0.766700  0.215500  0.196800  1.0
  H  H56  1  0.233300  0.784500  0.803200  1.0
  H  H57  1  0.268100  0.177700  0.401500  1.0
  H  H58  1  0.731900  0.822300  0.598500  1.0
  H  H59  1  0.358500  0.231200  0.515600  1.0
  H  H60  1  0.641500  0.768800  0.484400  1.0
  H  H61  1  0.231800  0.217600  0.594200  1.0
  H  H62  1  0.768200  0.782400  0.405800  1.0
  H  H63  1  0.012300  0.159200  0.558200  1.0
  H  H64  1  0.987700  0.840800  0.441800  1.0
  H  H65  1  0.921900  0.105100  0.444200  1.0
  H  H66  1  0.078100  0.894900  0.555800  1.0
  H  H67  1  0.911700  0.892000  0.241600  1.0
  H  H68  1  0.088300  0.108000  0.758400  1.0
  H  H69  1  0.970000  0.705600  0.235900  1.0
  H  H70  1  0.030000  0.294400  0.764100  1.0
  H  H71  1  0.156100  0.640400  0.312600  1.0
  H  H72  1  0.843900  0.359600  0.687400  1.0
  H  H73  1  0.286000  0.761200  0.394300  1.0
  H  H74  1  0.714000  0.238800  0.605700  1.0
  H  H75  1  0.227800  0.947600  0.401600  1.0
  H  H76  1  0.772200  0.052400  0.598400  1.0
  H  H77  1  0.201500  0.365300  0.349200  1.0
  H  H78  1  0.798500  0.634700  0.650800  1.0
  H  H79  1  0.258500  0.482600  0.447000  1.0
  H  H80  1  0.741500  0.517400  0.553000  1.0
  H  H81  1  0.099300  0.590700  0.477900  1.0
  H  H82  1  0.900700  0.409300  0.522100  1.0
  H  H83  1  0.883200  0.582200  0.412400  1.0
  H  H84  1  0.116800  0.417800  0.587600  1.0
  H  H85  1  0.822600  0.464200  0.315400  1.0
  H  H86  1  0.177400  0.535800  0.684600  1.0
  H  H87  1  0.795700  0.320600  0.107700  1.0
  H  H88  1  0.204300  0.679400  0.892300  1.0
  H  H89  1  0.786600  0.436200  0.016600  1.0
  H  H90  1  0.213400  0.563800  0.983400  1.0
  H  H91  1  0.936200  0.583800  0.028300  1.0
  H  H92  1  0.063800  0.416200  0.971700  1.0
  H  H93  1  0.096600  0.613600  0.129300  1.0
  H  H94  1  0.903400  0.386400  0.870700  1.0
  H  H95  1  0.110400  0.500100  0.221300  1.0
  H  H96  1  0.889600  0.499900  0.778700  1.0
  Pd  Pd97  1  0.109980  0.174080  0.247682  1.0
  Pd  Pd98  1  0.890020  0.825920  0.752318  1.0
  C  C99  1  0.510900  0.538400  0.377500  1
  C  C100  1  0.489100  0.461600  0.622500  1
  C  C101  1  0.672200  0.996900  0.087800  1
  C  C102  1  0.327800  0.003100  0.912200  1
  C  C103  1  0.583600  0.098800  0.464800  1
  C  C104  1  0.416400  0.901200  0.535200  1
  C  C105  1  0.310600  0.301100  0.197000  1.0
  C  C106  1  0.689400  0.698900  0.803000  1.0
  C  C107  1  0.384200  0.331300  0.152700  1.0
  C  C108  1  0.615800  0.668700  0.847300  1.0
  C  C109  1  0.337800  0.304500  0.083600  1.0
  C  C110  1  0.662200  0.695500  0.916400  1.0
  C  C111  1  0.216200  0.249900  0.060900  1.0
  C  C112  1  0.783800  0.750100  0.939100  1.0
  C  C113  1  0.148900  0.222400  0.108400  1.0
  C  C114  1  0.851100  0.777600  0.891600  1.0
  C  C115  1  0.419700  0.334600  0.035900  1.0
  C  C116  1  0.580300  0.665400  0.964100  1.0
  C  C117  1  0.424300  0.343800  0.920200  1.0
  C  C118  1  0.575700  0.656200  0.079800  1.0
  C  C119  1  0.324900  0.337200  0.852000  1.0
  C  C120  1  0.675100  0.662800  0.148000  1.0
  C  C121  1  0.386300  0.359700  0.794000  1.0
  C  C122  1  0.613700  0.640300  0.206000  1.0
  C  C123  1  0.442800  0.186000  0.751300  1.0
  C  C124  1  0.557200  0.814000  0.248700  1.0
  C  C125  1  0.552700  0.104500  0.753200  1.0
  C  C126  1  0.447300  0.895500  0.246800  1.0
  C  C127  1  0.524000  0.010100  0.710300  1.0
  C  C128  1  0.476000  0.989900  0.289700  1.0
  C  C129  1  0.377500  0.066000  0.288500  1.0
  C  C130  1  0.622500  0.934000  0.711500  1.0
  C  C131  1  0.227300  0.960300  0.206600  1.0
  C  C132  1  0.772700  0.039700  0.793400  1.0
  C  C133  1  0.678900  0.119400  0.795400  1.0
  C  C134  1  0.321100  0.880600  0.204600  1.0
  C  C135  1  0.844700  0.083800  0.304200  1.0
  C  C136  1  0.155300  0.916200  0.695800  1.0
  C  C137  1  0.781600  0.198200  0.300000  1.0
  C  C138  1  0.218400  0.801800  0.700000  1.0
  C  C139  1  0.795900  0.263300  0.238900  1.0
  C  C140  1  0.204100  0.736700  0.761100  1.0
  C  C141  1  0.086400  0.134000  0.411300  1.0
  C  C142  1  0.913600  0.866000  0.588700  1.0
  C  C143  1  0.216000  0.172900  0.433500  1.0
  C  C144  1  0.784000  0.827100  0.566500  1.0
  C  C145  1  0.270000  0.204700  0.501000  1.0
  C  C146  1  0.730000  0.795300  0.499000  1.0
  C  C147  1  0.194300  0.197700  0.547400  1.0
  C  C148  1  0.805700  0.802300  0.452600  1.0
  C  C149  1  0.064500  0.161900  0.526300  1.0
  C  C150  1  0.935500  0.838100  0.473700  1.0
  C  C151  1  0.011000  0.130000  0.458600  1.0
  C  C152  1  0.989000  0.870000  0.541400  1.0
  C  C153  1  0.064200  0.938200  0.322200  1.0
  C  C154  1  0.935800  0.061800  0.677800  1.0
  C  C155  1  0.988000  0.865800  0.273100  1.0
  C  C156  1  0.012000  0.134200  0.726900  1.0
  C  C157  1  0.022800  0.754900  0.269700  1.0
  C  C158  1  0.977200  0.245100  0.730300  1.0
  C  C159  1  0.132900  0.716300  0.314900  1.0
  C  C160  1  0.867100  0.283700  0.685100  1.0
  C  C161  1  0.209200  0.787700  0.363300  1.0
  C  C162  1  0.790800  0.212300  0.636700  1.0
  C  C163  1  0.174900  0.898800  0.367500  1.0
  C  C164  1  0.825100  0.101200  0.632500  1.0
  C  C165  1  0.007000  0.403400  0.321800  1.0
  C  C166  1  0.993000  0.596600  0.678200  1.0
  C  C167  1  0.135900  0.409300  0.361700  1.0
  C  C168  1  0.864100  0.590700  0.638300  1.0
  C  C169  1  0.170000  0.479100  0.419900  1.0
  C  C170  1  0.830000  0.520900  0.580100  1.0
  C  C171  1  0.075900  0.542800  0.438300  1.0
  C  C172  1  0.924100  0.457200  0.561700  1.0
  C  C173  1  0.947800  0.537600  0.399400  1.0
  C  C174  1  0.052200  0.462400  0.600600  1.0
  C  C175  1  0.911700  0.468100  0.341500  1.0
  C  C176  1  0.088300  0.531900  0.658500  1.0
  C  C177  1  0.951000  0.399000  0.174300  1.0
  C  C178  1  0.049000  0.601000  0.825700  1.0
  C  C179  1  0.856900  0.380600  0.112700  1.0
  C  C180  1  0.143100  0.619400  0.887300  1.0
  C  C181  1  0.851500  0.449100  0.058500  1.0
  C  C182  1  0.148500  0.550900  0.941500  1.0
  C  C183  1  0.940700  0.536200  0.065300  1.0
  C  C184  1  0.059300  0.463800  0.934700  1.0
  C  C185  1  0.035300  0.553900  0.125400  1.0
  C  C186  1  0.964700  0.446100  0.874600  1.0
  C  C187  1  0.043500  0.487200  0.180100  1.0
  C  C188  1  0.956500  0.512800  0.819900  1.0
  S  S189  1  0.554160  0.394540  0.365340  1
  S  S190  1  0.445840  0.605460  0.634660  1
  S  S191  1  0.837930  0.995150  0.088070  1
  S  S192  1  0.162070  0.004850  0.911930  1
  N  N193  1  0.194900  0.246900  0.175330  1.0
  N  N194  1  0.805100  0.753100  0.824670  1.0
  N  N195  1  0.254900  0.051000  0.248580  1.0
  N  N196  1  0.745100  0.949000  0.751420  1.0
  O  O197  1  0.666667  0.376300  0.421110  1
  O  O198  1  0.333333  0.623700  0.578890  1
  O  O199  1  0.579500  0.396500  0.298220  1
  O  O200  1  0.420500  0.603500  0.701780  1
  O  O201  1  0.438400  0.331700  0.368310  1
  O  O202  1  0.561600  0.668300  0.631690  1
  O  O203  1  0.834300  0.033000  0.013500  1
  O  O204  1  0.165700  0.967000  0.986500  1
  O  O205  1  0.877700  0.882900  0.097400  1
  O  O206  1  0.122300  0.117100  0.902600  1
  O  O207  1  0.902400  0.074900  0.138500  1
  O  O208  1  0.097600  0.925100  0.861500  1
  O  O209  1  0.679200  0.132800  0.435200  1
  O  O210  1  0.320800  0.867200  0.564800  1
  O  O211  1  0.893100  0.208200  0.938100  1
  O  O212  1  0.106900  0.791800  0.061900  1
  O  O213  1  0.531200  0.369300  0.055440  1.0
  O  O214  1  0.468800  0.630700  0.944560  1.0
  O  O215  1  0.353700  0.319100  0.971030  1.0
  O  O216  1  0.646300  0.680900  0.028970  1.0
  O  O217  1  0.486700  0.277000  0.790900  1.0
  O  O218  1  0.513300  0.723000  0.209100  1.0
  O  O219  1  0.332600  0.169200  0.718680  1.0
  O  O220  1  0.667400  0.830800  0.281320  1.0
  F  F221  1  0.606600  0.607100  0.371800  1
  F  F222  1  0.393400  0.392900  0.628200  1
  F  F223  1  0.489600  0.559400  0.438740  1
  F  F224  1  0.510400  0.440600  0.561260  1
  F  F225  1  0.402100  0.564500  0.331000  1
  F  F226  1  0.597900  0.435500  0.669000  1
  F  F227  1  0.600300  0.932100  0.034900  1
  F  F228  1  0.399700  0.067900  0.965100  1
  F  F229  1  0.659500  0.967700  0.147200  1
  F  F230  1  0.340500  0.032300  0.852800  1
  F  F231  1  0.623200  0.102300  0.073500  1
  F  F232  1  0.376800  0.897700  0.926500  1
