# generated using pymatgen
data_P2H46PdC49S3N2(OF)12
_symmetry_space_group_name_H-M   'P 1'
_cell_length_a   12.84180000
_cell_length_b   14.12690000
_cell_length_c   28.65580000
_cell_angle_alpha   90.00000000
_cell_angle_beta   90.00000000
_cell_angle_gamma   105.47190000
_symmetry_Int_Tables_number   1
_chemical_formula_structural   P2H46PdC49S3N2(OF)12
_chemical_formula_sum   'P8 H184 Pd4 C196 S12 N8 O48 F48'
_cell_volume   5010.19741885
_cell_formula_units_Z   4
loop_
 _symmetry_equiv_pos_site_id
 _symmetry_equiv_pos_as_xyz
  1  'x, y, z'
loop_
 _atom_site_type_symbol
 _atom_site_label
 _atom_site_symmetry_multiplicity
 _atom_site_fract_x
 _atom_site_fract_y
 _atom_site_fract_z
 _atom_site_occupancy
  P  P1  1  0.903250  0.601140  0.846750  1.0
  P  P2  1  0.596750  0.898860  0.346750  1.0
  P  P3  1  0.096750  0.398860  0.153250  1.0
  P  P4  1  0.403250  0.101140  0.653250  1.0
  P  P5  1  0.847530  0.812240  0.833530  1.0
  P  P6  1  0.652470  0.687760  0.333530  1.0
  P  P7  1  0.152470  0.187760  0.166470  1.0
  P  P8  1  0.347530  0.312240  0.666470  1.0
  H  H9  1  0.312200  0.900600  0.868200  1
  H  H10  1  0.187800  0.599400  0.368200  1
  H  H11  1  0.687800  0.099400  0.131800  1
  H  H12  1  0.812200  0.400600  0.631800  1
  H  H13  1  0.412900  0.876300  0.815700  1
  H  H14  1  0.087100  0.623700  0.315700  1
  H  H15  1  0.587100  0.123700  0.184300  1
  H  H16  1  0.912900  0.376300  0.684300  1
  H  H17  1  0.501600  0.971100  0.834400  1
  H  H18  1  0.998400  0.528900  0.334400  1
  H  H19  1  0.498400  0.028900  0.165600  1
  H  H20  1  0.001600  0.471100  0.665600  1
  H  H21  1  0.392300  0.982800  0.811200  1
  H  H22  1  0.107700  0.517200  0.311200  1
  H  H23  1  0.607700  0.017200  0.188800  1
  H  H24  1  0.892300  0.482800  0.688800  1
  H  H25  1  0.437200  0.124400  0.906600  1
  H  H26  1  0.062800  0.375600  0.406600  1
  H  H27  1  0.562800  0.875600  0.093400  1
  H  H28  1  0.937200  0.624400  0.593400  1
  H  H29  1  0.540600  0.071900  0.971100  1
  H  H30  1  0.959400  0.428100  0.471100  1
  H  H31  1  0.459400  0.928100  0.028900  1
  H  H32  1  0.040600  0.571900  0.528900  1
  H  H33  1  0.540300  0.180100  0.954800  1
  H  H34  1  0.959700  0.319900  0.454800  1
  H  H35  1  0.459700  0.819900  0.045200  1
  H  H36  1  0.040300  0.680100  0.545200  1
  H  H37  1  0.603000  0.117500  0.924500  1
  H  H38  1  0.897000  0.382500  0.424500  1
  H  H39  1  0.397000  0.882500  0.075500  1
  H  H40  1  0.103000  0.617500  0.575500  1
  H  H41  1  0.177400  0.700500  0.803500  1.0
  H  H42  1  0.322600  0.799500  0.303500  1.0
  H  H43  1  0.822600  0.299500  0.196500  1.0
  H  H44  1  0.677400  0.200500  0.696500  1.0
  H  H45  1  0.334500  0.656500  0.819600  1.0
  H  H46  1  0.165500  0.843500  0.319600  1.0
  H  H47  1  0.665500  0.343500  0.180400  1.0
  H  H48  1  0.834500  0.156500  0.680400  1.0
  H  H49  1  0.294500  0.707400  0.956000  1.0
  H  H50  1  0.205500  0.792600  0.456000  1.0
  H  H51  1  0.705500  0.292600  0.044000  1.0
  H  H52  1  0.794500  0.207400  0.544000  1.0
  H  H53  1  0.134900  0.745900  0.936700  1.0
  H  H54  1  0.365100  0.754100  0.436700  1.0
  H  H55  1  0.865100  0.254100  0.063300  1.0
  H  H56  1  0.634900  0.245900  0.563300  1.0
  H  H57  1  0.545900  0.548000  0.945800  1.0
  H  H58  1  0.954100  0.952000  0.445800  1.0
  H  H59  1  0.454100  0.452000  0.054200  1.0
  H  H60  1  0.045900  0.048000  0.554200  1.0
  H  H61  1  0.616300  0.658700  0.936300  1.0
  H  H62  1  0.883700  0.841300  0.436300  1.0
  H  H63  1  0.383700  0.341300  0.063700  1.0
  H  H64  1  0.116300  0.158700  0.563700  1.0
  H  H65  1  0.676400  0.616700  0.102700  1.0
  H  H66  1  0.823600  0.883300  0.602700  1.0
  H  H67  1  0.323600  0.383300  0.897300  1.0
  H  H68  1  0.176400  0.116700  0.397300  1.0
  H  H69  1  0.565900  0.645600  0.113700  1.0
  H  H70  1  0.934100  0.854400  0.613700  1.0
  H  H71  1  0.434100  0.354400  0.886300  1.0
  H  H72  1  0.065900  0.145600  0.386300  1.0
  H  H73  1  0.828000  0.915200  0.069500  1.0
  H  H74  1  0.672000  0.584800  0.569500  1.0
  H  H75  1  0.172000  0.084800  0.930500  1.0
  H  H76  1  0.328000  0.415200  0.430500  1.0
  H  H77  1  0.071300  0.923200  0.924900  1.0
  H  H78  1  0.428700  0.576800  0.424900  1.0
  H  H79  1  0.928700  0.076800  0.075100  1.0
  H  H80  1  0.571300  0.423200  0.575100  1.0
  H  H81  1  0.125000  0.923600  0.789100  1.0
  H  H82  1  0.375000  0.576400  0.289100  1.0
  H  H83  1  0.875000  0.076400  0.210900  1.0
  H  H84  1  0.625000  0.423600  0.710900  1.0
  H  H85  1  0.778300  0.913900  0.208600  1.0
  H  H86  1  0.721700  0.586100  0.708600  1.0
  H  H87  1  0.221700  0.086100  0.791400  1.0
  H  H88  1  0.278300  0.413900  0.291400  1.0
  H  H89  1  0.834000  0.588900  0.771700  1.0
  H  H90  1  0.666000  0.911100  0.271700  1.0
  H  H91  1  0.166000  0.411100  0.228300  1.0
  H  H92  1  0.334000  0.088900  0.728300  1.0
  H  H93  1  0.764200  0.501800  0.803400  1.0
  H  H94  1  0.735800  0.998200  0.303400  1.0
  H  H95  1  0.235800  0.498200  0.196600  1.0
  H  H96  1  0.264200  0.001800  0.696600  1.0
  H  H97  1  0.649700  0.595500  0.788200  1.0
  H  H98  1  0.850300  0.904500  0.288200  1.0
  H  H99  1  0.350300  0.404500  0.211800  1.0
  H  H100  1  0.149700  0.095500  0.711800  1.0
  H  H101  1  0.688000  0.623800  0.840700  1.0
  H  H102  1  0.812000  0.876200  0.340700  1.0
  H  H103  1  0.312000  0.376200  0.159300  1.0
  H  H104  1  0.188000  0.123800  0.659300  1.0
  H  H105  1  0.687400  0.762300  0.791500  1.0
  H  H106  1  0.812600  0.737700  0.291500  1.0
  H  H107  1  0.312600  0.237700  0.208500  1.0
  H  H108  1  0.187400  0.262300  0.708500  1.0
  H  H109  1  0.784300  0.739700  0.762600  1.0
  H  H110  1  0.715700  0.760300  0.262600  1.0
  H  H111  1  0.215700  0.260300  0.237400  1.0
  H  H112  1  0.284300  0.239700  0.737400  1.0
  H  H113  1  0.942400  0.655300  0.941800  1.0
  H  H114  1  0.557600  0.844700  0.441800  1.0
  H  H115  1  0.057600  0.344700  0.058200  1.0
  H  H116  1  0.442400  0.155300  0.558200  1.0
  H  H117  1  0.866500  0.594100  0.014200  1.0
  H  H118  1  0.633500  0.905900  0.514200  1.0
  H  H119  1  0.133500  0.405900  0.985800  1.0
  H  H120  1  0.366500  0.094100  0.485800  1.0
  H  H121  1  0.715800  0.459900  0.015000  1.0
  H  H122  1  0.784200  0.040100  0.515000  1.0
  H  H123  1  0.284200  0.540100  0.985000  1.0
  H  H124  1  0.215800  0.959900  0.485000  1.0
  H  H125  1  0.645200  0.382200  0.946700  1.0
  H  H126  1  0.854800  0.117800  0.446700  1.0
  H  H127  1  0.354800  0.617800  0.053300  1.0
  H  H128  1  0.145200  0.882200  0.553300  1.0
  H  H129  1  0.718600  0.441700  0.874400  1.0
  H  H130  1  0.781400  0.058300  0.374400  1.0
  H  H131  1  0.281400  0.558300  0.125600  1.0
  H  H132  1  0.218600  0.941700  0.625600  1.0
  H  H133  1  0.003000  0.559400  0.762900  1.0
  H  H134  1  0.497000  0.940600  0.262900  1.0
  H  H135  1  0.997000  0.440600  0.237100  1.0
  H  H136  1  0.503000  0.059400  0.737100  1.0
  H  H137  1  0.117500  0.463000  0.742500  1.0
  H  H138  1  0.382500  0.037000  0.242500  1.0
  H  H139  1  0.882500  0.537000  0.257500  1.0
  H  H140  1  0.617500  0.963000  0.757500  1.0
  H  H141  1  0.170700  0.366300  0.799000  1.0
  H  H142  1  0.329300  0.133700  0.299000  1.0
  H  H143  1  0.829300  0.633700  0.201000  1.0
  H  H144  1  0.670700  0.866300  0.701000  1.0
  H  H145  1  0.106000  0.364800  0.875200  1.0
  H  H146  1  0.394000  0.135200  0.375200  1.0
  H  H147  1  0.894000  0.635200  0.124800  1.0
  H  H148  1  0.606000  0.864800  0.624800  1.0
  H  H149  1  0.993900  0.463300  0.896200  1.0
  H  H150  1  0.506100  0.036700  0.396200  1.0
  H  H151  1  0.006100  0.536700  0.103800  1.0
  H  H152  1  0.493900  0.963300  0.603800  1.0
  H  H153  1  0.878900  0.800200  0.931800  1.0
  H  H154  1  0.621100  0.699800  0.431800  1.0
  H  H155  1  0.121100  0.199800  0.068200  1.0
  H  H156  1  0.378900  0.300200  0.568200  1.0
  H  H157  1  0.790300  0.831800  0.998600  1.0
  H  H158  1  0.709700  0.668200  0.498600  1.0
  H  H159  1  0.209700  0.168200  0.001400  1.0
  H  H160  1  0.290300  0.331800  0.501400  1.0
  H  H161  1  0.630800  0.875200  0.991800  1.0
  H  H162  1  0.869200  0.624800  0.491800  1.0
  H  H163  1  0.369200  0.124800  0.008200  1.0
  H  H164  1  0.130800  0.375200  0.508200  1.0
  H  H165  1  0.560200  0.891500  0.919200  1.0
  H  H166  1  0.939800  0.608500  0.419200  1.0
  H  H167  1  0.439800  0.108500  0.080800  1.0
  H  H168  1  0.060200  0.391500  0.580800  1.0
  H  H169  1  0.648300  0.863000  0.851300  1.0
  H  H170  1  0.851700  0.637000  0.351300  1.0
  H  H171  1  0.351700  0.137000  0.148700  1.0
  H  H172  1  0.148300  0.363000  0.648700  1.0
  H  H173  1  0.887200  0.010200  0.866200  1.0
  H  H174  1  0.612800  0.489800  0.366200  1.0
  H  H175  1  0.112800  0.989800  0.133800  1.0
  H  H176  1  0.387200  0.510200  0.633800  1.0
  H  H177  1  0.946700  0.166400  0.831900  1.0
  H  H178  1  0.553300  0.333600  0.331900  1.0
  H  H179  1  0.053300  0.833600  0.168100  1.0
  H  H180  1  0.446700  0.666400  0.668100  1.0
  H  H181  1  0.971800  0.180200  0.751100  1.0
  H  H182  1  0.528200  0.319800  0.251100  1.0
  H  H183  1  0.028200  0.819800  0.248900  1.0
  H  H184  1  0.471800  0.680200  0.748900  1.0
  H  H185  1  0.946700  0.038500  0.705200  1.0
  H  H186  1  0.553300  0.461500  0.205200  1.0
  H  H187  1  0.053300  0.961500  0.294800  1.0
  H  H188  1  0.446700  0.538500  0.794800  1.0
  H  H189  1  0.891600  0.884500  0.739400  1.0
  H  H190  1  0.608400  0.615500  0.239400  1.0
  H  H191  1  0.108400  0.115500  0.260600  1.0
  H  H192  1  0.391600  0.384500  0.760600  1.0
  Pd  Pd193  1  0.997410  0.761970  0.851321  1.0
  Pd  Pd194  1  0.502590  0.738030  0.351321  1.0
  Pd  Pd195  1  0.002590  0.238030  0.148679  1.0
  Pd  Pd196  1  0.497410  0.261970  0.648679  1.0
  C  C197  1  0.879600  0.250500  0.949500  1
  C  C198  1  0.620400  0.249500  0.449500  1
  C  C199  1  0.120400  0.749500  0.050500  1
  C  C200  1  0.379600  0.750500  0.550500  1
  C  C201  1  0.691500  0.245900  0.802800  1
  C  C202  1  0.808500  0.254100  0.302800  1
  C  C203  1  0.308500  0.754100  0.197200  1
  C  C204  1  0.191500  0.745900  0.697200  1
  C  C205  1  0.424000  0.940700  0.830700  1
  C  C206  1  0.076000  0.559300  0.330700  1
  C  C207  1  0.576000  0.059300  0.169300  1
  C  C208  1  0.924000  0.440700  0.669300  1
  C  C209  1  0.539000  0.114000  0.944100  1
  C  C210  1  0.961000  0.386000  0.444100  1
  C  C211  1  0.461000  0.886000  0.055900  1
  C  C212  1  0.039000  0.614000  0.555900  1
  C  C213  1  0.828700  0.169300  0.952400  1
  C  C214  1  0.671300  0.330700  0.452400  1
  C  C215  1  0.171300  0.830700  0.047600  1
  C  C216  1  0.328700  0.669300  0.547600  1
  C  C217  1  0.659400  0.223000  0.826300  1
  C  C218  1  0.840600  0.277000  0.326300  1
  C  C219  1  0.340600  0.777000  0.173700  1
  C  C220  1  0.159400  0.723000  0.673700  1
  C  C221  1  0.200800  0.700200  0.834900  1.0
  C  C222  1  0.299200  0.799800  0.334900  1.0
  C  C223  1  0.799200  0.299800  0.165100  1.0
  C  C224  1  0.700800  0.200200  0.665100  1.0
  C  C225  1  0.294600  0.674700  0.844300  1.0
  C  C226  1  0.205400  0.825300  0.344300  1.0
  C  C227  1  0.705400  0.325300  0.155700  1.0
  C  C228  1  0.794600  0.174700  0.655700  1.0
  C  C229  1  0.330900  0.675500  0.889860  1.0
  C  C230  1  0.169100  0.824500  0.389860  1.0
  C  C231  1  0.669100  0.324500  0.110140  1.0
  C  C232  1  0.830900  0.175500  0.610140  1.0
  C  C233  1  0.271100  0.703900  0.924450  1.0
  C  C234  1  0.228900  0.796100  0.424450  1.0
  C  C235  1  0.728900  0.296100  0.075550  1.0
  C  C236  1  0.771100  0.203900  0.575550  1.0
  C  C237  1  0.176300  0.727400  0.912670  1.0
  C  C238  1  0.323700  0.772600  0.412670  1.0
  C  C239  1  0.823700  0.272600  0.087330  1.0
  C  C240  1  0.676300  0.227400  0.587330  1.0
  C  C241  1  0.432200  0.646600  0.899000  1.0
  C  C242  1  0.067800  0.853400  0.399000  1.0
  C  C243  1  0.567800  0.353400  0.101000  1.0
  C  C244  1  0.932200  0.146600  0.601000  1.0
  C  C245  1  0.554900  0.617700  0.954300  1.0
  C  C246  1  0.945100  0.882300  0.454300  1.0
  C  C247  1  0.445100  0.382300  0.045700  1.0
  C  C248  1  0.054900  0.117700  0.545700  1.0
  C  C249  1  0.575100  0.631700  0.004000  1.0
  C  C250  1  0.924900  0.868300  0.504000  1.0
  C  C251  1  0.424900  0.368300  0.996000  1.0
  C  C252  1  0.075100  0.131700  0.496000  1.0
  C  C253  1  0.598100  0.642400  0.044700  1.0
  C  C254  1  0.901900  0.857600  0.544700  1.0
  C  C255  1  0.401900  0.357600  0.955300  1.0
  C  C256  1  0.098100  0.142400  0.455300  1.0
  C  C257  1  0.630300  0.659600  0.093200  1.0
  C  C258  1  0.869700  0.840400  0.593200  1.0
  C  C259  1  0.369700  0.340400  0.906800  1.0
  C  C260  1  0.130300  0.159600  0.406800  1.0
  C  C261  1  0.734700  0.791600  0.138000  1.0
  C  C262  1  0.765300  0.708400  0.638000  1.0
  C  C263  1  0.265300  0.208400  0.862000  1.0
  C  C264  1  0.234700  0.291600  0.362000  1.0
  C  C265  1  0.793500  0.896400  0.138920  1.0
  C  C266  1  0.706500  0.603600  0.638920  1.0
  C  C267  1  0.206500  0.103600  0.861080  1.0
  C  C268  1  0.293500  0.396400  0.361080  1.0
  C  C269  1  0.838200  0.947100  0.099000  1.0
  C  C270  1  0.661800  0.552900  0.599000  1.0
  C  C271  1  0.161800  0.052900  0.901000  1.0
  C  C272  1  0.338200  0.447100  0.401000  1.0
  C  C273  1  0.103000  0.957100  0.897640  1.0
  C  C274  1  0.397000  0.542900  0.397640  1.0
  C  C275  1  0.897000  0.042900  0.102360  1.0
  C  C276  1  0.603000  0.457100  0.602360  1.0
  C  C277  1  0.133800  0.957600  0.818060  1.0
  C  C278  1  0.366200  0.542400  0.318060  1.0
  C  C279  1  0.866200  0.042400  0.181940  1.0
  C  C280  1  0.633800  0.457600  0.681940  1.0
  C  C281  1  0.808300  0.946300  0.180740  1.0
  C  C282  1  0.691700  0.553700  0.680740  1.0
  C  C283  1  0.191700  0.053700  0.819260  1.0
  C  C284  1  0.308300  0.446300  0.319260  1.0
  C  C285  1  0.799400  0.573200  0.802600  1.0
  C  C286  1  0.700600  0.926800  0.302600  1.0
  C  C287  1  0.200600  0.426800  0.197400  1.0
  C  C288  1  0.299400  0.073200  0.697400  1.0
  C  C289  1  0.712500  0.628100  0.807800  1.0
  C  C290  1  0.787500  0.871900  0.307800  1.0
  C  C291  1  0.287500  0.371900  0.192200  1.0
  C  C292  1  0.212500  0.128100  0.692200  1.0
  C  C293  1  0.751000  0.735500  0.793900  1.0
  C  C294  1  0.749000  0.764500  0.293900  1.0
  C  C295  1  0.249000  0.264500  0.206100  1.0
  C  C296  1  0.251000  0.235500  0.706100  1.0
  C  C297  1  0.838900  0.555300  0.901500  1.0
  C  C298  1  0.661100  0.944700  0.401500  1.0
  C  C299  1  0.161100  0.444700  0.098500  1.0
  C  C300  1  0.338900  0.055300  0.598500  1.0
  C  C301  1  0.881600  0.599600  0.942700  1.0
  C  C302  1  0.618400  0.900400  0.442700  1.0
  C  C303  1  0.118400  0.400400  0.057300  1.0
  C  C304  1  0.381600  0.099600  0.557300  1.0
  C  C305  1  0.836500  0.563800  0.985900  1.0
  C  C306  1  0.663500  0.936200  0.485900  1.0
  C  C307  1  0.163500  0.436200  0.014100  1.0
  C  C308  1  0.336500  0.063800  0.514100  1.0
  C  C309  1  0.748300  0.484200  0.986100  1.0
  C  C310  1  0.751700  0.015800  0.486100  1.0
  C  C311  1  0.251700  0.515800  0.013900  1.0
  C  C312  1  0.248300  0.984200  0.513900  1.0
  C  C313  1  0.705500  0.438400  0.945400  1.0
  C  C314  1  0.794500  0.061600  0.445400  1.0
  C  C315  1  0.294500  0.561600  0.054600  1.0
  C  C316  1  0.205500  0.938400  0.554600  1.0
  C  C317  1  0.748900  0.472900  0.902500  1.0
  C  C318  1  0.751100  0.027100  0.402500  1.0
  C  C319  1  0.251100  0.527100  0.097500  1.0
  C  C320  1  0.248900  0.972900  0.597500  1.0
  C  C321  1  0.988700  0.522400  0.831700  1.0
  C  C322  1  0.511300  0.977600  0.331700  1.0
  C  C323  1  0.011300  0.477600  0.168300  1.0
  C  C324  1  0.488700  0.022400  0.668300  1.0
  C  C325  1  0.025000  0.520500  0.786000  1.0
  C  C326  1  0.475000  0.979500  0.286000  1.0
  C  C327  1  0.975000  0.479500  0.214000  1.0
  C  C328  1  0.525000  0.020500  0.714000  1.0
  C  C329  1  0.092600  0.463000  0.773700  1.0
  C  C330  1  0.407400  0.037000  0.273700  1.0
  C  C331  1  0.907400  0.537000  0.226300  1.0
  C  C332  1  0.592600  0.963000  0.726300  1.0
  C  C333  1  0.123700  0.405500  0.807000  1.0
  C  C334  1  0.376300  0.094500  0.307000  1.0
  C  C335  1  0.876300  0.594500  0.193000  1.0
  C  C336  1  0.623700  0.905500  0.693000  1.0
  C  C337  1  0.085800  0.405400  0.852400  1.0
  C  C338  1  0.414200  0.094600  0.352400  1.0
  C  C339  1  0.914200  0.594600  0.147600  1.0
  C  C340  1  0.585800  0.905400  0.647600  1.0
  C  C341  1  0.018800  0.463700  0.865000  1.0
  C  C342  1  0.481200  0.036300  0.365000  1.0
  C  C343  1  0.981200  0.536300  0.135000  1.0
  C  C344  1  0.518800  0.963700  0.635000  1.0
  C  C345  1  0.772100  0.827500  0.884900  1.0
  C  C346  1  0.727900  0.672500  0.384900  1.0
  C  C347  1  0.227900  0.172500  0.115100  1.0
  C  C348  1  0.272100  0.327500  0.615100  1.0
  C  C349  1  0.813500  0.819000  0.928900  1.0
  C  C350  1  0.686500  0.681000  0.428900  1.0
  C  C351  1  0.186500  0.181000  0.071100  1.0
  C  C352  1  0.313500  0.319000  0.571100  1.0
  C  C353  1  0.760900  0.837400  0.968600  1.0
  C  C354  1  0.739100  0.662600  0.468600  1.0
  C  C355  1  0.239100  0.162600  0.031400  1.0
  C  C356  1  0.260900  0.337400  0.531400  1.0
  C  C357  1  0.667600  0.863400  0.964500  1.0
  C  C358  1  0.832400  0.636600  0.464500  1.0
  C  C359  1  0.332400  0.136600  0.035500  1.0
  C  C360  1  0.167600  0.363400  0.535500  1.0
  C  C361  1  0.625800  0.872800  0.921600  1.0
  C  C362  1  0.874200  0.627200  0.421600  1.0
  C  C363  1  0.374200  0.127200  0.078400  1.0
  C  C364  1  0.125800  0.372800  0.578400  1.0
  C  C365  1  0.677600  0.855500  0.881100  1.0
  C  C366  1  0.822400  0.644500  0.381100  1.0
  C  C367  1  0.322400  0.144500  0.118900  1.0
  C  C368  1  0.177600  0.355500  0.618900  1.0
  C  C369  1  0.882800  0.932600  0.805980  1.0
  C  C370  1  0.617200  0.567400  0.305980  1.0
  C  C371  1  0.117200  0.067400  0.194020  1.0
  C  C372  1  0.382800  0.432600  0.694020  1.0
  C  C373  1  0.899400  0.016200  0.833500  1.0
  C  C374  1  0.600600  0.483800  0.333500  1.0
  C  C375  1  0.100600  0.983800  0.166500  1.0
  C  C376  1  0.399400  0.516200  0.666500  1.0
  C  C377  1  0.934200  0.109000  0.813100  1.0
  C  C378  1  0.565800  0.391000  0.313100  1.0
  C  C379  1  0.065800  0.891000  0.186900  1.0
  C  C380  1  0.434200  0.609000  0.686900  1.0
  C  C381  1  0.950200  0.117200  0.765200  1.0
  C  C382  1  0.549800  0.382800  0.265200  1.0
  C  C383  1  0.049800  0.882800  0.234800  1.0
  C  C384  1  0.450200  0.617200  0.734800  1.0
  C  C385  1  0.934500  0.032800  0.738000  1.0
  C  C386  1  0.565500  0.467200  0.238000  1.0
  C  C387  1  0.065500  0.967200  0.262000  1.0
  C  C388  1  0.434500  0.532800  0.762000  1.0
  C  C389  1  0.901600  0.941700  0.758100  1.0
  C  C390  1  0.598400  0.558300  0.258100  1.0
  C  C391  1  0.098400  0.058300  0.241900  1.0
  C  C392  1  0.401600  0.441700  0.741900  1.0
  S  S393  1  0.965600  0.170500  0.965110  1
  S  S394  1  0.534400  0.329500  0.465110  1
  S  S395  1  0.034400  0.829500  0.034890  1
  S  S396  1  0.465600  0.670500  0.534890  1
  S  S397  1  0.556940  0.266990  0.797870  1
  S  S398  1  0.943060  0.233010  0.297870  1
  S  S399  1  0.443060  0.733010  0.202130  1
  S  S400  1  0.056940  0.766990  0.702130  1
  S  S401  1  0.966400  0.233200  0.967100  1
  S  S402  1  0.533600  0.266800  0.467100  1
  S  S403  1  0.033600  0.766800  0.032900  1
  S  S404  1  0.466400  0.733200  0.532900  1
  N  N405  1  0.141400  0.724800  0.868890  1.0
  N  N406  1  0.358600  0.775200  0.368890  1.0
  N  N407  1  0.858600  0.275200  0.131110  1.0
  N  N408  1  0.641400  0.224800  0.631110  1.0
  N  N409  1  0.089100  0.909800  0.856580  1.0
  N  N410  1  0.410900  0.590200  0.356580  1.0
  N  N411  1  0.910900  0.090200  0.143420  1.0
  N  N412  1  0.589100  0.409800  0.643420  1.0
  O  O413  1  0.973700  0.192800  0.013580  1
  O  O414  1  0.526300  0.307200  0.513580  1
  O  O415  1  0.026300  0.807200  0.986420  1
  O  O416  1  0.473700  0.692800  0.486420  1
  O  O417  1  0.057800  0.227100  0.938200  1
  O  O418  1  0.442200  0.272900  0.438200  1
  O  O419  1  0.942200  0.772900  0.061800  1
  O  O420  1  0.557800  0.727100  0.561800  1
  O  O421  1  0.929700  0.071300  0.951900  1
  O  O422  1  0.570300  0.428700  0.451900  1
  O  O423  1  0.070300  0.928700  0.048100  1
  O  O424  1  0.429700  0.571300  0.548100  1
  O  O425  1  0.552200  0.258600  0.750100  1
  O  O426  1  0.947800  0.241400  0.250100  1
  O  O427  1  0.447800  0.741400  0.249900  1
  O  O428  1  0.052200  0.758600  0.749900  1
  O  O429  1  0.565500  0.361200  0.817800  1
  O  O430  1  0.934500  0.138800  0.317800  1
  O  O431  1  0.434500  0.638800  0.182200  1
  O  O432  1  0.065500  0.861200  0.682200  1
  O  O433  1  0.475600  0.191300  0.817400  1
  O  O434  1  0.024400  0.308700  0.317400  1
  O  O435  1  0.524400  0.808700  0.182600  1
  O  O436  1  0.975600  0.691300  0.682600  1
  O  O437  1  0.378100  0.929800  0.871200  1
  O  O438  1  0.121900  0.570200  0.371200  1
  O  O439  1  0.621900  0.070200  0.128800  1
  O  O440  1  0.878100  0.429800  0.628800  1
  O  O441  1  0.455000  0.079000  0.920600  1
  O  O442  1  0.045000  0.421000  0.420600  1
  O  O443  1  0.545000  0.921000  0.079400  1
  O  O444  1  0.955000  0.579000  0.579400  1
  O  O445  1  0.486400  0.624800  0.868870  1.0
  O  O446  1  0.013600  0.875200  0.368870  1.0
  O  O447  1  0.513600  0.375200  0.131130  1.0
  O  O448  1  0.986400  0.124800  0.631130  1.0
  O  O449  1  0.455800  0.646500  0.943870  1.0
  O  O450  1  0.044200  0.853500  0.443870  1.0
  O  O451  1  0.544200  0.353500  0.056130  1.0
  O  O452  1  0.955800  0.146500  0.556130  1.0
  O  O453  1  0.690100  0.762400  0.096670  1.0
  O  O454  1  0.809900  0.737600  0.596670  1.0
  O  O455  1  0.309900  0.237600  0.903330  1.0
  O  O456  1  0.190100  0.262400  0.403330  1.0
  O  O457  1  0.727200  0.737900  0.171200  1.0
  O  O458  1  0.772800  0.762100  0.671200  1.0
  O  O459  1  0.272800  0.262100  0.828800  1.0
  O  O460  1  0.227200  0.237900  0.328800  1.0
  F  F461  1  0.916600  0.340300  0.964400  1
  F  F462  1  0.583400  0.159700  0.464400  1
  F  F463  1  0.083400  0.659700  0.035600  1
  F  F464  1  0.416600  0.840300  0.535600  1
  F  F465  1  0.868200  0.255900  0.903900  1
  F  F466  1  0.631800  0.244100  0.403900  1
  F  F467  1  0.131800  0.744100  0.096100  1
  F  F468  1  0.368200  0.755900  0.596100  1
  F  F469  1  0.779800  0.211900  0.969400  1
  F  F470  1  0.720200  0.288100  0.469400  1
  F  F471  1  0.220200  0.788100  0.030600  1
  F  F472  1  0.279800  0.711900  0.530600  1
  F  F473  1  0.728800  0.257800  0.847400  1
  F  F474  1  0.771200  0.242200  0.347400  1
  F  F475  1  0.271200  0.742200  0.152600  1
  F  F476  1  0.228800  0.757800  0.652600  1
  F  F477  1  0.761600  0.305100  0.775800  1
  F  F478  1  0.738400  0.194900  0.275800  1
  F  F479  1  0.238400  0.694900  0.224200  1
  F  F480  1  0.261600  0.805100  0.724200  1
  F  F481  1  0.691700  0.153800  0.790200  1
  F  F482  1  0.808300  0.346200  0.290200  1
  F  F483  1  0.308300  0.846200  0.209800  1
  F  F484  1  0.191700  0.653800  0.709800  1
  F  F485  1  0.758500  0.118100  0.986000  1
  F  F486  1  0.741500  0.381900  0.486000  1
  F  F487  1  0.241500  0.881900  0.014000  1
  F  F488  1  0.258500  0.618100  0.514000  1
  F  F489  1  0.793300  0.133000  0.911200  1
  F  F490  1  0.706700  0.367000  0.411200  1
  F  F491  1  0.206700  0.867000  0.088800  1
  F  F492  1  0.293300  0.633000  0.588800  1
  F  F493  1  0.812100  0.259200  0.951700  1
  F  F494  1  0.687900  0.240800  0.451700  1
  F  F495  1  0.187900  0.740800  0.048300  1
  F  F496  1  0.312100  0.759200  0.548300  1
  F  F497  1  0.635300  0.213800  0.871100  1
  F  F498  1  0.864700  0.286200  0.371100  1
  F  F499  1  0.364700  0.786200  0.128900  1
  F  F500  1  0.135300  0.713800  0.628900  1
  F  F501  1  0.755300  0.289700  0.820000  1
  F  F502  1  0.744700  0.210300  0.320000  1
  F  F503  1  0.244700  0.710300  0.180000  1
  F  F504  1  0.255300  0.789700  0.680000  1
  F  F505  1  0.655600  0.136900  0.812500  1
  F  F506  1  0.844400  0.363100  0.312500  1
  F  F507  1  0.344400  0.863100  0.187500  1
  F  F508  1  0.155600  0.636900  0.687500  1
