# generated using pymatgen
data_P2H33PtC23S2N3(O2F)6
_symmetry_space_group_name_H-M   'P 1'
_cell_length_a   8.81510000
_cell_length_b   9.03470000
_cell_length_c   22.89040000
_cell_angle_alpha   90.88810000
_cell_angle_beta   91.57300000
_cell_angle_gamma   99.68420000
_symmetry_Int_Tables_number   1
_chemical_formula_structural   P2H33PtC23S2N3(O2F)6
_chemical_formula_sum   'P4 H66 Pt2 C46 S4 N6 O24 F12'
_cell_volume   1796.00228152
_cell_formula_units_Z   2
loop_
 _symmetry_equiv_pos_site_id
 _symmetry_equiv_pos_as_xyz
  1  'x, y, z'
loop_
 _atom_site_type_symbol
 _atom_site_label
 _atom_site_symmetry_multiplicity
 _atom_site_fract_x
 _atom_site_fract_y
 _atom_site_fract_z
 _atom_site_occupancy
  P  P1  1  0.702300  0.033000  0.361320  1.0
  P  P2  1  0.297700  0.967000  0.638680  1.0
  P  P3  1  0.933100  0.772040  0.363370  1.0
  P  P4  1  0.066900  0.227960  0.636630  1.0
  H  H5  1  0.110400  0.064400  0.936000  1
  H  H6  1  0.889600  0.935600  0.064000  1
  H  H7  1  0.292100  0.120500  0.943900  1
  H  H8  1  0.707900  0.879500  0.056100  1
  H  H9  1  0.178000  0.240300  0.938700  1
  H  H10  1  0.822000  0.759700  0.061300  1
  H  H11  1  0.226900  0.063800  0.277300  1.0
  H  H12  1  0.773100  0.936200  0.722700  1.0
  H  H13  1  0.394700  0.032600  0.203100  1.0
  H  H14  1  0.605300  0.967400  0.796900  1.0
  H  H15  1  0.059800  0.724000  0.126000  1.0
  H  H16  1  0.940200  0.276000  0.874000  1.0
  H  H17  1  0.899100  0.764100  0.201400  1.0
  H  H18  1  0.100900  0.235900  0.798600  1.0
  H  H19  1  0.459600  0.607100  0.060200  1.0
  H  H20  1  0.540400  0.392900  0.939800  1.0
  H  H21  1  0.461200  0.749300  0.018700  1.0
  H  H22  1  0.538800  0.250700  0.981300  1.0
  H  H23  1  0.342000  0.486900  0.981200  1.0
  H  H24  1  0.658000  0.513100  0.018800  1.0
  H  H25  1  0.193100  0.528800  0.012300  1.0
  H  H26  1  0.806900  0.471200  0.987700  1.0
  H  H27  1  0.324000  0.873800  0.882500  1.0
  H  H28  1  0.676000  0.126200  0.117500  1.0
  H  H29  1  0.689000  0.982700  0.199500  1.0
  H  H30  1  0.311000  0.017300  0.800500  1.0
  H  H31  1  0.020800  0.286300  0.271900  1.0
  H  H32  1  0.979200  0.713700  0.728100  1.0
  H  H33  1  0.981200  0.563100  0.809900  1.0
  H  H34  1  0.018800  0.436900  0.190100  1.0
  H  H35  1  0.592400  0.250000  0.369000  1.0
  H  H36  1  0.407600  0.750000  0.631000  1.0
  H  H37  1  0.617900  0.212300  0.301800  1.0
  H  H38  1  0.382100  0.787700  0.698200  1.0
  H  H39  1  0.760400  0.289300  0.342700  1.0
  H  H40  1  0.239600  0.710700  0.657300  1.0
  H  H41  1  0.656200  0.091700  0.457700  1.0
  H  H42  1  0.343800  0.908300  0.542300  1.0
  H  H43  1  0.836700  0.128800  0.446200  1.0
  H  H44  1  0.163300  0.871200  0.553800  1.0
  H  H45  1  0.755500  0.958900  0.455400  1.0
  H  H46  1  0.244500  0.041100  0.544600  1.0
  H  H47  1  0.523100  0.815100  0.370900  1.0
  H  H48  1  0.476900  0.184900  0.629100  1.0
  H  H49  1  0.492400  0.893800  0.310600  1.0
  H  H50  1  0.507600  0.106200  0.689400  1.0
  H  H51  1  0.438600  0.958600  0.370600  1.0
  H  H52  1  0.561400  0.041400  0.629400  1.0
  H  H53  1  0.040300  0.555700  0.349200  1.0
  H  H54  1  0.959700  0.444300  0.650800  1.0
  H  H55  1  0.120400  0.686200  0.308200  1.0
  H  H56  1  0.879600  0.313800  0.691800  1.0
  H  H57  1  0.953800  0.594100  0.290400  1.0
  H  H58  1  0.046200  0.405900  0.709600  1.0
  H  H59  1  0.802700  0.569100  0.412700  1.0
  H  H60  1  0.197300  0.430900  0.587300  1.0
  H  H61  1  0.692400  0.621400  0.363200  1.0
  H  H62  1  0.307600  0.378600  0.636800  1.0
  H  H63  1  0.724800  0.714500  0.423600  1.0
  H  H64  1  0.275200  0.285500  0.576400  1.0
  H  H65  1  0.027100  0.903700  0.448100  1.0
  H  H66  1  0.972900  0.096300  0.551900  1.0
  H  H67  1  0.166300  0.878200  0.407800  1.0
  H  H68  1  0.833700  0.121800  0.592200  1.0
  H  H69  1  0.082100  0.743700  0.446100  1.0
  H  H70  1  0.917900  0.256300  0.553900  1.0
  Pt  Pt71  1  0.886520  0.961990  0.305848  1.0
  Pt  Pt72  1  0.113480  0.038010  0.694152  1.0
  C  C73  1  0.413800  0.457400  0.208500  1
  C  C74  1  0.586200  0.542600  0.791500  1
  C  C75  1  0.320100  0.426300  0.427300  1
  C  C76  1  0.679900  0.573700  0.572700  1
  C  C77  1  0.190000  0.142000  0.953700  1
  C  C78  1  0.810000  0.858000  0.046300  1
  C  C79  1  0.193300  0.994100  0.246200  1.0
  C  C80  1  0.806700  0.005900  0.753800  1.0
  C  C81  1  0.293600  0.976000  0.202300  1.0
  C  C82  1  0.706400  0.024000  0.797700  1.0
  C  C83  1  0.244400  0.874600  0.157300  1.0
  C  C84  1  0.755600  0.125400  0.842700  1.0
  C  C85  1  0.095700  0.794100  0.156700  1.0
  C  C86  1  0.904300  0.205900  0.843300  1.0
  C  C87  1  0.001400  0.817900  0.201600  1.0
  C  C88  1  0.998600  0.182100  0.798400  1.0
  C  C89  1  0.354000  0.848800  0.110300  1.0
  C  C90  1  0.646000  0.151200  0.889700  1.0
  C  C91  1  0.393900  0.667500  0.038400  1.0
  C  C92  1  0.606100  0.332500  0.961600  1.0
  C  C93  1  0.291800  0.571100  0.994600  1.0
  C  C94  1  0.708200  0.428900  0.005400  1.0
  C  C95  1  0.151400  0.607900  0.908300  1.0
  C  C96  1  0.848600  0.392100  0.091700  1.0
  C  C97  1  0.151400  0.704500  0.855300  1.0
  C  C98  1  0.848600  0.295500  0.144700  1.0
  C  C99  1  0.251600  0.840000  0.851600  1.0
  C  C100  1  0.748400  0.160000  0.148400  1.0
  C  C101  1  0.756100  0.076400  0.197300  1.0
  C  C102  1  0.243900  0.923600  0.802700  1.0
  C  C103  1  0.951400  0.254100  0.239900  1.0
  C  C104  1  0.048600  0.745900  0.760100  1.0
  C  C105  1  0.049300  0.656300  0.808500  1.0
  C  C106  1  0.950700  0.343700  0.191500  1.0
  C  C107  1  0.663800  0.217400  0.341400  1.0
  C  C108  1  0.336200  0.782600  0.658600  1.0
  C  C109  1  0.742200  0.055700  0.439100  1.0
  C  C110  1  0.257800  0.944300  0.560900  1.0
  C  C111  1  0.518000  0.911200  0.352300  1.0
  C  C112  1  0.482000  0.088800  0.647700  1.0
  C  C113  1  0.022100  0.636400  0.323200  1.0
  C  C114  1  0.977900  0.363600  0.676800  1.0
  C  C115  1  0.769600  0.656000  0.394200  1.0
  C  C116  1  0.230400  0.344000  0.605800  1.0
  C  C117  1  0.067500  0.831100  0.423100  1.0
  C  C118  1  0.932500  0.168900  0.576900  1.0
  S  S119  1  0.587900  0.594300  0.205400  1
  S  S120  1  0.412100  0.405700  0.794600  1
  S  S121  1  0.185800  0.255300  0.408420  1
  S  S122  1  0.814200  0.744700  0.591580  1
  N  N123  1  0.176000  0.143000  0.017100  1
  N  N124  1  0.824000  0.857000  0.982900  1
  N  N125  1  0.051200  0.916600  0.246000  1.0
  N  N126  1  0.948800  0.083400  0.754000  1.0
  N  N127  1  0.854500  0.121100  0.242400  1.0
  N  N128  1  0.145500  0.878900  0.757600  1.0
  O  O129  1  0.533200  0.732900  0.215600  1
  O  O130  1  0.466800  0.267100  0.784400  1
  O  O131  1  0.640800  0.576800  0.148700  1
  O  O132  1  0.359200  0.423200  0.851300  1
  O  O133  1  0.684100  0.552200  0.250400  1
  O  O134  1  0.315900  0.447800  0.749600  1
  O  O135  1  0.060400  0.308900  0.380000  1
  O  O136  1  0.939600  0.691100  0.620000  1
  O  O137  1  0.271700  0.171600  0.371200  1
  O  O138  1  0.728300  0.828400  0.628800  1
  O  O139  1  0.151800  0.190800  0.463800  1
  O  O140  1  0.848200  0.809200  0.536200  1
  O  O141  1  0.247000  0.220000  0.059400  1
  O  O142  1  0.753000  0.780000  0.940600  1
  O  O143  1  0.050000  0.051000  0.026900  1
  O  O144  1  0.950000  0.949000  0.973100  1
  O  O145  1  0.477300  0.924200  0.103800  1.0
  O  O146  1  0.522700  0.075800  0.896200  1.0
  O  O147  1  0.293600  0.729100  0.077900  1.0
  O  O148  1  0.706400  0.270900  0.922100  1.0
  O  O149  1  0.264800  0.664600  0.945700  1.0
  O  O150  1  0.735200  0.335400  0.054300  1.0
  O  O151  1  0.059700  0.496600  0.915600  1.0
  O  O152  1  0.940300  0.503400  0.084400  1.0
  F  F153  1  0.316500  0.479300  0.165600  1
  F  F154  1  0.683500  0.520700  0.834400  1
  F  F155  1  0.445400  0.321400  0.202700  1
  F  F156  1  0.554600  0.678600  0.797300  1
  F  F157  1  0.343200  0.458400  0.255900  1
  F  F158  1  0.656800  0.541600  0.744100  1
  F  F159  1  0.361400  0.505500  0.379800  1
  F  F160  1  0.638600  0.494500  0.620200  1
  F  F161  1  0.261200  0.515100  0.463600  1
  F  F162  1  0.738800  0.484900  0.536400  1
  F  F163  1  0.448500  0.396600  0.451900  1
  F  F164  1  0.551500  0.603400  0.548100  1
