# generated using pymatgen
data_P2H51PtC54S2N2(O5F3)2
_symmetry_space_group_name_H-M   'P 1'
_cell_length_a   13.23880000
_cell_length_b   19.01500000
_cell_length_c   24.21680000
_cell_angle_alpha   90.00000000
_cell_angle_beta   90.00000000
_cell_angle_gamma   106.88910000
_symmetry_Int_Tables_number   1
_chemical_formula_structural   P2H51PtC54S2N2(O5F3)2
_chemical_formula_sum   'P8 H204 Pt4 C216 S8 N8 O40 F24'
_cell_volume   5833.29757869
_cell_formula_units_Z   4
loop_
 _symmetry_equiv_pos_site_id
 _symmetry_equiv_pos_as_xyz
  1  'x, y, z'
loop_
 _atom_site_type_symbol
 _atom_site_label
 _atom_site_symmetry_multiplicity
 _atom_site_fract_x
 _atom_site_fract_y
 _atom_site_fract_z
 _atom_site_occupancy
  P  P1  1  0.749600  0.003010  0.690370  1.0
  P  P2  1  0.750400  0.496990  0.190370  1.0
  P  P3  1  0.250400  0.996990  0.309630  1.0
  P  P4  1  0.249600  0.503010  0.809630  1.0
  P  P5  1  0.945000  0.082470  0.773300  1.0
  P  P6  1  0.555000  0.417530  0.273300  1.0
  P  P7  1  0.055000  0.917530  0.226700  1.0
  P  P8  1  0.445000  0.582470  0.726700  1.0
  H  H9  1  0.704500  0.371800  0.841000  1
  H  H10  1  0.795500  0.128200  0.341000  1
  H  H11  1  0.295500  0.628200  0.159000  1
  H  H12  1  0.204500  0.871800  0.659000  1
  H  H13  1  0.633500  0.292400  0.860500  1
  H  H14  1  0.866500  0.207600  0.360500  1
  H  H15  1  0.366500  0.707600  0.139500  1
  H  H16  1  0.133500  0.792400  0.639500  1
  H  H17  1  0.747000  0.328100  0.887800  1
  H  H18  1  0.753000  0.171900  0.387800  1
  H  H19  1  0.253000  0.671900  0.112200  1
  H  H20  1  0.247000  0.828100  0.612200  1
  H  H21  1  0.598400  0.294000  0.977500  1
  H  H22  1  0.901600  0.206000  0.477500  1
  H  H23  1  0.401600  0.706000  0.022500  1
  H  H24  1  0.098400  0.794000  0.522500  1
  H  H25  1  0.518800  0.347200  0.045700  1
  H  H26  1  0.981200  0.152800  0.545700  1
  H  H27  1  0.481200  0.652800  0.954300  1
  H  H28  1  0.018800  0.847200  0.454300  1
  H  H29  1  0.499400  0.464400  0.032100  1
  H  H30  1  0.000600  0.035600  0.532100  1
  H  H31  1  0.500600  0.535600  0.967900  1
  H  H32  1  0.999400  0.964400  0.467900  1
  H  H33  1  0.559500  0.528400  0.950300  1
  H  H34  1  0.940500  0.971600  0.450300  1
  H  H35  1  0.440500  0.471600  0.049700  1
  H  H36  1  0.059500  0.028400  0.549700  1
  H  H37  1  0.639100  0.475200  0.882100  1
  H  H38  1  0.860900  0.024800  0.382100  1
  H  H39  1  0.360900  0.524800  0.117900  1
  H  H40  1  0.139100  0.975200  0.617900  1
  H  H41  1  0.331600  0.107700  0.921500  1
  H  H42  1  0.168400  0.392300  0.421500  1
  H  H43  1  0.668400  0.892300  0.078500  1
  H  H44  1  0.831600  0.607700  0.578500  1
  H  H45  1  0.415000  0.171500  0.954800  1
  H  H46  1  0.085000  0.328500  0.454800  1
  H  H47  1  0.585000  0.828500  0.045200  1
  H  H48  1  0.915000  0.671500  0.545200  1
  H  H49  1  0.310700  0.122500  0.984900  1
  H  H50  1  0.189300  0.377500  0.484900  1
  H  H51  1  0.689300  0.877500  0.015100  1
  H  H52  1  0.810700  0.622500  0.515100  1
  H  H53  1  0.504400  0.098700  0.048000  1
  H  H54  1  0.995600  0.401300  0.548000  1
  H  H55  1  0.495600  0.901300  0.952000  1
  H  H56  1  0.004400  0.598700  0.452000  1
  H  H57  1  0.400400  0.977700  0.919600  1
  H  H58  1  0.099600  0.522300  0.419600  1
  H  H59  1  0.599600  0.022300  0.080400  1
  H  H60  1  0.900400  0.477700  0.580400  1
  H  H61  1  0.668200  0.860200  0.818900  1.0
  H  H62  1  0.831800  0.639800  0.318900  1.0
  H  H63  1  0.331800  0.139800  0.181100  1.0
  H  H64  1  0.168200  0.360200  0.681100  1.0
  H  H65  1  0.502300  0.782200  0.843700  1.0
  H  H66  1  0.997700  0.717800  0.343700  1.0
  H  H67  1  0.497700  0.217800  0.156300  1.0
  H  H68  1  0.002300  0.282200  0.656300  1.0
  H  H69  1  0.379800  0.950100  0.809700  1.0
  H  H70  1  0.120200  0.549900  0.309700  1.0
  H  H71  1  0.620200  0.049900  0.190300  1.0
  H  H72  1  0.879800  0.450100  0.690300  1.0
  H  H73  1  0.547600  0.022000  0.785900  1.0
  H  H74  1  0.952400  0.478000  0.285900  1.0
  H  H75  1  0.452400  0.978000  0.214100  1.0
  H  H76  1  0.047600  0.522000  0.714100  1.0
  H  H77  1  0.145600  0.765400  0.897100  1.0
  H  H78  1  0.354400  0.734600  0.397100  1.0
  H  H79  1  0.854400  0.234600  0.102900  1.0
  H  H80  1  0.645600  0.265400  0.602900  1.0
  H  H81  1  0.102800  0.774800  0.836100  1.0
  H  H82  1  0.397200  0.725200  0.336100  1.0
  H  H83  1  0.897200  0.225200  0.163900  1.0
  H  H84  1  0.602800  0.274800  0.663900  1.0
  H  H85  1  0.103300  0.898000  0.865400  1.0
  H  H86  1  0.396700  0.602000  0.365400  1.0
  H  H87  1  0.896700  0.102000  0.134600  1.0
  H  H88  1  0.603300  0.398000  0.634600  1.0
  H  H89  1  0.012200  0.831700  0.892100  1.0
  H  H90  1  0.487800  0.668300  0.392100  1.0
  H  H91  1  0.987800  0.168300  0.107900  1.0
  H  H92  1  0.512200  0.331700  0.607900  1.0
  H  H93  1  0.120300  0.049100  0.028900  1.0
  H  H94  1  0.379700  0.450900  0.528900  1.0
  H  H95  1  0.879700  0.950900  0.971100  1.0
  H  H96  1  0.620300  0.549100  0.471100  1.0
  H  H97  1  0.841900  0.933600  0.879400  1.0
  H  H98  1  0.658100  0.566400  0.379400  1.0
  H  H99  1  0.158100  0.066400  0.120600  1.0
  H  H100  1  0.341900  0.433600  0.620600  1.0
  H  H101  1  0.736600  0.106200  0.875100  1.0
  H  H102  1  0.763400  0.393800  0.375100  1.0
  H  H103  1  0.263400  0.893800  0.124900  1.0
  H  H104  1  0.236600  0.606200  0.624900  1.0
  H  H105  1  0.224900  0.868700  0.033500  1.0
  H  H106  1  0.275100  0.631300  0.533500  1.0
  H  H107  1  0.775100  0.131300  0.966500  1.0
  H  H108  1  0.724900  0.368700  0.466500  1.0
  H  H109  1  0.813500  0.066500  0.610600  1.0
  H  H110  1  0.686500  0.433500  0.110600  1.0
  H  H111  1  0.186500  0.933500  0.389400  1.0
  H  H112  1  0.313500  0.566500  0.889400  1.0
  H  H113  1  0.790800  0.120900  0.655800  1.0
  H  H114  1  0.709200  0.379100  0.155800  1.0
  H  H115  1  0.209200  0.879100  0.344200  1.0
  H  H116  1  0.290800  0.620900  0.844200  1.0
  H  H117  1  0.971900  0.068200  0.660800  1.0
  H  H118  1  0.528100  0.431800  0.160800  1.0
  H  H119  1  0.028100  0.931800  0.339200  1.0
  H  H120  1  0.471900  0.568200  0.839200  1.0
  H  H121  1  0.974500  0.144700  0.632600  1.0
  H  H122  1  0.525500  0.355300  0.132600  1.0
  H  H123  1  0.025500  0.855300  0.367400  1.0
  H  H124  1  0.474500  0.644700  0.867400  1.0
  H  H125  1  0.919800  0.179700  0.722000  1.0
  H  H126  1  0.580200  0.320300  0.222000  1.0
  H  H127  1  0.080200  0.820300  0.278000  1.0
  H  H128  1  0.419800  0.679700  0.778000  1.0
  H  H129  1  0.039700  0.178100  0.716700  1.0
  H  H130  1  0.460300  0.321900  0.216700  1.0
  H  H131  1  0.960300  0.821900  0.283300  1.0
  H  H132  1  0.539700  0.678100  0.783300  1.0
  H  H133  1  0.565600  0.883100  0.667100  1.0
  H  H134  1  0.934400  0.616900  0.167100  1.0
  H  H135  1  0.434400  0.116900  0.332900  1.0
  H  H136  1  0.065600  0.383100  0.832900  1.0
  H  H137  1  0.387400  0.869600  0.649900  1.0
  H  H138  1  0.112600  0.630400  0.149900  1.0
  H  H139  1  0.612600  0.130400  0.350100  1.0
  H  H140  1  0.887400  0.369600  0.850100  1.0
  H  H141  1  0.335600  0.978400  0.639300  1.0
  H  H142  1  0.164400  0.521600  0.139300  1.0
  H  H143  1  0.664400  0.021600  0.360700  1.0
  H  H144  1  0.835600  0.478400  0.860700  1.0
  H  H145  1  0.448300  0.090700  0.655700  1.0
  H  H146  1  0.051700  0.409300  0.155700  1.0
  H  H147  1  0.551700  0.909300  0.344300  1.0
  H  H148  1  0.948300  0.590700  0.844300  1.0
  H  H149  1  0.623600  0.104700  0.676000  1.0
  H  H150  1  0.876400  0.395300  0.176000  1.0
  H  H151  1  0.376400  0.895300  0.324000  1.0
  H  H152  1  0.123600  0.604700  0.824000  1.0
  H  H153  1  0.756900  0.864800  0.733600  1.0
  H  H154  1  0.743100  0.635200  0.233600  1.0
  H  H155  1  0.243100  0.135200  0.266400  1.0
  H  H156  1  0.256900  0.364800  0.766400  1.0
  H  H157  1  0.787300  0.759200  0.697800  1.0
  H  H158  1  0.712700  0.740800  0.197800  1.0
  H  H159  1  0.212700  0.240800  0.302200  1.0
  H  H160  1  0.287300  0.259200  0.802200  1.0
  H  H161  1  0.834900  0.755600  0.606500  1.0
  H  H162  1  0.665100  0.744400  0.106500  1.0
  H  H163  1  0.165100  0.244400  0.393500  1.0
  H  H164  1  0.334900  0.255600  0.893500  1.0
  H  H165  1  0.836300  0.852400  0.548200  1.0
  H  H166  1  0.663700  0.647600  0.048200  1.0
  H  H167  1  0.163700  0.147600  0.451800  1.0
  H  H168  1  0.336300  0.352400  0.951800  1.0
  H  H169  1  0.805500  0.957700  0.582200  1.0
  H  H170  1  0.694500  0.542300  0.082200  1.0
  H  H171  1  0.194500  0.042300  0.417800  1.0
  H  H172  1  0.305500  0.457700  0.917800  1.0
  H  H173  1  0.163900  0.116300  0.748900  1.0
  H  H174  1  0.336100  0.383700  0.248900  1.0
  H  H175  1  0.836100  0.883700  0.251100  1.0
  H  H176  1  0.663900  0.616300  0.751100  1.0
  H  H177  1  0.282400  0.045600  0.733000  1.0
  H  H178  1  0.217600  0.454400  0.233000  1.0
  H  H179  1  0.717600  0.954400  0.267000  1.0
  H  H180  1  0.782400  0.545600  0.767000  1.0
  H  H181  1  0.222600  0.920800  0.733200  1.0
  H  H182  1  0.277400  0.579200  0.233200  1.0
  H  H183  1  0.777400  0.079200  0.266800  1.0
  H  H184  1  0.722600  0.420800  0.766800  1.0
  H  H185  1  0.047400  0.860200  0.752700  1.0
  H  H186  1  0.452600  0.639800  0.252700  1.0
  H  H187  1  0.952600  0.139800  0.247300  1.0
  H  H188  1  0.547400  0.360200  0.747300  1.0
  H  H189  1  0.930100  0.928400  0.773000  1.0
  H  H190  1  0.569900  0.571600  0.273000  1.0
  H  H191  1  0.069900  0.071600  0.227000  1.0
  H  H192  1  0.430100  0.428400  0.727000  1.0
  H  H193  1  0.072200  0.073000  0.867300  1.0
  H  H194  1  0.427800  0.427000  0.367300  1.0
  H  H195  1  0.927800  0.927000  0.132700  1.0
  H  H196  1  0.572200  0.573000  0.632700  1.0
  H  H197  1  0.122100  0.140800  0.948700  1.0
  H  H198  1  0.377900  0.359200  0.448700  1.0
  H  H199  1  0.877900  0.859200  0.051300  1.0
  H  H200  1  0.622100  0.640800  0.551300  1.0
  H  H201  1  0.072800  0.247000  0.963300  1.0
  H  H202  1  0.427200  0.253000  0.463300  1.0
  H  H203  1  0.927200  0.753000  0.036700  1.0
  H  H204  1  0.572800  0.747000  0.536700  1.0
  H  H205  1  0.965900  0.282700  0.898300  1.0
  H  H206  1  0.534100  0.217300  0.398300  1.0
  H  H207  1  0.034100  0.717300  0.101700  1.0
  H  H208  1  0.465900  0.782700  0.601700  1.0
  H  H209  1  0.924200  0.218000  0.815300  1.0
  H  H210  1  0.575800  0.282000  0.315300  1.0
  H  H211  1  0.075800  0.782000  0.184700  1.0
  H  H212  1  0.424200  0.718000  0.684700  1.0
  Pt  Pt213  1  0.775310  0.012440  0.782945  1.0
  Pt  Pt214  1  0.724690  0.487560  0.282945  1.0
  Pt  Pt215  1  0.224690  0.987560  0.217055  1.0
  Pt  Pt216  1  0.275310  0.512440  0.717055  1.0
  C  C217  1  0.067000  0.699000  0.697400  1
  C  C218  1  0.433000  0.801000  0.197400  1
  C  C219  1  0.933000  0.301000  0.302600  1
  C  C220  1  0.567000  0.199000  0.802600  1
  C  C221  1  0.752000  0.756200  0.904600  1
  C  C222  1  0.748000  0.743800  0.404600  1
  C  C223  1  0.248000  0.243800  0.095400  1
  C  C224  1  0.252000  0.256200  0.595400  1
  C  C225  1  0.684000  0.338000  0.872600  1
  C  C226  1  0.816000  0.162000  0.372600  1
  C  C227  1  0.316000  0.662000  0.127400  1
  C  C228  1  0.184000  0.838000  0.627400  1
  C  C229  1  0.626200  0.379600  0.923400  1
  C  C230  1  0.873800  0.120400  0.423400  1
  C  C231  1  0.373800  0.620400  0.076600  1
  C  C232  1  0.126200  0.879600  0.576600  1
  C  C233  1  0.590000  0.341600  0.972000  1
  C  C234  1  0.910000  0.158400  0.472000  1
  C  C235  1  0.410000  0.658400  0.028000  1
  C  C236  1  0.090000  0.841600  0.528000  1
  C  C237  1  0.543000  0.373000  0.012500  1
  C  C238  1  0.957000  0.127000  0.512500  1
  C  C239  1  0.457000  0.627000  0.987500  1
  C  C240  1  0.043000  0.873000  0.487500  1
  C  C241  1  0.532000  0.443000  0.004400  1
  C  C242  1  0.968000  0.057000  0.504400  1
  C  C243  1  0.468000  0.557000  0.995600  1
  C  C244  1  0.032000  0.943000  0.495600  1
  C  C245  1  0.567000  0.480800  0.955800  1
  C  C246  1  0.933000  0.019200  0.455800  1
  C  C247  1  0.433000  0.519200  0.044200  1
  C  C248  1  0.067000  0.980800  0.544200  1
  C  C249  1  0.615000  0.449200  0.915300  1
  C  C250  1  0.885000  0.050800  0.415300  1
  C  C251  1  0.385000  0.550800  0.084700  1
  C  C252  1  0.115000  0.949200  0.584700  1
  C  C253  1  0.365000  0.122200  0.957500  1
  C  C254  1  0.135000  0.377800  0.457500  1
  C  C255  1  0.635000  0.877800  0.042500  1
  C  C256  1  0.865000  0.622200  0.542500  1
  C  C257  1  0.417000  0.073900  0.973000  1
  C  C258  1  0.083000  0.426100  0.473000  1
  C  C259  1  0.583000  0.926100  0.027000  1
  C  C260  1  0.917000  0.573900  0.527000  1
  C  C261  1  0.494000  0.059000  0.022600  1
  C  C262  1  0.006000  0.441000  0.522600  1
  C  C263  1  0.506000  0.941000  0.977400  1
  C  C264  1  0.994000  0.559000  0.477400  1
  C  C265  1  0.437000  0.996000  0.952900  1
  C  C266  1  0.063000  0.504000  0.452900  1
  C  C267  1  0.563000  0.004000  0.047100  1
  C  C268  1  0.937000  0.496000  0.547100  1
  C  C269  1  0.607800  0.877400  0.816400  1.0
  C  C270  1  0.892200  0.622600  0.316400  1.0
  C  C271  1  0.392200  0.122600  0.183600  1.0
  C  C272  1  0.107800  0.377400  0.683600  1.0
  C  C273  1  0.510200  0.831100  0.831800  1.0
  C  C274  1  0.989800  0.668900  0.331800  1.0
  C  C275  1  0.489800  0.168900  0.168200  1.0
  C  C276  1  0.010200  0.331100  0.668200  1.0
  C  C277  1  0.423700  0.859300  0.829000  1.0
  C  C278  1  0.076300  0.640700  0.329000  1.0
  C  C279  1  0.576300  0.140700  0.171000  1.0
  C  C280  1  0.923700  0.359300  0.671000  1.0
  C  C281  1  0.438000  0.930400  0.811600  1.0
  C  C282  1  0.062000  0.569600  0.311600  1.0
  C  C283  1  0.562000  0.069600  0.188400  1.0
  C  C284  1  0.938000  0.430400  0.688400  1.0
  C  C285  1  0.537000  0.972500  0.797100  1.0
  C  C286  1  0.963000  0.527500  0.297100  1.0
  C  C287  1  0.463000  0.027500  0.202900  1.0
  C  C288  1  0.037000  0.472500  0.702900  1.0
  C  C289  1  0.319100  0.809900  0.847200  1.0
  C  C290  1  0.180900  0.690100  0.347200  1.0
  C  C291  1  0.680900  0.190100  0.152800  1.0
  C  C292  1  0.819100  0.309900  0.652800  1.0
  C  C293  1  0.141900  0.801500  0.868300  1.0
  C  C294  1  0.358100  0.698500  0.368300  1.0
  C  C295  1  0.858100  0.198500  0.131700  1.0
  C  C296  1  0.641900  0.301500  0.631700  1.0
  C  C297  1  0.089500  0.854700  0.890000  1.0
  C  C298  1  0.410500  0.645300  0.390000  1.0
  C  C299  1  0.910500  0.145300  0.110000  1.0
  C  C300  1  0.589500  0.354700  0.610000  1.0
  C  C301  1  0.128600  0.941400  0.962800  1.0
  C  C302  1  0.371400  0.558600  0.462800  1.0
  C  C303  1  0.871400  0.058600  0.037200  1.0
  C  C304  1  0.628600  0.441400  0.537200  1.0
  C  C305  1  0.167000  0.956200  0.019600  1.0
  C  C306  1  0.333000  0.543800  0.519600  1.0
  C  C307  1  0.833000  0.043800  0.980400  1.0
  C  C308  1  0.667000  0.456200  0.480400  1.0
  C  C309  1  0.148600  0.015600  0.048100  1.0
  C  C310  1  0.351400  0.484400  0.548100  1.0
  C  C311  1  0.851400  0.984400  0.951900  1.0
  C  C312  1  0.648600  0.515600  0.451900  1.0
  C  C313  1  0.829200  0.974400  0.897600  1.0
  C  C314  1  0.670800  0.525600  0.397600  1.0
  C  C315  1  0.170800  0.025600  0.102400  1.0
  C  C316  1  0.329200  0.474400  0.602400  1.0
  C  C317  1  0.768500  0.075500  0.895400  1.0
  C  C318  1  0.731500  0.424500  0.395400  1.0
  C  C319  1  0.231500  0.924500  0.104600  1.0
  C  C320  1  0.268500  0.575500  0.604600  1.0
  C  C321  1  0.210400  0.909900  0.050400  1.0
  C  C322  1  0.289600  0.590100  0.550400  1.0
  C  C323  1  0.789600  0.090100  0.949600  1.0
  C  C324  1  0.710400  0.409900  0.449600  1.0
  C  C325  1  0.822600  0.080400  0.650100  1.0
  C  C326  1  0.677400  0.419600  0.150100  1.0
  C  C327  1  0.177400  0.919600  0.349900  1.0
  C  C328  1  0.322600  0.580400  0.849900  1.0
  C  C329  1  0.940800  0.109600  0.662000  1.0
  C  C330  1  0.559200  0.390400  0.162000  1.0
  C  C331  1  0.059200  0.890400  0.338000  1.0
  C  C332  1  0.440800  0.609600  0.838000  1.0
  C  C333  1  0.965300  0.147100  0.716600  1.0
  C  C334  1  0.534700  0.352900  0.216600  1.0
  C  C335  1  0.034700  0.852900  0.283400  1.0
  C  C336  1  0.465300  0.647100  0.783400  1.0
  C  C337  1  0.612100  0.993100  0.672700  1.0
  C  C338  1  0.887900  0.506900  0.172700  1.0
  C  C339  1  0.387900  0.006900  0.327300  1.0
  C  C340  1  0.112100  0.493100  0.827300  1.0
  C  C341  1  0.541500  0.925400  0.664900  1.0
  C  C342  1  0.958500  0.574600  0.164900  1.0
  C  C343  1  0.458500  0.074600  0.335100  1.0
  C  C344  1  0.041500  0.425400  0.835100  1.0
  C  C345  1  0.436800  0.916800  0.654000  1.0
  C  C346  1  0.063200  0.583200  0.154000  1.0
  C  C347  1  0.563200  0.083200  0.346000  1.0
  C  C348  1  0.936800  0.416800  0.846000  1.0
  C  C349  1  0.406400  0.982200  0.649200  1.0
  C  C350  1  0.093600  0.517800  0.149200  1.0
  C  C351  1  0.593600  0.017800  0.350800  1.0
  C  C352  1  0.906400  0.482200  0.850800  1.0
  C  C353  1  0.473100  0.048700  0.657900  1.0
  C  C354  1  0.026900  0.451300  0.157900  1.0
  C  C355  1  0.526900  0.951300  0.342100  1.0
  C  C356  1  0.973100  0.548700  0.842100  1.0
  C  C357  1  0.576200  0.057200  0.669800  1.0
  C  C358  1  0.923800  0.442800  0.169800  1.0
  C  C359  1  0.423800  0.942800  0.330200  1.0
  C  C360  1  0.076200  0.557200  0.830200  1.0
  C  C361  1  0.777500  0.922000  0.662000  1.0
  C  C362  1  0.722500  0.578000  0.162000  1.0
  C  C363  1  0.222500  0.078000  0.338000  1.0
  C  C364  1  0.277500  0.422000  0.838000  1.0
  C  C365  1  0.773200  0.862800  0.695500  1.0
  C  C366  1  0.726800  0.637200  0.195500  1.0
  C  C367  1  0.226800  0.137200  0.304500  1.0
  C  C368  1  0.273200  0.362800  0.804500  1.0
  C  C369  1  0.792400  0.800200  0.674500  1.0
  C  C370  1  0.707600  0.699800  0.174500  1.0
  C  C371  1  0.207600  0.199800  0.325500  1.0
  C  C372  1  0.292400  0.300200  0.825500  1.0
  C  C373  1  0.818400  0.797600  0.620600  1.0
  C  C374  1  0.681600  0.702400  0.120600  1.0
  C  C375  1  0.181600  0.202400  0.379400  1.0
  C  C376  1  0.318400  0.297600  0.879400  1.0
  C  C377  1  0.821000  0.855600  0.586300  1.0
  C  C378  1  0.679000  0.644400  0.086300  1.0
  C  C379  1  0.179000  0.144400  0.413700  1.0
  C  C380  1  0.321000  0.355600  0.913700  1.0
  C  C381  1  0.802100  0.917600  0.606200  1.0
  C  C382  1  0.697900  0.582400  0.106200  1.0
  C  C383  1  0.197900  0.082400  0.393800  1.0
  C  C384  1  0.302100  0.417600  0.893800  1.0
  C  C385  1  0.036200  0.028000  0.762400  1.0
  C  C386  1  0.463800  0.472000  0.262400  1.0
  C  C387  1  0.963800  0.972000  0.237600  1.0
  C  C388  1  0.536200  0.528000  0.737600  1.0
  C  C389  1  0.139900  0.064100  0.750400  1.0
  C  C390  1  0.360100  0.435900  0.250400  1.0
  C  C391  1  0.860100  0.935900  0.249600  1.0
  C  C392  1  0.639900  0.564100  0.749600  1.0
  C  C393  1  0.210000  0.021800  0.740300  1.0
  C  C394  1  0.290000  0.478200  0.240300  1.0
  C  C395  1  0.790000  0.978200  0.259700  1.0
  C  C396  1  0.710000  0.521800  0.759700  1.0
  C  C397  1  0.175000  0.948500  0.740900  1.0
  C  C398  1  0.325000  0.551500  0.240900  1.0
  C  C399  1  0.825000  0.051500  0.259100  1.0
  C  C400  1  0.675000  0.448500  0.759100  1.0
  C  C401  1  0.071300  0.912400  0.752500  1.0
  C  C402  1  0.428700  0.587600  0.252500  1.0
  C  C403  1  0.928700  0.087600  0.247500  1.0
  C  C404  1  0.571300  0.412400  0.747500  1.0
  C  C405  1  0.001500  0.952900  0.764000  1.0
  C  C406  1  0.498500  0.547100  0.264000  1.0
  C  C407  1  0.998500  0.047100  0.236000  1.0
  C  C408  1  0.501500  0.452900  0.736000  1.0
  C  C409  1  0.993700  0.139900  0.834100  1.0
  C  C410  1  0.506300  0.360100  0.334100  1.0
  C  C411  1  0.006300  0.860100  0.165900  1.0
  C  C412  1  0.493700  0.639900  0.665900  1.0
  C  C413  1  0.052000  0.116400  0.873300  1.0
  C  C414  1  0.448000  0.383600  0.373300  1.0
  C  C415  1  0.948000  0.883600  0.126700  1.0
  C  C416  1  0.552000  0.616400  0.626700  1.0
  C  C417  1  0.081300  0.156600  0.921700  1.0
  C  C418  1  0.418700  0.343400  0.421700  1.0
  C  C419  1  0.918700  0.843400  0.078300  1.0
  C  C420  1  0.581300  0.656600  0.578300  1.0
  C  C421  1  0.051500  0.219000  0.930700  1.0
  C  C422  1  0.448500  0.281000  0.430700  1.0
  C  C423  1  0.948500  0.781000  0.069300  1.0
  C  C424  1  0.551500  0.719000  0.569300  1.0
  C  C425  1  0.989800  0.240900  0.891600  1.0
  C  C426  1  0.510200  0.259100  0.391600  1.0
  C  C427  1  0.010200  0.759100  0.108400  1.0
  C  C428  1  0.489800  0.740900  0.608400  1.0
  C  C429  1  0.963500  0.201800  0.842800  1.0
  C  C430  1  0.536500  0.298200  0.342800  1.0
  C  C431  1  0.036500  0.798200  0.157200  1.0
  C  C432  1  0.463500  0.701800  0.657200  1.0
  S  S433  1  0.186600  0.720520  0.704480  1
  S  S434  1  0.313400  0.779480  0.204480  1
  S  S435  1  0.813400  0.279480  0.295520  1
  S  S436  1  0.686600  0.220520  0.795520  1
  S  S437  1  0.792100  0.749800  0.846700  1
  S  S438  1  0.707900  0.750200  0.346700  1
  S  S439  1  0.207900  0.250200  0.153300  1
  S  S440  1  0.292100  0.249800  0.653300  1
  N  N441  1  0.618900  0.944700  0.798400  1.0
  N  N442  1  0.881100  0.555300  0.298400  1.0
  N  N443  1  0.381100  0.055300  0.201600  1.0
  N  N444  1  0.118900  0.444700  0.701600  1.0
  N  N445  1  0.790400  0.019600  0.868800  1.0
  N  N446  1  0.709600  0.480400  0.368800  1.0
  N  N447  1  0.209600  0.980400  0.131200  1.0
  N  N448  1  0.290400  0.519600  0.631200  1.0
  O  O449  1  0.228300  0.739600  0.645000  1
  O  O450  1  0.271700  0.760400  0.145000  1
  O  O451  1  0.771700  0.260400  0.355000  1
  O  O452  1  0.728300  0.239600  0.855000  1
  O  O453  1  0.218700  0.781700  0.734900  1
  O  O454  1  0.281300  0.718300  0.234900  1
  O  O455  1  0.781300  0.218300  0.265100  1
  O  O456  1  0.718700  0.281700  0.765100  1
  O  O457  1  0.205000  0.653700  0.721700  1
  O  O458  1  0.295000  0.846300  0.221700  1
  O  O459  1  0.795000  0.346300  0.278300  1
  O  O460  1  0.705000  0.153700  0.778300  1
  O  O461  1  0.696200  0.728300  0.813100  1
  O  O462  1  0.803800  0.771700  0.313100  1
  O  O463  1  0.303800  0.271700  0.186900  1
  O  O464  1  0.196200  0.228300  0.686900  1
  O  O465  1  0.837900  0.823100  0.840400  1
  O  O466  1  0.662100  0.676900  0.340400  1
  O  O467  1  0.162100  0.176900  0.159600  1
  O  O468  1  0.337900  0.323100  0.659600  1
  O  O469  1  0.862200  0.703000  0.851800  1
  O  O470  1  0.637800  0.797000  0.351800  1
  O  O471  1  0.137800  0.297000  0.148200  1
  O  O472  1  0.362200  0.203000  0.648200  1
  O  O473  1  0.304400  0.745400  0.857400  1.0
  O  O474  1  0.195600  0.754600  0.357400  1.0
  O  O475  1  0.695600  0.254600  0.142600  1.0
  O  O476  1  0.804400  0.245400  0.642600  1.0
  O  O477  1  0.247900  0.845500  0.852000  1.0
  O  O478  1  0.252100  0.654500  0.352000  1.0
  O  O479  1  0.752100  0.154500  0.148000  1.0
  O  O480  1  0.747900  0.345500  0.648000  1.0
  O  O481  1  0.132100  0.877000  0.945000  1.0
  O  O482  1  0.367900  0.623000  0.445000  1.0
  O  O483  1  0.867900  0.123000  0.055000  1.0
  O  O484  1  0.632100  0.377000  0.555000  1.0
  O  O485  1  0.094700  0.982400  0.936300  1.0
  O  O486  1  0.405300  0.517600  0.436300  1.0
  O  O487  1  0.905300  0.017600  0.063700  1.0
  O  O488  1  0.594700  0.482400  0.563700  1.0
  F  F489  1  0.013700  0.746400  0.669900  1
  F  F490  1  0.486300  0.753600  0.169900  1
  F  F491  1  0.986300  0.253600  0.330100  1
  F  F492  1  0.513700  0.246400  0.830100  1
  F  F493  1  0.012700  0.636800  0.664000  1
  F  F494  1  0.487300  0.863200  0.164000  1
  F  F495  1  0.987300  0.363200  0.336000  1
  F  F496  1  0.512700  0.136800  0.836000  1
  F  F497  1  0.999200  0.680900  0.740900  1
  F  F498  1  0.500800  0.819100  0.240900  1
  F  F499  1  0.000800  0.319100  0.259100  1
  F  F500  1  0.499200  0.180900  0.759100  1
  F  F501  1  0.708000  0.680700  0.931900  1
  F  F502  1  0.792000  0.819300  0.431900  1
  F  F503  1  0.292000  0.319300  0.068100  1
  F  F504  1  0.208000  0.180700  0.568100  1
  F  F505  1  0.666000  0.779600  0.916700  1
  F  F506  1  0.834000  0.720400  0.416700  1
  F  F507  1  0.334000  0.220400  0.083300  1
  F  F508  1  0.166000  0.279600  0.583300  1
  F  F509  1  0.817900  0.780000  0.948500  1
  F  F510  1  0.682100  0.720000  0.448500  1
  F  F511  1  0.182100  0.220000  0.051500  1
  F  F512  1  0.317900  0.280000  0.551500  1
