# generated using pymatgen
data_P2H44PdC49S2N4(O2F)6
_symmetry_space_group_name_H-M   'P 1'
_cell_length_a   11.78340000
_cell_length_b   15.37080000
_cell_length_c   15.40530000
_cell_angle_alpha   88.49980000
_cell_angle_beta   81.93210000
_cell_angle_gamma   70.47280000
_symmetry_Int_Tables_number   1
_chemical_formula_structural   P2H44PdC49S2N4(O2F)6
_chemical_formula_sum   'P4 H88 Pd2 C98 S4 N8 O24 F12'
_cell_volume   2603.05695862
_cell_formula_units_Z   2
loop_
 _symmetry_equiv_pos_site_id
 _symmetry_equiv_pos_as_xyz
  1  'x, y, z'
loop_
 _atom_site_type_symbol
 _atom_site_label
 _atom_site_symmetry_multiplicity
 _atom_site_fract_x
 _atom_site_fract_y
 _atom_site_fract_z
 _atom_site_occupancy
  P  P1  1  0.036340  0.366410  0.647070  1.0
  P  P2  1  0.963660  0.633590  0.352930  1.0
  P  P3  1  0.881330  0.252060  0.760880  1.0
  P  P4  1  0.118670  0.747940  0.239120  1.0
  H  H5  1  0.537600  0.134800  0.532700  1
  H  H6  1  0.462400  0.865200  0.467300  1
  H  H7  1  0.679200  0.079800  0.533300  1
  H  H8  1  0.320800  0.920200  0.466700  1
  H  H9  1  0.626600  0.104400  0.442100  1
  H  H10  1  0.373400  0.895600  0.557900  1
  H  H11  1  0.430500  0.482300  0.928000  1.0
  H  H12  1  0.569500  0.517700  0.072000  1.0
  H  H13  1  0.505100  0.449600  0.832500  1.0
  H  H14  1  0.494900  0.550400  0.167500  1.0
  H  H15  1  0.948300  0.554500  0.708300  1.0
  H  H16  1  0.051700  0.445500  0.291700  1.0
  H  H17  1  0.032900  0.674900  0.704100  1.0
  H  H18  1  0.967100  0.325100  0.295900  1.0
  H  H19  1  0.229000  0.651900  0.631600  1.0
  H  H20  1  0.771000  0.348100  0.368400  1.0
  H  H21  1  0.341900  0.512400  0.570300  1.0
  H  H22  1  0.658100  0.487600  0.429700  1.0
  H  H23  1  0.263500  0.389500  0.569300  1.0
  H  H24  1  0.736500  0.610500  0.430700  1.0
  H  H25  1  0.049600  0.326200  0.459900  1.0
  H  H26  1  0.950400  0.673800  0.540100  1.0
  H  H27  1  0.193300  0.198100  0.363200  1.0
  H  H28  1  0.806700  0.801900  0.636800  1.0
  H  H29  1  0.340000  0.088800  0.417300  1.0
  H  H30  1  0.660000  0.911200  0.582700  1.0
  H  H31  1  0.379500  0.091300  0.556800  1.0
  H  H32  1  0.620500  0.908700  0.443200  1.0
  H  H33  1  0.249600  0.210700  0.653200  1.0
  H  H34  1  0.750400  0.789300  0.346800  1.0
  H  H35  1  0.308000  0.254000  0.773000  1.0
  H  H36  1  0.692000  0.746000  0.227000  1.0
  H  H37  1  0.454000  0.320000  0.804000  1.0
  H  H38  1  0.546000  0.680000  0.196000  1.0
  H  H39  1  0.174000  0.552000  0.892000  1.0
  H  H40  1  0.826000  0.448000  0.108000  1.0
  H  H41  1  0.046000  0.476000  0.858000  1.0
  H  H42  1  0.954000  0.524000  0.142000  1.0
  H  H43  1  0.556000  0.703000  0.699000  1.0
  H  H44  1  0.444000  0.297000  0.301000  1.0
  H  H45  1  0.506000  0.857000  0.693000  1.0
  H  H46  1  0.494000  0.143000  0.307000  1.0
  H  H47  1  0.292000  0.953000  0.741000  1.0
  H  H48  1  0.708000  0.047000  0.259000  1.0
  H  H49  1  0.875000  0.850000  0.808000  1.0
  H  H50  1  0.125000  0.150000  0.192000  1.0
  H  H51  1  0.892000  0.938000  0.847000  1.0
  H  H52  1  0.108000  0.062000  0.153000  1.0
  H  H53  1  0.093000  0.718000  0.891000  1.0
  H  H54  1  0.907000  0.282000  0.109000  1.0
  H  H55  1  0.905000  0.345000  0.969000  1.0
  H  H56  1  0.095000  0.655000  0.031000  1.0
  H  H57  1  0.190000  0.145000  0.872000  1.0
  H  H58  1  0.810000  0.855000  0.128000  1.0
  H  H59  1  0.783000  0.928000  0.993000  1.0
  H  H60  1  0.217000  0.072000  0.007000  1.0
  H  H61  1  0.909000  0.430000  0.554000  1.0
  H  H62  1  0.091000  0.570000  0.446000  1.0
  H  H63  1  0.853000  0.469000  0.637000  1.0
  H  H64  1  0.147000  0.531000  0.363000  1.0
  H  H65  1  0.856000  0.296000  0.579000  1.0
  H  H66  1  0.144000  0.704000  0.421000  1.0
  H  H67  1  0.751000  0.377000  0.576000  1.0
  H  H68  1  0.249000  0.623000  0.424000  1.0
  H  H69  1  0.704000  0.303000  0.702000  1.0
  H  H70  1  0.296000  0.697000  0.298000  1.0
  H  H71  1  0.738000  0.387000  0.732000  1.0
  H  H72  1  0.262000  0.613000  0.268000  1.0
  H  H73  1  0.105000  0.116000  0.679000  1.0
  H  H74  1  0.895000  0.884000  0.321000  1.0
  H  H75  1  0.164000  0.980000  0.597000  1.0
  H  H76  1  0.836000  0.020000  0.403000  1.0
  H  H77  1  0.010000  0.923000  0.574000  1.0
  H  H78  1  0.990000  0.077000  0.426000  1.0
  H  H79  1  0.802000  0.999000  0.636000  1.0
  H  H80  1  0.198000  0.001000  0.364000  1.0
  H  H81  1  0.755000  0.138000  0.713000  1.0
  H  H82  1  0.245000  0.862000  0.287000  1.0
  H  H83  1  0.906000  0.100000  0.876000  1.0
  H  H84  1  0.094000  0.900000  0.124000  1.0
  H  H85  1  0.803000  0.081000  0.011000  1.0
  H  H86  1  0.197000  0.919000  0.989000  1.0
  H  H87  1  0.623000  0.200000  0.076000  1.0
  H  H88  1  0.377000  0.800000  0.924000  1.0
  H  H89  1  0.561000  0.339000  0.007000  1.0
  H  H90  1  0.439000  0.661000  0.993000  1.0
  H  H91  1  0.675000  0.359000  0.881000  1.0
  H  H92  1  0.325000  0.641000  0.119000  1.0
  Pd  Pd93  1  0.033480  0.305930  0.783160  1.0
  Pd  Pd94  1  0.966520  0.694070  0.216840  1.0
  C  C95  1  0.513600  0.045900  0.871900  1
  C  C96  1  0.486400  0.954100  0.128100  1
  C  C97  1  0.246700  0.337700  0.106300  1
  C  C98  1  0.753300  0.662300  0.893700  1
  C  C99  1  0.619700  0.125900  0.502600  1
  C  C100  1  0.380300  0.874100  0.497400  1
  C  C101  1  0.284000  0.315200  0.797800  1.0
  C  C102  1  0.716000  0.684800  0.202200  1.0
  C  C103  1  0.369200  0.353100  0.814400  1.0
  C  C104  1  0.630800  0.646900  0.185600  1.0
  C  C105  1  0.333100  0.440900  0.846600  1.0
  C  C106  1  0.666900  0.559100  0.153400  1.0
  C  C107  1  0.210200  0.488100  0.864100  1.0
  C  C108  1  0.789800  0.511900  0.135900  1.0
  C  C109  1  0.128800  0.446500  0.847600  1.0
  C  C110  1  0.871200  0.553500  0.152400  1.0
  C  C111  1  0.424200  0.484500  0.864500  1.0
  C  C112  1  0.575800  0.515500  0.135500  1.0
  C  C113  1  0.433200  0.596700  0.756100  1.0
  C  C114  1  0.566800  0.403300  0.243900  1.0
  C  C115  1  0.395800  0.698300  0.743900  1.0
  C  C116  1  0.604200  0.301700  0.256100  1.0
  C  C117  1  0.480900  0.738800  0.711400  1.0
  C  C118  1  0.519100  0.261200  0.288600  1.0
  C  C119  1  0.444800  0.833300  0.709300  1.0
  C  C120  1  0.555200  0.166700  0.290700  1.0
  C  C121  1  0.325700  0.884300  0.737000  1.0
  C  C122  1  0.674300  0.115700  0.263000  1.0
  C  C123  1  0.245700  0.836800  0.765000  1.0
  C  C124  1  0.754300  0.163200  0.235000  1.0
  C  C125  1  0.116100  0.889100  0.800800  1.0
  C  C126  1  0.883900  0.110900  0.199200  1.0
  C  C127  1  0.922700  0.874200  0.839500  1.0
  C  C128  1  0.077300  0.125800  0.160500  1.0
  C  C129  1  0.933600  0.831700  0.928400  1.0
  C  C130  1  0.066400  0.168300  0.071600  1.0
  C  C131  1  0.027900  0.751000  0.940400  1.0
  C  C132  1  0.972100  0.249000  0.059600  1.0
  C  C133  1  0.965700  0.286100  0.977300  1.0
  C  C134  1  0.034300  0.713900  0.022700  1.0
  C  C135  1  0.137300  0.168100  0.918200  1.0
  C  C136  1  0.862700  0.831900  0.081800  1.0
  C  C137  1  0.849200  0.871500  0.000900  1.0
  C  C138  1  0.150800  0.128500  0.999100  1.0
  C  C139  1  0.889700  0.415800  0.608400  1.0
  C  C140  1  0.110300  0.584200  0.391600  1.0
  C  C141  1  0.815400  0.351800  0.609300  1.0
  C  C142  1  0.184600  0.648200  0.390700  1.0
  C  C143  1  0.766500  0.331500  0.701600  1.0
  C  C144  1  0.233500  0.668500  0.298400  1.0
  C  C145  1  0.098200  0.460300  0.639600  1.0
  C  C146  1  0.901800  0.539700  0.360400  1.0
  C  C147  1  0.028500  0.545000  0.679600  1.0
  C  C148  1  0.971500  0.455000  0.320400  1.0
  C  C149  1  0.079300  0.616800  0.676700  1.0
  C  C150  1  0.920700  0.383200  0.323300  1.0
  C  C151  1  0.196100  0.603200  0.634300  1.0
  C  C152  1  0.803900  0.396800  0.365700  1.0
  C  C153  1  0.261300  0.521500  0.597600  1.0
  C  C154  1  0.738700  0.478500  0.402400  1.0
  C  C155  1  0.215500  0.446900  0.597400  1.0
  C  C156  1  0.784500  0.553100  0.402600  1.0
  C  C157  1  0.135300  0.278600  0.567200  1.0
  C  C158  1  0.864700  0.721400  0.432800  1.0
  C  C159  1  0.114600  0.279400  0.481200  1.0
  C  C160  1  0.885400  0.720600  0.518800  1.0
  C  C161  1  0.201900  0.201300  0.423300  1.0
  C  C162  1  0.798100  0.798700  0.576700  1.0
  C  C163  1  0.289100  0.138400  0.455400  1.0
  C  C164  1  0.710900  0.861600  0.544600  1.0
  C  C165  1  0.312600  0.138100  0.537500  1.0
  C  C166  1  0.687400  0.861900  0.462500  1.0
  C  C167  1  0.234600  0.209300  0.594400  1.0
  C  C168  1  0.765400  0.790700  0.405600  1.0
  C  C169  1  0.925800  0.143100  0.702300  1.0
  C  C170  1  0.074200  0.856900  0.297700  1.0
  C  C171  1  0.045800  0.096000  0.669200  1.0
  C  C172  1  0.954200  0.904000  0.330800  1.0
  C  C173  1  0.076800  0.013500  0.621600  1.0
  C  C174  1  0.923200  0.986500  0.378400  1.0
  C  C175  1  0.986900  0.977500  0.608900  1.0
  C  C176  1  0.013100  0.022500  0.391100  1.0
  C  C177  1  0.867300  0.022900  0.642700  1.0
  C  C178  1  0.132700  0.977100  0.357300  1.0
  C  C179  1  0.837000  0.105200  0.688900  1.0
  C  C180  1  0.163000  0.894800  0.311100  1.0
  C  C181  1  0.797000  0.234600  0.863500  1.0
  C  C182  1  0.203000  0.765400  0.136500  1.0
  C  C183  1  0.835700  0.149600  0.904600  1.0
  C  C184  1  0.164300  0.850400  0.095400  1.0
  C  C185  1  0.772200  0.136400  0.983800  1.0
  C  C186  1  0.227800  0.863600  0.016200  1.0
  C  C187  1  0.671800  0.205800  0.021900  1.0
  C  C188  1  0.328200  0.794200  0.978100  1.0
  C  C189  1  0.634200  0.290500  0.983600  1.0
  C  C190  1  0.365800  0.709500  0.016400  1.0
  C  C191  1  0.698100  0.304800  0.904800  1.0
  C  C192  1  0.301900  0.695200  0.095200  1.0
  S  S193  1  0.501730  0.070890  0.755170  1
  S  S194  1  0.498270  0.929110  0.244830  1
  S  S195  1  0.265340  0.445060  0.134610  1
  S  S196  1  0.734660  0.554940  0.865390  1
  N  N197  1  0.642100  0.208700  0.502100  1
  N  N198  1  0.357900  0.791300  0.497900  1
  N  N199  1  0.164700  0.361000  0.812900  1.0
  N  N200  1  0.835300  0.639000  0.187100  1.0
  N  N201  1  0.278200  0.745500  0.769900  1.0
  N  N202  1  0.721800  0.254500  0.230100  1.0
  N  N203  1  0.045900  0.245700  0.906800  1.0
  N  N204  1  0.954100  0.754300  0.093200  1.0
  O  O205  1  0.536500  0.151500  0.741400  1
  O  O206  1  0.463500  0.848500  0.258600  1
  O  O207  1  0.583800  0.989900  0.709600  1
  O  O208  1  0.416200  0.010100  0.290400  1
  O  O209  1  0.373200  0.087700  0.750400  1
  O  O210  1  0.626800  0.912300  0.249600  1
  O  O211  1  0.371000  0.446300  0.079100  1
  O  O212  1  0.629000  0.553700  0.920900  1
  O  O213  1  0.157700  0.512300  0.117000  1
  O  O214  1  0.842300  0.487700  0.883000  1
  O  O215  1  0.273500  0.436700  0.226200  1
  O  O216  1  0.726500  0.563300  0.773800  1
  O  O217  1  0.737100  0.207600  0.468400  1
  O  O218  1  0.262900  0.792400  0.531600  1
  O  O219  1  0.557900  0.287800  0.530100  1
  O  O220  1  0.442100  0.712200  0.469900  1
  O  O221  1  0.387900  0.579500  0.837000  1.0
  O  O222  1  0.612100  0.420500  0.163000  1.0
  O  O223  1  0.498200  0.538700  0.704200  1.0
  O  O224  1  0.501800  0.461300  0.295800  1.0
  O  O225  1  0.084900  0.961700  0.839900  1.0
  O  O226  1  0.915100  0.038300  0.160100  1.0
  O  O227  1  0.040700  0.843300  0.785890  1.0
  O  O228  1  0.959300  0.156700  0.214110  1.0
  F  F229  1  0.627700  0.023400  0.886400  1
  F  F230  1  0.372300  0.976600  0.113600  1
  F  F231  1  0.446600  0.116900  0.920700  1
  F  F232  1  0.553400  0.883100  0.079300  1
  F  F233  1  0.476400  0.974400  0.892700  1
  F  F234  1  0.523600  0.025600  0.107300  1
  F  F235  1  0.236100  0.329900  0.024700  1
  F  F236  1  0.763900  0.670100  0.975300  1
  F  F237  1  0.343800  0.266800  0.118200  1
  F  F238  1  0.656200  0.733200  0.881800  1
  F  F239  1  0.153800  0.324900  0.152000  1
  F  F240  1  0.846200  0.675100  0.848000  1
