# generated using pymatgen
data_CuH4(C4O3)2
_symmetry_space_group_name_H-M   'P 1'
_cell_length_a   25.86930000
_cell_length_b   25.86930000
_cell_length_c   26.78248957
_cell_angle_alpha   118.87836308
_cell_angle_beta   118.87836308
_cell_angle_gamma   90.00000000
_symmetry_Int_Tables_number   1
_chemical_formula_structural   CuH4(C4O3)2
_chemical_formula_sum   'Cu24 H96 C192 O144'
_cell_volume   13091.62960121
_cell_formula_units_Z   24
loop_
 _symmetry_equiv_pos_site_id
 _symmetry_equiv_pos_as_xyz
  1  'x, y, z'
loop_
 _atom_site_type_symbol
 _atom_site_label
 _atom_site_symmetry_multiplicity
 _atom_site_fract_x
 _atom_site_fract_y
 _atom_site_fract_z
 _atom_site_occupancy
  C  C1  1  0.552430  0.871490  0.729800  1.0
  C  C2  1  0.177370  0.858310  0.729800  1.0
  C  C3  1  0.871490  0.177370  0.729800  1.0
  C  C4  1  0.858310  0.552430  0.729800  1.0
  C  C5  1  0.447570  0.128510  0.270200  1.0
  C  C6  1  0.822630  0.141690  0.270200  1.0
  C  C7  1  0.128510  0.822630  0.270200  1.0
  C  C8  1  0.141690  0.447570  0.270200  1.0
  C  C9  1  0.532840  0.852500  0.764600  1.0
  C  C10  1  0.231760  0.912100  0.764600  1.0
  C  C11  1  0.852500  0.231760  0.764600  1.0
  C  C12  1  0.912100  0.532840  0.764600  1.0
  C  C13  1  0.467160  0.147500  0.235400  1.0
  C  C14  1  0.768240  0.087900  0.235400  1.0
  C  C15  1  0.147500  0.768240  0.235400  1.0
  C  C16  1  0.087900  0.467160  0.235400  1.0
  C  C17  1  0.470390  0.834060  0.739600  1.0
  C  C18  1  0.269210  0.905540  0.739600  1.0
  C  C19  1  0.834060  0.269210  0.739600  1.0
  C  C20  1  0.905540  0.470390  0.739600  1.0
  C  C21  1  0.529610  0.165940  0.260400  1.0
  C  C22  1  0.730790  0.094460  0.260400  1.0
  C  C23  1  0.165940  0.730790  0.260400  1.0
  C  C24  1  0.094460  0.529610  0.260400  1.0
  C  C25  1  0.453170  0.813650  0.769500  1.0
  C  C26  1  0.316330  0.955850  0.769500  1.0
  C  C27  1  0.813650  0.316330  0.769500  1.0
  C  C28  1  0.955850  0.453170  0.769500  1.0
  C  C29  1  0.546830  0.186350  0.230500  1.0
  C  C30  1  0.683670  0.044150  0.230500  1.0
  C  C31  1  0.186350  0.683670  0.230500  1.0
  C  C32  1  0.044150  0.546830  0.230500  1.0
  C  C33  1  0.496690  0.812160  0.824960  1.0
  C  C34  1  0.328270  0.012800  0.824960  1.0
  C  C35  1  0.812160  0.328270  0.824960  1.0
  C  C36  1  0.012800  0.496690  0.824960  1.0
  C  C37  1  0.503310  0.187840  0.175040  1.0
  C  C38  1  0.671730  0.987200  0.175040  1.0
  C  C39  1  0.187840  0.671730  0.175040  1.0
  C  C40  1  0.987200  0.503310  0.175040  1.0
  C  C41  1  0.558530  0.830330  0.849340  1.0
  C  C42  1  0.290810  0.019010  0.849340  1.0
  C  C43  1  0.830330  0.290810  0.849340  1.0
  C  C44  1  0.019010  0.558530  0.849340  1.0
  C  C45  1  0.441470  0.169670  0.150660  1.0
  C  C46  1  0.709190  0.980990  0.150660  1.0
  C  C47  1  0.169670  0.709190  0.150660  1.0
  C  C48  1  0.980990  0.441470  0.150660  1.0
  C  C49  1  0.576470  0.851590  0.820020  1.0
  C  C50  1  0.243550  0.968430  0.820020  1.0
  C  C51  1  0.851590  0.243550  0.820020  1.0
  C  C52  1  0.968430  0.576470  0.820020  1.0
  C  C53  1  0.423530  0.148410  0.179980  1.0
  C  C54  1  0.756450  0.031570  0.179980  1.0
  C  C55  1  0.148410  0.756450  0.179980  1.0
  C  C56  1  0.031570  0.423530  0.179980  1.0
  C  C57  1  0.607050  0.826130  0.907620  1.0
  C  C58  1  0.300570  0.081490  0.907620  1.0
  C  C59  1  0.826130  0.300570  0.907620  1.0
  C  C60  1  0.081490  0.607050  0.907620  1.0
  C  C61  1  0.392950  0.173870  0.092380  1.0
  C  C62  1  0.699430  0.918510  0.092380  1.0
  C  C63  1  0.173870  0.699430  0.092380  1.0
  C  C64  1  0.918510  0.392950  0.092380  1.0
  C  C65  1  0.586730  0.007200  0.729280  1.0
  C  C66  1  0.142550  0.722080  0.729280  1.0
  C  C67  1  0.007200  0.142550  0.729280  1.0
  C  C68  1  0.722080  0.586730  0.729280  1.0
  C  C69  1  0.413270  0.992800  0.270720  1.0
  C  C70  1  0.857450  0.277920  0.270720  1.0
  C  C71  1  0.992800  0.857450  0.270720  1.0
  C  C72  1  0.277920  0.413270  0.270720  1.0
  C  C73  1  0.589360  0.073820  0.764960  1.0
  C  C74  1  0.175600  0.691140  0.764960  1.0
  C  C75  1  0.073820  0.175600  0.764960  1.0
  C  C76  1  0.691140  0.589360  0.764960  1.0
  C  C77  1  0.410640  0.926180  0.235040  1.0
  C  C78  1  0.824400  0.308860  0.235040  1.0
  C  C79  1  0.926180  0.824400  0.235040  1.0
  C  C80  1  0.308860  0.410640  0.235040  1.0
  C  C81  1  0.535040  0.091150  0.743580  1.0
  C  C82  1  0.208540  0.652430  0.743580  1.0
  C  C83  1  0.091150  0.208540  0.743580  1.0
  C  C84  1  0.652430  0.535040  0.743580  1.0
  C  C85  1  0.464960  0.908850  0.256420  1.0
  C  C86  1  0.791460  0.347570  0.256420  1.0
  C  C87  1  0.908850  0.791460  0.256420  1.0
  C  C88  1  0.347570  0.464960  0.256420  1.0
  C  C89  1  0.538690  0.153360  0.776500  1.0
  C  C90  1  0.237810  0.623140  0.776500  1.0
  C  C91  1  0.153360  0.237810  0.776500  1.0
  C  C92  1  0.623140  0.538690  0.776500  1.0
  C  C93  1  0.461310  0.846640  0.223500  1.0
  C  C94  1  0.762190  0.376860  0.223500  1.0
  C  C95  1  0.846640  0.762190  0.223500  1.0
  C  C96  1  0.376860  0.461310  0.223500  1.0
  C  C97  1  0.595270  0.197860  0.830000  1.0
  C  C98  1  0.234730  0.632140  0.830000  1.0
  C  C99  1  0.197860  0.234730  0.830000  1.0
  C  C100  1  0.632140  0.595270  0.830000  1.0
  C  C101  1  0.404730  0.802140  0.170000  1.0
  C  C102  1  0.765270  0.367860  0.170000  1.0
  C  C103  1  0.802140  0.765270  0.170000  1.0
  C  C104  1  0.367860  0.404730  0.170000  1.0
  C  C105  1  0.648640  0.180660  0.850900  1.0
  C  C106  1  0.202260  0.670240  0.850900  1.0
  C  C107  1  0.180660  0.202260  0.850900  1.0
  C  C108  1  0.670240  0.648640  0.850900  1.0
  C  C109  1  0.351360  0.819340  0.149100  1.0
  C  C110  1  0.797740  0.329760  0.149100  1.0
  C  C111  1  0.819340  0.797740  0.149100  1.0
  C  C112  1  0.329760  0.351360  0.149100  1.0
  C  C113  1  0.646130  0.118710  0.818900  1.0
  C  C114  1  0.172770  0.700190  0.818900  1.0
  C  C115  1  0.118710  0.172770  0.818900  1.0
  C  C116  1  0.700190  0.646130  0.818900  1.0
  C  C117  1  0.353870  0.881290  0.181100  1.0
  C  C118  1  0.827230  0.299810  0.181100  1.0
  C  C119  1  0.881290  0.827230  0.181100  1.0
  C  C120  1  0.299810  0.353870  0.181100  1.0
  C  C121  1  0.677710  0.710830  0.907740  1.0
  C  C122  1  0.230030  0.196910  0.907740  1.0
  C  C123  1  0.710830  0.230030  0.907740  1.0
  C  C124  1  0.196910  0.677710  0.907740  1.0
  C  C125  1  0.322290  0.289170  0.092260  1.0
  C  C126  1  0.769970  0.803090  0.092260  1.0
  C  C127  1  0.289170  0.769970  0.092260  1.0
  C  C128  1  0.803090  0.322290  0.092260  1.0
  C  C129  1  0.583730  0.784540  0.605260  1.0
  C  C130  1  0.021530  0.820720  0.605260  1.0
  C  C131  1  0.784540  0.021530  0.605260  1.0
  C  C132  1  0.820720  0.583730  0.605260  1.0
  C  C133  1  0.416270  0.215460  0.394740  1.0
  C  C134  1  0.978470  0.179280  0.394740  1.0
  C  C135  1  0.215460  0.978470  0.394740  1.0
  C  C136  1  0.179280  0.416270  0.394740  1.0
  C  C137  1  0.583970  0.718560  0.570120  1.0
  C  C138  1  0.986150  0.851560  0.570120  1.0
  C  C139  1  0.718560  0.986150  0.570120  1.0
  C  C140  1  0.851560  0.583970  0.570120  1.0
  C  C141  1  0.416030  0.281440  0.429880  1.0
  C  C142  1  0.013850  0.148440  0.429880  1.0
  C  C143  1  0.281440  0.013850  0.429880  1.0
  C  C144  1  0.148440  0.416030  0.429880  1.0
  C  C145  1  0.532090  0.674010  0.505040  1.0
  C  C146  1  0.972950  0.831030  0.505040  1.0
  C  C147  1  0.674010  0.972950  0.505040  1.0
  C  C148  1  0.831030  0.532090  0.505040  1.0
  C  C149  1  0.467910  0.325990  0.494960  1.0
  C  C150  1  0.027050  0.168970  0.494960  1.0
  C  C151  1  0.325990  0.027050  0.494960  1.0
  C  C152  1  0.168970  0.467910  0.494960  1.0
  C  C153  1  0.532240  0.612900  0.471360  1.0
  C  C154  1  0.939120  0.858460  0.471360  1.0
  C  C155  1  0.612900  0.939120  0.471360  1.0
  C  C156  1  0.858460  0.532240  0.471360  1.0
  C  C157  1  0.467760  0.387100  0.528640  1.0
  C  C158  1  0.060880  0.141540  0.528640  1.0
  C  C159  1  0.387100  0.060880  0.528640  1.0
  C  C160  1  0.141540  0.467760  0.528640  1.0
  C  C161  1  0.582700  0.595640  0.503960  1.0
  C  C162  1  0.921260  0.908320  0.503960  1.0
  C  C163  1  0.595640  0.921260  0.503960  1.0
  C  C164  1  0.908320  0.582700  0.503960  1.0
  C  C165  1  0.417300  0.404360  0.496040  1.0
  C  C166  1  0.078740  0.091680  0.496040  1.0
  C  C167  1  0.404360  0.078740  0.496040  1.0
  C  C168  1  0.091680  0.417300  0.496040  1.0
  C  C169  1  0.633410  0.639980  0.569080  1.0
  C  C170  1  0.935670  0.929100  0.569080  1.0
  C  C171  1  0.639980  0.935670  0.569080  1.0
  C  C172  1  0.929100  0.633410  0.569080  1.0
  C  C173  1  0.366590  0.360020  0.430920  1.0
  C  C174  1  0.064330  0.070900  0.430920  1.0
  C  C175  1  0.360020  0.064330  0.430920  1.0
  C  C176  1  0.070900  0.366590  0.430920  1.0
  C  C177  1  0.634500  0.701760  0.601860  1.0
  C  C178  1  0.967360  0.900100  0.601860  1.0
  C  C179  1  0.701760  0.967360  0.601860  1.0
  C  C180  1  0.900100  0.634500  0.601860  1.0
  C  C181  1  0.365500  0.298240  0.398140  1.0
  C  C182  1  0.032640  0.099900  0.398140  1.0
  C  C183  1  0.298240  0.032640  0.398140  1.0
  C  C184  1  0.099900  0.365500  0.398140  1.0
  C  C185  1  0.620240  0.919310  0.605420  1.0
  C  C186  1  0.985180  0.686110  0.605420  1.0
  C  C187  1  0.919310  0.985180  0.605420  1.0
  C  C188  1  0.686110  0.620240  0.605420  1.0
  C  C189  1  0.379760  0.080690  0.394580  1.0
  C  C190  1  0.014820  0.313890  0.394580  1.0
  C  C191  1  0.080690  0.014820  0.394580  1.0
  C  C192  1  0.313890  0.379760  0.394580  1.0
  Cu  Cu193  1  0.644880  0.788502  0.000000  1.0
  Cu  Cu194  1  0.355120  0.211498  0.000000  1.0
  Cu  Cu195  1  0.788502  0.355120  1.000000  1.0
  Cu  Cu196  1  0.211498  0.644880  0.000000  1.0
  Cu  Cu197  1  0.731520  0.840840  1.000000  1.0
  Cu  Cu198  1  0.268480  0.159160  0.000000  1.0
  Cu  Cu199  1  0.840840  0.268480  1.000000  1.0
  Cu  Cu200  1  0.159160  0.731520  1.000000  1.0
  Cu  Cu201  1  0.526619  0.880089  0.618666  1.0
  Cu  Cu202  1  0.092047  0.738577  0.618666  1.0
  Cu  Cu203  1  0.880089  0.092047  0.618666  1.0
  Cu  Cu204  1  0.738577  0.526619  0.618666  1.0
  Cu  Cu205  1  0.473381  0.119911  0.381334  1.0
  Cu  Cu206  1  0.907953  0.261423  0.381334  1.0
  Cu  Cu207  1  0.119911  0.907953  0.381334  1.0
  Cu  Cu208  1  0.261423  0.473381  0.381334  1.0
  Cu  Cu209  1  0.643384  0.911146  0.715202  1.0
  Cu  Cu210  1  0.071818  0.804056  0.715202  1.0
  Cu  Cu211  1  0.911146  0.071818  0.715202  1.0
  Cu  Cu212  1  0.804056  0.643384  0.715202  1.0
  Cu  Cu213  1  0.356616  0.088854  0.284798  1.0
  Cu  Cu214  1  0.928182  0.195944  0.284798  1.0
  Cu  Cu215  1  0.088854  0.928182  0.284798  1.0
  Cu  Cu216  1  0.195944  0.356616  0.284798  1.0
  H  H217  1  0.370400  0.798000  0.709800  1.0
  H  H218  1  0.339400  0.911800  0.709800  1.0
  H  H219  1  0.798000  0.339400  0.709800  1.0
  H  H220  1  0.911800  0.370400  0.709800  1.0
  H  H221  1  0.629600  0.202000  0.290200  1.0
  H  H222  1  0.660600  0.088200  0.290200  1.0
  H  H223  1  0.202000  0.660600  0.290200  1.0
  H  H224  1  0.088200  0.629600  0.290200  1.0
  H  H225  1  0.495700  0.209200  0.781400  1.0
  H  H226  1  0.285700  0.572200  0.781400  1.0
  H  H227  1  0.209200  0.285700  0.781400  1.0
  H  H228  1  0.572200  0.495700  0.781400  1.0
  H  H229  1  0.504300  0.790800  0.218600  1.0
  H  H230  1  0.714300  0.427800  0.218600  1.0
  H  H231  1  0.790800  0.714300  0.218600  1.0
  H  H232  1  0.427800  0.504300  0.218600  1.0
  H  H233  1  0.456100  0.589200  0.396200  1.0
  H  H234  1  0.940100  0.807000  0.396200  1.0
  H  H235  1  0.589200  0.940100  0.396200  1.0
  H  H236  1  0.807000  0.456100  0.396200  1.0
  H  H237  1  0.543900  0.410800  0.603800  1.0
  H  H238  1  0.059900  0.193000  0.603800  1.0
  H  H239  1  0.410800  0.059900  0.603800  1.0
  H  H240  1  0.193000  0.543900  0.603800  1.0
  H  H241  1  0.440000  0.835600  0.702200  1.0
  H  H242  1  0.262200  0.866600  0.702200  1.0
  H  H243  1  0.835600  0.262200  0.702200  1.0
  H  H244  1  0.866600  0.440000  0.702200  1.0
  H  H245  1  0.560000  0.164400  0.297800  1.0
  H  H246  1  0.737800  0.133400  0.297800  1.0
  H  H247  1  0.164400  0.737800  0.297800  1.0
  H  H248  1  0.133400  0.560000  0.297800  1.0
  H  H249  1  0.484200  0.798900  0.846000  1.0
  H  H250  1  0.361800  0.047100  0.846000  1.0
  H  H251  1  0.798900  0.361800  0.846000  1.0
  H  H252  1  0.047100  0.484200  0.846000  1.0
  H  H253  1  0.515800  0.201100  0.154000  1.0
  H  H254  1  0.638200  0.952900  0.154000  1.0
  H  H255  1  0.201100  0.638200  0.154000  1.0
  H  H256  1  0.952900  0.515800  0.154000  1.0
  H  H257  1  0.619200  0.865700  0.838200  1.0
  H  H258  1  0.219000  0.972500  0.838200  1.0
  H  H259  1  0.865700  0.219000  0.838200  1.0
  H  H260  1  0.972500  0.619200  0.838200  1.0
  H  H261  1  0.380800  0.134300  0.161800  1.0
  H  H262  1  0.781000  0.027500  0.161800  1.0
  H  H263  1  0.134300  0.781000  0.161800  1.0
  H  H264  1  0.027500  0.380800  0.161800  1.0
  H  H265  1  0.496100  0.060500  0.706800  1.0
  H  H266  1  0.210700  0.646300  0.706800  1.0
  H  H267  1  0.060500  0.210700  0.706800  1.0
  H  H268  1  0.646300  0.496100  0.706800  1.0
  H  H269  1  0.503900  0.939500  0.293200  1.0
  H  H270  1  0.789300  0.353700  0.293200  1.0
  H  H271  1  0.939500  0.789300  0.293200  1.0
  H  H272  1  0.353700  0.503900  0.293200  1.0
  H  H273  1  0.597600  0.240400  0.852600  1.0
  H  H274  1  0.255000  0.612200  0.852600  1.0
  H  H275  1  0.240400  0.255000  0.852600  1.0
  H  H276  1  0.612200  0.597600  0.852600  1.0
  H  H277  1  0.402400  0.759600  0.147400  1.0
  H  H278  1  0.745000  0.387800  0.147400  1.0
  H  H279  1  0.759600  0.745000  0.147400  1.0
  H  H280  1  0.387800  0.402400  0.147400  1.0
  H  H281  1  0.682900  0.107200  0.833800  1.0
  H  H282  1  0.150900  0.726600  0.833800  1.0
  H  H283  1  0.107200  0.150900  0.833800  1.0
  H  H284  1  0.726600  0.682900  0.833800  1.0
  H  H285  1  0.317100  0.892800  0.166200  1.0
  H  H286  1  0.849100  0.273400  0.166200  1.0
  H  H287  1  0.892800  0.849100  0.166200  1.0
  H  H288  1  0.273400  0.317100  0.166200  1.0
  H  H289  1  0.496900  0.685500  0.484000  1.0
  H  H290  1  0.987100  0.798500  0.484000  1.0
  H  H291  1  0.685500  0.987100  0.484000  1.0
  H  H292  1  0.798500  0.496900  0.484000  1.0
  H  H293  1  0.503100  0.314500  0.516000  1.0
  H  H294  1  0.012900  0.201500  0.516000  1.0
  H  H295  1  0.314500  0.012900  0.516000  1.0
  H  H296  1  0.201500  0.503100  0.516000  1.0
  H  H297  1  0.582500  0.553700  0.481800  1.0
  H  H298  1  0.899300  0.928100  0.481800  1.0
  H  H299  1  0.553700  0.899300  0.481800  1.0
  H  H300  1  0.928100  0.582500  0.481800  1.0
  H  H301  1  0.417500  0.446300  0.518200  1.0
  H  H302  1  0.100700  0.071900  0.518200  1.0
  H  H303  1  0.446300  0.100700  0.518200  1.0
  H  H304  1  0.071900  0.417500  0.518200  1.0
  H  H305  1  0.669800  0.732100  0.645800  1.0
  H  H306  1  0.976000  0.913700  0.645800  1.0
  H  H307  1  0.732100  0.976000  0.645800  1.0
  H  H308  1  0.913700  0.669800  0.645800  1.0
  H  H309  1  0.330200  0.267900  0.354200  1.0
  H  H310  1  0.024000  0.086300  0.354200  1.0
  H  H311  1  0.267900  0.024000  0.354200  1.0
  H  H312  1  0.086300  0.330200  0.354200  1.0
  O  O313  1  0.576060  0.742650  1.000000  1.0
  O  O314  1  0.423940  0.257350  0.000000  1.0
  O  O315  1  0.742650  0.423940  1.000000  1.0
  O  O316  1  0.257350  0.576060  0.000000  1.0
  O  O317  1  0.800660  0.887900  0.000000  1.0
  O  O318  1  0.199340  0.112100  0.000000  1.0
  O  O319  1  0.887900  0.199340  0.000000  1.0
  O  O320  1  0.112100  0.800660  1.000000  1.0
  O  O321  1  0.509810  0.865080  0.675100  1.0
  O  O322  1  0.165290  0.810020  0.675100  1.0
  O  O323  1  0.865080  0.165290  0.675100  1.0
  O  O324  1  0.810020  0.509810  0.675100  1.0
  O  O325  1  0.490190  0.134920  0.324900  1.0
  O  O326  1  0.834710  0.189980  0.324900  1.0
  O  O327  1  0.134920  0.834710  0.324900  1.0
  O  O328  1  0.189980  0.490190  0.324900  1.0
  O  O329  1  0.609200  0.891820  0.757320  1.0
  O  O330  1  0.148120  0.865500  0.757320  1.0
  O  O331  1  0.891820  0.148120  0.757320  1.0
  O  O332  1  0.865500  0.609200  0.757320  1.0
  O  O333  1  0.390800  0.108180  0.242680  1.0
  O  O334  1  0.851880  0.134500  0.242680  1.0
  O  O335  1  0.108180  0.851880  0.242680  1.0
  O  O336  1  0.134500  0.390800  0.242680  1.0
  O  O337  1  0.587720  0.802150  0.929320  1.0
  O  O338  1  0.341600  0.127170  0.929320  1.0
  O  O339  1  0.802150  0.341600  0.929320  1.0
  O  O340  1  0.127170  0.587720  0.929320  1.0
  O  O341  1  0.412280  0.197850  0.070680  1.0
  O  O342  1  0.658400  0.872830  0.070680  1.0
  O  O343  1  0.197850  0.658400  0.070680  1.0
  O  O344  1  0.872830  0.412280  0.070680  1.0
  O  O345  1  0.662070  0.846460  0.929300  1.0
  O  O346  1  0.267230  0.082840  0.929300  1.0
  O  O347  1  0.846460  0.267230  0.929300  1.0
  O  O348  1  0.082840  0.662070  0.929300  1.0
  O  O349  1  0.337930  0.153540  0.070700  1.0
  O  O350  1  0.732770  0.917160  0.070700  1.0
  O  O351  1  0.153540  0.732770  0.070700  1.0
  O  O352  1  0.917160  0.337930  0.070700  1.0
  O  O353  1  0.536130  0.968730  0.674420  1.0
  O  O354  1  0.138290  0.705690  0.674420  1.0
  O  O355  1  0.968730  0.138290  0.674420  1.0
  O  O356  1  0.705690  0.536130  0.674420  1.0
  O  O357  1  0.463870  0.031270  0.325580  1.0
  O  O358  1  0.861710  0.294310  0.325580  1.0
  O  O359  1  0.031270  0.861710  0.325580  1.0
  O  O360  1  0.294310  0.463870  0.325580  1.0
  O  O361  1  0.636150  0.994560  0.756280  1.0
  O  O362  1  0.120130  0.761720  0.756280  1.0
  O  O363  1  0.994560  0.120130  0.756280  1.0
  O  O364  1  0.761720  0.636150  0.756280  1.0
  O  O365  1  0.363850  0.005440  0.243720  1.0
  O  O366  1  0.879870  0.238280  0.243720  1.0
  O  O367  1  0.005440  0.879870  0.243720  1.0
  O  O368  1  0.238280  0.363850  0.243720  1.0
  O  O369  1  0.643990  0.711910  0.929340  1.0
  O  O370  1  0.285350  0.217430  0.929340  1.0
  O  O371  1  0.711910  0.285350  0.929340  1.0
  O  O372  1  0.217430  0.643990  0.929340  1.0
  O  O373  1  0.356010  0.288090  0.070660  1.0
  O  O374  1  0.714650  0.782570  0.070660  1.0
  O  O375  1  0.288090  0.714650  0.070660  1.0
  O  O376  1  0.782570  0.356010  0.070660  1.0
  O  O377  1  0.718080  0.756980  0.929260  1.0
  O  O378  1  0.211180  0.172280  0.929260  1.0
  O  O379  1  0.756980  0.211180  0.929260  1.0
  O  O380  1  0.172280  0.718080  0.929260  1.0
  O  O381  1  0.281920  0.243020  0.070740  1.0
  O  O382  1  0.788820  0.827720  0.070740  1.0
  O  O383  1  0.243020  0.788820  0.070740  1.0
  O  O384  1  0.827720  0.281920  0.070740  1.0
  O  O385  1  0.534460  0.796410  0.577500  1.0
  O  O386  1  0.043040  0.781090  0.577500  1.0
  O  O387  1  0.796410  0.043040  0.577500  1.0
  O  O388  1  0.781090  0.534460  0.577500  1.0
  O  O389  1  0.465540  0.203590  0.422500  1.0
  O  O390  1  0.956960  0.218910  0.422500  1.0
  O  O391  1  0.203590  0.956960  0.422500  1.0
  O  O392  1  0.218910  0.465540  0.422500  1.0
  O  O393  1  0.634310  0.823280  0.659920  1.0
  O  O394  1  0.025610  0.836640  0.659920  1.0
  O  O395  1  0.823280  0.025610  0.659920  1.0
  O  O396  1  0.836640  0.634310  0.659920  1.0
  O  O397  1  0.365690  0.176720  0.340080  1.0
  O  O398  1  0.974390  0.163360  0.340080  1.0
  O  O399  1  0.176720  0.974390  0.340080  1.0
  O  O400  1  0.163360  0.365690  0.340080  1.0
  O  O401  1  0.563230  0.899020  0.577360  1.0
  O  O402  1  0.014130  0.678340  0.577360  1.0
  O  O403  1  0.899020  0.014130  0.577360  1.0
  O  O404  1  0.678340  0.563230  0.577360  1.0
  O  O405  1  0.436770  0.100980  0.422640  1.0
  O  O406  1  0.985870  0.321660  0.422640  1.0
  O  O407  1  0.100980  0.985870  0.422640  1.0
  O  O408  1  0.321660  0.436770  0.422640  1.0
  O  O409  1  0.662190  0.926910  0.660480  1.0
  O  O410  1  0.998290  0.733570  0.660480  1.0
  O  O411  1  0.926910  0.998290  0.660480  1.0
  O  O412  1  0.733570  0.662190  0.660480  1.0
  O  O413  1  0.337810  0.073090  0.339520  1.0
  O  O414  1  0.001710  0.266430  0.339520  1.0
  O  O415  1  0.073090  0.001710  0.339520  1.0
  O  O416  1  0.266430  0.337810  0.339520  1.0
  O  O417  1  0.391070  0.794990  0.743440  1.0
  O  O418  1  0.352370  0.948450  0.743440  1.0
  O  O419  1  0.794990  0.352370  0.743440  1.0
  O  O420  1  0.948450  0.391070  0.743440  1.0
  O  O421  1  0.608930  0.205010  0.256560  1.0
  O  O422  1  0.647630  0.051550  0.256560  1.0
  O  O423  1  0.205010  0.647630  0.256560  1.0
  O  O424  1  0.051550  0.608930  0.256560  1.0
  O  O425  1  0.486480  0.170370  0.757060  1.0
  O  O426  1  0.270580  0.586690  0.757060  1.0
  O  O427  1  0.170370  0.270580  0.757060  1.0
  O  O428  1  0.586690  0.486480  0.757060  1.0
  O  O429  1  0.513520  0.829630  0.242940  1.0
  O  O430  1  0.729420  0.413310  0.242940  1.0
  O  O431  1  0.829630  0.729420  0.242940  1.0
  O  O432  1  0.413310  0.513520  0.242940  1.0
  O  O433  1  0.482030  0.571250  0.408200  1.0
  O  O434  1  0.926170  0.836950  0.408200  1.0
  O  O435  1  0.571250  0.926170  0.408200  1.0
  O  O436  1  0.836950  0.482030  0.408200  1.0
  O  O437  1  0.517970  0.428750  0.591800  1.0
  O  O438  1  0.073830  0.163050  0.591800  1.0
  O  O439  1  0.428750  0.073830  0.591800  1.0
  O  O440  1  0.163050  0.517970  0.591800  1.0
  O  O441  1  0.432580  0.853170  0.536820  1.0
  O  O442  1  0.104240  0.683650  0.536820  1.0
  O  O443  1  0.853170  0.104240  0.536820  1.0
  O  O444  1  0.683650  0.432580  0.536820  1.0
  O  O445  1  0.567420  0.146830  0.463180  1.0
  O  O446  1  0.895760  0.316350  0.463180  1.0
  O  O447  1  0.146830  0.895760  0.463180  1.0
  O  O448  1  0.316350  0.567420  0.463180  1.0
  O  O449  1  0.739250  0.935670  0.795100  1.0
  O  O450  1  0.055850  0.859430  0.795100  1.0
  O  O451  1  0.935670  0.055850  0.795100  1.0
  O  O452  1  0.859430  0.739250  0.795100  1.0
  O  O453  1  0.260750  0.064330  0.204900  1.0
  O  O454  1  0.944150  0.140570  0.204900  1.0
  O  O455  1  0.064330  0.944150  0.204900  1.0
  O  O456  1  0.140570  0.260750  0.204900  1.0
