# generated using pymatgen
data_CuH3C8SO11
_symmetry_space_group_name_H-M   'P 1'
_cell_length_a   29.04400000
_cell_length_b   29.04400000
_cell_length_c   29.27313731
_cell_angle_alpha   119.74140237
_cell_angle_beta   119.74140237
_cell_angle_gamma   90.00000000
_symmetry_Int_Tables_number   1
_chemical_formula_structural   CuH3C8SO11
_chemical_formula_sum   'Cu24 H72 C192 S24 O264'
_cell_volume   17596.53510496
_cell_formula_units_Z   24
loop_
 _symmetry_equiv_pos_site_id
 _symmetry_equiv_pos_as_xyz
  1  'x, y, z'
loop_
 _atom_site_type_symbol
 _atom_site_label
 _atom_site_symmetry_multiplicity
 _atom_site_fract_x
 _atom_site_fract_y
 _atom_site_fract_z
 _atom_site_occupancy
  C  C1  1  0.932090  0.352030  0.086580  1.0
  C  C2  1  0.154490  0.734550  0.086580  1.0
  C  C3  1  0.352030  0.154490  0.086580  1.0
  C  C4  1  0.734550  0.932090  0.086580  1.0
  C  C5  1  0.067910  0.647970  0.913420  1.0
  C  C6  1  0.845510  0.265450  0.913420  1.0
  C  C7  1  0.647970  0.845510  0.913420  1.0
  C  C8  1  0.265450  0.067910  0.913420  1.0
  C  C9  1  0.922620  0.371250  0.138400  1.0
  C  C10  1  0.215780  0.767150  0.138400  1.0
  C  C11  1  0.371250  0.215780  0.138400  1.0
  C  C12  1  0.767150  0.922620  0.138400  1.0
  C  C13  1  0.077380  0.628750  0.861600  1.0
  C  C14  1  0.784220  0.232850  0.861600  1.0
  C  C15  1  0.628750  0.784220  0.861600  1.0
  C  C16  1  0.232850  0.077380  0.861600  1.0
  C  C17  1  0.906210  0.418460  0.158580  1.0
  C  C18  1  0.252370  0.740120  0.158580  1.0
  C  C19  1  0.418460  0.252370  0.158580  1.0
  C  C20  1  0.740120  0.906210  0.158580  1.0
  C  C21  1  0.093790  0.581540  0.841420  1.0
  C  C22  1  0.747630  0.259880  0.841420  1.0
  C  C23  1  0.581540  0.747630  0.841420  1.0
  C  C24  1  0.259880  0.093790  0.841420  1.0
  C  C25  1  0.901540  0.438940  0.209740  1.0
  C  C26  1  0.308200  0.770800  0.209740  1.0
  C  C27  1  0.438940  0.308200  0.209740  1.0
  C  C28  1  0.770800  0.901540  0.209740  1.0
  C  C29  1  0.098460  0.561060  0.790260  1.0
  C  C30  1  0.691800  0.229200  0.790260  1.0
  C  C31  1  0.561060  0.691800  0.790260  1.0
  C  C32  1  0.229200  0.098460  0.790260  1.0
  C  C33  1  0.913260  0.412190  0.240680  1.0
  C  C34  1  0.327420  0.828490  0.240680  1.0
  C  C35  1  0.412190  0.327420  0.240680  1.0
  C  C36  1  0.828490  0.913260  0.240680  1.0
  C  C37  1  0.086740  0.587810  0.759320  1.0
  C  C38  1  0.672580  0.171510  0.759320  1.0
  C  C39  1  0.587810  0.672580  0.759320  1.0
  C  C40  1  0.171510  0.086740  0.759320  1.0
  C  C41  1  0.929670  0.364980  0.220500  1.0
  C  C42  1  0.290830  0.855520  0.220500  1.0
  C  C43  1  0.364980  0.290830  0.220500  1.0
  C  C44  1  0.855520  0.929670  0.220500  1.0
  C  C45  1  0.070330  0.635020  0.779500  1.0
  C  C46  1  0.709170  0.144480  0.779500  1.0
  C  C47  1  0.635020  0.709170  0.779500  1.0
  C  C48  1  0.144480  0.070330  0.779500  1.0
  C  C49  1  0.934340  0.344500  0.169340  1.0
  C  C50  1  0.235000  0.824840  0.169340  1.0
  C  C51  1  0.344500  0.235000  0.169340  1.0
  C  C52  1  0.824840  0.934340  0.169340  1.0
  C  C53  1  0.065660  0.655500  0.830660  1.0
  C  C54  1  0.765000  0.175160  0.830660  1.0
  C  C55  1  0.655500  0.765000  0.830660  1.0
  C  C56  1  0.175160  0.065660  0.830660  1.0
  C  C57  1  0.944970  0.337430  0.255320  1.0
  C  C58  1  0.310350  0.917890  0.255320  1.0
  C  C59  1  0.337430  0.310350  0.255320  1.0
  C  C60  1  0.917890  0.944970  0.255320  1.0
  C  C61  1  0.055030  0.662570  0.744680  1.0
  C  C62  1  0.689650  0.082110  0.744680  1.0
  C  C63  1  0.662570  0.689650  0.744680  1.0
  C  C64  1  0.082110  0.055030  0.744680  1.0
  C  C65  1  0.963470  0.281650  0.912980  1.0
  C  C66  1  0.949510  0.631330  0.912980  1.0
  C  C67  1  0.281650  0.949510  0.912980  1.0
  C  C68  1  0.631330  0.963470  0.912980  1.0
  C  C69  1  0.036530  0.718350  0.087020  1.0
  C  C70  1  0.050490  0.368670  0.087020  1.0
  C  C71  1  0.718350  0.050490  0.087020  1.0
  C  C72  1  0.368670  0.036530  0.087020  1.0
  C  C73  1  0.971080  0.259680  0.859660  1.0
  C  C74  1  0.888580  0.599980  0.859660  1.0
  C  C75  1  0.259680  0.888580  0.859660  1.0
  C  C76  1  0.599980  0.971080  0.859660  1.0
  C  C77  1  0.028920  0.740320  0.140340  1.0
  C  C78  1  0.111420  0.400020  0.140340  1.0
  C  C79  1  0.740320  0.111420  0.140340  1.0
  C  C80  1  0.400020  0.028920  0.140340  1.0
  C  C81  1  0.968610  0.290900  0.835220  1.0
  C  C82  1  0.866610  0.544320  0.835220  1.0
  C  C83  1  0.290900  0.866610  0.835220  1.0
  C  C84  1  0.544320  0.968610  0.835220  1.0
  C  C85  1  0.031390  0.709100  0.164780  1.0
  C  C86  1  0.133390  0.455680  0.164780  1.0
  C  C87  1  0.709100  0.133390  0.164780  1.0
  C  C88  1  0.455680  0.031390  0.164780  1.0
  C  C89  1  0.971970  0.269440  0.783060  1.0
  C  C90  1  0.811090  0.513620  0.783060  1.0
  C  C91  1  0.269440  0.811090  0.783060  1.0
  C  C92  1  0.513620  0.971970  0.783060  1.0
  C  C93  1  0.028030  0.730560  0.216940  1.0
  C  C94  1  0.188910  0.486380  0.216940  1.0
  C  C95  1  0.730560  0.188910  0.216940  1.0
  C  C96  1  0.486380  0.028030  0.216940  1.0
  C  C97  1  0.977800  0.216760  0.755360  1.0
  C  C98  1  0.777560  0.538600  0.755360  1.0
  C  C99  1  0.216760  0.777560  0.755360  1.0
  C  C100  1  0.538600  0.977800  0.755360  1.0
  C  C101  1  0.022200  0.783240  0.244640  1.0
  C  C102  1  0.222440  0.461400  0.244640  1.0
  C  C103  1  0.783240  0.222440  0.244640  1.0
  C  C104  1  0.461400  0.022200  0.244640  1.0
  C  C105  1  0.980280  0.185550  0.779820  1.0
  C  C106  1  0.799540  0.594270  0.779820  1.0
  C  C107  1  0.185550  0.799540  0.779820  1.0
  C  C108  1  0.594270  0.980280  0.779820  1.0
  C  C109  1  0.019720  0.814450  0.220180  1.0
  C  C110  1  0.200460  0.405730  0.220180  1.0
  C  C111  1  0.814450  0.200460  0.220180  1.0
  C  C112  1  0.405730  0.019720  0.220180  1.0
  C  C113  1  0.976910  0.207010  0.831960  1.0
  C  C114  1  0.855050  0.624950  0.831960  1.0
  C  C115  1  0.207010  0.855050  0.831960  1.0
  C  C116  1  0.624950  0.976910  0.831960  1.0
  C  C117  1  0.023090  0.792990  0.168040  1.0
  C  C118  1  0.144950  0.375050  0.168040  1.0
  C  C119  1  0.792990  0.144950  0.168040  1.0
  C  C120  1  0.375050  0.023090  0.168040  1.0
  C  C121  1  0.981360  0.126600  0.745860  1.0
  C  C122  1  0.764500  0.619260  0.745860  1.0
  C  C123  1  0.126600  0.764500  0.745860  1.0
  C  C124  1  0.619260  0.981360  0.745860  1.0
  C  C125  1  0.018640  0.873400  0.254140  1.0
  C  C126  1  0.235500  0.380740  0.254140  1.0
  C  C127  1  0.873400  0.235500  0.254140  1.0
  C  C128  1  0.380740  0.018640  0.254140  1.0
  C  C129  1  0.073480  0.342640  0.370560  1.0
  C  C130  1  0.297080  0.027920  0.370560  1.0
  C  C131  1  0.342640  0.297080  0.370560  1.0
  C  C132  1  0.027920  0.073480  0.370560  1.0
  C  C133  1  0.926520  0.657360  0.629440  1.0
  C  C134  1  0.702920  0.972080  0.629440  1.0
  C  C135  1  0.657360  0.702920  0.629440  1.0
  C  C136  1  0.972080  0.926520  0.629440  1.0
  C  C137  1  0.132950  0.374520  0.404040  1.0
  C  C138  1  0.271090  0.029520  0.404040  1.0
  C  C139  1  0.374520  0.271090  0.404040  1.0
  C  C140  1  0.029520  0.132950  0.404040  1.0
  C  C141  1  0.867050  0.625480  0.595960  1.0
  C  C142  1  0.728910  0.970480  0.595960  1.0
  C  C143  1  0.625480  0.728910  0.595960  1.0
  C  C144  1  0.970480  0.867050  0.595960  1.0
  C  C145  1  0.159660  0.424580  0.464480  1.0
  C  C146  1  0.304820  0.039900  0.464480  1.0
  C  C147  1  0.424580  0.304820  0.464480  1.0
  C  C148  1  0.039900  0.159660  0.464480  1.0
  C  C149  1  0.840340  0.575420  0.535520  1.0
  C  C150  1  0.695180  0.960100  0.535520  1.0
  C  C151  1  0.575420  0.695180  0.535520  1.0
  C  C152  1  0.960100  0.840340  0.535520  1.0
  C  C153  1  0.213820  0.456840  0.494680  1.0
  C  C154  1  0.280860  0.037840  0.494680  1.0
  C  C155  1  0.456840  0.280860  0.494680  1.0
  C  C156  1  0.037840  0.213820  0.494680  1.0
  C  C157  1  0.786180  0.543160  0.505320  1.0
  C  C158  1  0.719140  0.962160  0.505320  1.0
  C  C159  1  0.543160  0.719140  0.505320  1.0
  C  C160  1  0.962160  0.786180  0.505320  1.0
  C  C161  1  0.241260  0.439050  0.464440  1.0
  C  C162  1  0.223180  0.025390  0.464440  1.0
  C  C163  1  0.439050  0.223180  0.464440  1.0
  C  C164  1  0.025390  0.241260  0.464440  1.0
  C  C165  1  0.758740  0.560950  0.535560  1.0
  C  C166  1  0.776820  0.974610  0.535560  1.0
  C  C167  1  0.560950  0.776820  0.535560  1.0
  C  C168  1  0.974610  0.758740  0.535560  1.0
  C  C169  1  0.214550  0.388990  0.404000  1.0
  C  C170  1  0.189450  0.015010  0.404000  1.0
  C  C171  1  0.388990  0.189450  0.404000  1.0
  C  C172  1  0.015010  0.214550  0.404000  1.0
  C  C173  1  0.785450  0.611010  0.596000  1.0
  C  C174  1  0.810550  0.984990  0.596000  1.0
  C  C175  1  0.611010  0.810550  0.596000  1.0
  C  C176  1  0.984990  0.785450  0.596000  1.0
  C  C177  1  0.160390  0.356720  0.373800  1.0
  C  C178  1  0.213410  0.017080  0.373800  1.0
  C  C179  1  0.356720  0.213410  0.373800  1.0
  C  C180  1  0.017080  0.160390  0.373800  1.0
  C  C181  1  0.839610  0.643280  0.626200  1.0
  C  C182  1  0.786590  0.982920  0.626200  1.0
  C  C183  1  0.643280  0.786590  0.626200  1.0
  C  C184  1  0.982920  0.839610  0.626200  1.0
  C  C185  1  0.243720  0.369820  0.370060  1.0
  C  C186  1  0.126340  0.000240  0.370060  1.0
  C  C187  1  0.369820  0.126340  0.370060  1.0
  C  C188  1  0.000240  0.243720  0.370060  1.0
  C  C189  1  0.756280  0.630180  0.629940  1.0
  C  C190  1  0.873660  0.999760  0.629940  1.0
  C  C191  1  0.630180  0.873660  0.629940  1.0
  C  C192  1  0.999760  0.756280  0.629940  1.0
  Cu  Cu193  1  0.941370  0.361960  1.000000  1.0
  Cu  Cu194  1  0.058630  0.638040  1.000000  1.0
  Cu  Cu195  1  0.361960  0.058630  0.000000  1.0
  Cu  Cu196  1  0.638040  0.941370  1.000000  1.0
  Cu  Cu197  1  0.955070  0.271890  0.000000  1.0
  Cu  Cu198  1  0.044930  0.728110  0.000000  1.0
  Cu  Cu199  1  0.271890  0.044930  0.000000  1.0
  Cu  Cu200  1  0.728110  0.955070  1.000000  1.0
  Cu  Cu201  1  0.969863  0.332023  0.358686  1.0
  Cu  Cu202  1  0.388823  0.026663  0.358686  1.0
  Cu  Cu203  1  0.332023  0.388823  0.358686  1.0
  Cu  Cu204  1  0.026663  0.969863  0.358686  1.0
  Cu  Cu205  1  0.030137  0.667977  0.641314  1.0
  Cu  Cu206  1  0.611177  0.973337  0.641314  1.0
  Cu  Cu207  1  0.667977  0.611177  0.641314  1.0
  Cu  Cu208  1  0.973337  0.030137  0.641314  1.0
  Cu  Cu209  1  0.976003  0.249003  0.267146  1.0
  Cu  Cu210  1  0.291143  0.018143  0.267146  1.0
  Cu  Cu211  1  0.249003  0.291143  0.267146  1.0
  Cu  Cu212  1  0.018143  0.976003  0.267146  1.0
  Cu  Cu213  1  0.023997  0.750997  0.732854  1.0
  Cu  Cu214  1  0.708857  0.981857  0.732854  1.0
  Cu  Cu215  1  0.750997  0.708857  0.732854  1.0
  Cu  Cu216  1  0.981857  0.023997  0.732854  1.0
  H  H217  1  0.898200  0.436700  0.137400  1.0
  H  H218  1  0.239200  0.700700  0.137400  1.0
  H  H219  1  0.436700  0.239200  0.137400  1.0
  H  H220  1  0.700700  0.898200  0.137400  1.0
  H  H221  1  0.101800  0.563300  0.862600  1.0
  H  H222  1  0.760800  0.299300  0.862600  1.0
  H  H223  1  0.563300  0.760800  0.862600  1.0
  H  H224  1  0.299300  0.101800  0.862600  1.0
  H  H225  1  0.910000  0.426200  0.275600  1.0
  H  H226  1  0.365600  0.849400  0.275600  1.0
  H  H227  1  0.426200  0.365600  0.275600  1.0
  H  H228  1  0.849400  0.910000  0.275600  1.0
  H  H229  1  0.090000  0.573800  0.724400  1.0
  H  H230  1  0.634400  0.150600  0.724400  1.0
  H  H231  1  0.573800  0.634400  0.724400  1.0
  H  H232  1  0.150600  0.090000  0.724400  1.0
  H  H233  1  0.945600  0.312300  0.155600  1.0
  H  H234  1  0.210000  0.843300  0.155600  1.0
  H  H235  1  0.312300  0.210000  0.155600  1.0
  H  H236  1  0.843300  0.945600  0.155600  1.0
  H  H237  1  0.054400  0.687700  0.844400  1.0
  H  H238  1  0.790000  0.156700  0.844400  1.0
  H  H239  1  0.687700  0.790000  0.844400  1.0
  H  H240  1  0.156700  0.054400  0.844400  1.0
  H  H241  1  0.964600  0.326900  0.854200  1.0
  H  H242  1  0.889600  0.527300  0.854200  1.0
  H  H243  1  0.326900  0.889600  0.854200  1.0
  H  H244  1  0.527300  0.964600  0.854200  1.0
  H  H245  1  0.035400  0.673100  0.145800  1.0
  H  H246  1  0.110400  0.472700  0.145800  1.0
  H  H247  1  0.673100  0.110400  0.145800  1.0
  H  H248  1  0.472700  0.035400  0.145800  1.0
  H  H249  1  0.980100  0.202100  0.719800  1.0
  H  H250  1  0.739700  0.517700  0.719800  1.0
  H  H251  1  0.202100  0.739700  0.719800  1.0
  H  H252  1  0.517700  0.980100  0.719800  1.0
  H  H253  1  0.019900  0.797900  0.280200  1.0
  H  H254  1  0.260300  0.482300  0.280200  1.0
  H  H255  1  0.797900  0.260300  0.280200  1.0
  H  H256  1  0.482300  0.019900  0.280200  1.0
  H  H257  1  0.978600  0.185600  0.848600  1.0
  H  H258  1  0.870000  0.663000  0.848600  1.0
  H  H259  1  0.185600  0.870000  0.848600  1.0
  H  H260  1  0.663000  0.978600  0.848600  1.0
  H  H261  1  0.021400  0.814400  0.151400  1.0
  H  H262  1  0.130000  0.337000  0.151400  1.0
  H  H263  1  0.814400  0.130000  0.151400  1.0
  H  H264  1  0.337000  0.021400  0.151400  1.0
  H  H265  1  0.140900  0.436800  0.485200  1.0
  H  H266  1  0.344300  0.048400  0.485200  1.0
  H  H267  1  0.436800  0.344300  0.485200  1.0
  H  H268  1  0.048400  0.140900  0.485200  1.0
  H  H269  1  0.859100  0.563200  0.514800  1.0
  H  H270  1  0.655700  0.951600  0.514800  1.0
  H  H271  1  0.563200  0.655700  0.514800  1.0
  H  H272  1  0.951600  0.859100  0.514800  1.0
  H  H273  1  0.278200  0.461100  0.485000  1.0
  H  H274  1  0.206800  0.023900  0.485000  1.0
  H  H275  1  0.461100  0.206800  0.485000  1.0
  H  H276  1  0.023900  0.278200  0.485000  1.0
  H  H277  1  0.721800  0.538900  0.515000  1.0
  H  H278  1  0.793200  0.976100  0.515000  1.0
  H  H279  1  0.538900  0.793200  0.515000  1.0
  H  H280  1  0.976100  0.721800  0.515000  1.0
  H  H281  1  0.142100  0.322500  0.332400  1.0
  H  H282  1  0.190300  0.009900  0.332400  1.0
  H  H283  1  0.322500  0.190300  0.332400  1.0
  H  H284  1  0.009900  0.142100  0.332400  1.0
  H  H285  1  0.857900  0.677500  0.667600  1.0
  H  H286  1  0.809700  0.990100  0.667600  1.0
  H  H287  1  0.677500  0.809700  0.667600  1.0
  H  H288  1  0.990100  0.857900  0.667600  1.0
  O  O289  1  0.822100  0.481440  0.179740  1
  O  O290  1  0.357640  0.698300  0.179740  1
  O  O291  1  0.481440  0.357640  0.179740  1
  O  O292  1  0.698300  0.822100  0.179740  1
  O  O293  1  0.177900  0.518560  0.820260  1
  O  O294  1  0.642360  0.301700  0.820260  1
  O  O295  1  0.518560  0.642360  0.820260  1
  O  O296  1  0.301700  0.177900  0.820260  1
  O  O297  1  0.918290  0.543340  0.250860  1
  O  O298  1  0.332570  0.707520  0.250860  1
  O  O299  1  0.543340  0.332570  0.250860  1
  O  O300  1  0.707520  0.918290  0.250860  1
  O  O301  1  0.081710  0.456660  0.749140  1
  O  O302  1  0.667430  0.292480  0.749140  1
  O  O303  1  0.456660  0.667430  0.749140  1
  O  O304  1  0.292480  0.081710  0.749140  1
  O  O305  1  0.880140  0.508710  0.289480  1
  O  O306  1  0.409340  0.780770  0.289480  1
  O  O307  1  0.508710  0.409340  0.289480  1
  O  O308  1  0.780770  0.880140  0.289480  1
  O  O309  1  0.119860  0.491290  0.710520  1
  O  O310  1  0.590660  0.219230  0.710520  1
  O  O311  1  0.491290  0.590660  0.710520  1
  O  O312  1  0.219230  0.119860  0.710520  1
  O  O313  1  0.021930  0.328600  0.767600  1
  O  O314  1  0.745670  0.439000  0.767600  1
  O  O315  1  0.328600  0.745670  0.767600  1
  O  O316  1  0.439000  0.021930  0.767600  1
  O  O317  1  0.978070  0.671400  0.232400  1
  O  O318  1  0.254330  0.561000  0.232400  1
  O  O319  1  0.671400  0.254330  0.232400  1
  O  O320  1  0.561000  0.978070  0.232400  1
  O  O321  1  0.924620  0.270690  0.682240  1
  O  O322  1  0.757620  0.411550  0.682240  1
  O  O323  1  0.270690  0.757620  0.682240  1
  O  O324  1  0.411550  0.924620  0.682240  1
  O  O325  1  0.075380  0.729310  0.317760  1
  O  O326  1  0.242380  0.588450  0.317760  1
  O  O327  1  0.729310  0.242380  0.317760  1
  O  O328  1  0.588450  0.075380  0.317760  1
  O  O329  1  0.948500  0.354900  0.782000  1
  O  O330  1  0.833500  0.427100  0.782000  1
  O  O331  1  0.354900  0.833500  0.782000  1
  O  O332  1  0.427100  0.948500  0.782000  1
  O  O333  1  0.051500  0.645100  0.218000  1
  O  O334  1  0.166500  0.572900  0.218000  1
  O  O335  1  0.645100  0.166500  0.218000  1
  O  O336  1  0.572900  0.051500  0.218000  1
  O  O337  1  0.209510  0.555910  0.558620  1
  O  O338  1  0.349110  0.002710  0.558620  1
  O  O339  1  0.555910  0.349110  0.558620  1
  O  O340  1  0.002710  0.209510  0.558620  1
  O  O341  1  0.790490  0.444090  0.441380  1
  O  O342  1  0.650890  0.997290  0.441380  1
  O  O343  1  0.444090  0.650890  0.441380  1
  O  O344  1  0.997290  0.790490  0.441380  1
  O  O345  1  0.300840  0.546240  0.585280  1
  O  O346  1  0.284440  0.039040  0.585280  1
  O  O347  1  0.546240  0.284440  0.585280  1
  O  O348  1  0.039040  0.300840  0.585280  1
  O  O349  1  0.699160  0.453760  0.414720  1
  O  O350  1  0.715560  0.960960  0.414720  1
  O  O351  1  0.453760  0.715560  0.414720  1
  O  O352  1  0.960960  0.699160  0.414720  1
  O  O353  1  0.251080  0.511780  0.614360  1
  O  O354  1  0.363280  0.102580  0.614360  1
  O  O355  1  0.511780  0.363280  0.614360  1
  O  O356  1  0.102580  0.251080  0.614360  1
  O  O357  1  0.748920  0.488220  0.385640  1
  O  O358  1  0.636720  0.897420  0.385640  1
  O  O359  1  0.488220  0.636720  0.385640  1
  O  O360  1  0.897420  0.748920  0.385640  1
  O  O361  1  0.932660  0.435540  1.000000  1.0
  O  O362  1  0.067340  0.564460  1.000000  1.0
  O  O363  1  0.435540  0.067340  0.000000  1.0
  O  O364  1  0.564460  0.932660  1.000000  1.0
  O  O365  1  0.965500  0.198460  1.000000  1.0
  O  O366  1  0.034500  0.801540  0.000000  1.0
  O  O367  1  0.198460  0.034500  0.000000  1.0
  O  O368  1  0.801540  0.965500  0.000000  1.0
  O  O369  1  0.929200  0.382760  0.067020  1.0
  O  O370  1  0.137820  0.684260  0.067020  1.0
  O  O371  1  0.382760  0.137820  0.067020  1.0
  O  O372  1  0.684260  0.929200  0.067020  1.0
  O  O373  1  0.070800  0.617240  0.932980  1.0
  O  O374  1  0.862180  0.315740  0.932980  1.0
  O  O375  1  0.617240  0.862180  0.932980  1.0
  O  O376  1  0.315740  0.070800  0.932980  1.0
  O  O377  1  0.940760  0.306190  0.066660  1.0
  O  O378  1  0.125900  0.760470  0.066660  1.0
  O  O379  1  0.306190  0.125900  0.066660  1.0
  O  O380  1  0.760470  0.940760  0.066660  1.0
  O  O381  1  0.059240  0.693810  0.933340  1.0
  O  O382  1  0.874100  0.239530  0.933340  1.0
  O  O383  1  0.693810  0.874100  0.933340  1.0
  O  O384  1  0.239530  0.059240  0.933340  1.0
  O  O385  1  0.945690  0.360410  0.305360  1.0
  O  O386  1  0.359670  0.944950  0.305360  1.0
  O  O387  1  0.360410  0.359670  0.305360  1.0
  O  O388  1  0.944950  0.945690  0.305360  1.0
  O  O389  1  0.054310  0.639590  0.694640  1.0
  O  O390  1  0.640330  0.055050  0.694640  1.0
  O  O391  1  0.639590  0.640330  0.694640  1.0
  O  O392  1  0.055050  0.054310  0.694640  1.0
  O  O393  1  0.954910  0.292760  0.230640  1.0
  O  O394  1  0.275730  0.937880  0.230640  1.0
  O  O395  1  0.292760  0.275730  0.230640  1.0
  O  O396  1  0.937880  0.954910  0.230640  1.0
  O  O397  1  0.045090  0.707240  0.769360  1.0
  O  O398  1  0.724270  0.062120  0.769360  1.0
  O  O399  1  0.707240  0.724270  0.769360  1.0
  O  O400  1  0.062120  0.045090  0.769360  1.0
  O  O401  1  0.955400  0.328390  0.933560  1.0
  O  O402  1  0.978160  0.605170  0.933560  1.0
  O  O403  1  0.328390  0.978160  0.933560  1.0
  O  O404  1  0.605170  0.955400  0.933560  1.0
  O  O405  1  0.044600  0.671610  0.066440  1.0
  O  O406  1  0.021840  0.394830  0.066440  1.0
  O  O407  1  0.671610  0.021840  0.066440  1.0
  O  O408  1  0.394830  0.044600  0.066440  1.0
  O  O409  1  0.968010  0.251750  0.933800  1.0
  O  O410  1  0.965790  0.682050  0.933800  1.0
  O  O411  1  0.251750  0.965790  0.933800  1.0
  O  O412  1  0.682050  0.968010  0.933800  1.0
  O  O413  1  0.031990  0.748250  0.066200  1.0
  O  O414  1  0.034210  0.317950  0.066200  1.0
  O  O415  1  0.748250  0.034210  0.066200  1.0
  O  O416  1  0.317950  0.031990  0.066200  1.0
  O  O417  1  0.977380  0.107410  0.693760  1.0
  O  O418  1  0.716380  0.586350  0.693760  1.0
  O  O419  1  0.107410  0.716380  0.693760  1.0
  O  O420  1  0.586350  0.977380  0.693760  1.0
  O  O421  1  0.022620  0.892590  0.306240  1.0
  O  O422  1  0.283620  0.413650  0.306240  1.0
  O  O423  1  0.892590  0.283620  0.306240  1.0
  O  O424  1  0.413650  0.022620  0.306240  1.0
  O  O425  1  0.987320  0.102610  0.772880  1.0
  O  O426  1  0.785560  0.670270  0.772880  1.0
  O  O427  1  0.102610  0.785560  0.772880  1.0
  O  O428  1  0.670270  0.987320  0.772880  1.0
  O  O429  1  0.012680  0.897390  0.227120  1.0
  O  O430  1  0.214440  0.329730  0.227120  1.0
  O  O431  1  0.897390  0.214440  0.227120  1.0
  O  O432  1  0.329730  0.012680  0.227120  1.0
  O  O433  1  0.048350  0.366980  0.396480  1.0
  O  O434  1  0.348130  0.029500  0.396480  1.0
  O  O435  1  0.366980  0.348130  0.396480  1.0
  O  O436  1  0.029500  0.048350  0.396480  1.0
  O  O437  1  0.951650  0.633020  0.603520  1.0
  O  O438  1  0.651870  0.970500  0.603520  1.0
  O  O439  1  0.633020  0.651870  0.603520  1.0
  O  O440  1  0.970500  0.951650  0.603520  1.0
  O  O441  1  0.053990  0.295240  0.320440  1.0
  O  O442  1  0.266450  0.025200  0.320440  1.0
  O  O443  1  0.295240  0.266450  0.320440  1.0
  O  O444  1  0.025200  0.053990  0.320440  1.0
  O  O445  1  0.946010  0.704760  0.679560  1.0
  O  O446  1  0.733550  0.974800  0.679560  1.0
  O  O447  1  0.704760  0.733550  0.679560  1.0
  O  O448  1  0.974800  0.946010  0.679560  1.0
  O  O449  1  0.290610  0.403180  0.397920  1.0
  O  O450  1  0.107310  0.994740  0.397920  1.0
  O  O451  1  0.403180  0.107310  0.397920  1.0
  O  O452  1  0.994740  0.290610  0.397920  1.0
  O  O453  1  0.709390  0.596820  0.602080  1.0
  O  O454  1  0.892690  0.005260  0.602080  1.0
  O  O455  1  0.596820  0.892690  0.602080  1.0
  O  O456  1  0.005260  0.709390  0.602080  1.0
  O  O457  1  0.218860  0.322340  0.319160  1.0
  O  O458  1  0.100300  0.996820  0.319160  1.0
  O  O459  1  0.322340  0.100300  0.319160  1.0
  O  O460  1  0.996820  0.218860  0.319160  1.0
  O  O461  1  0.781140  0.677660  0.680840  1.0
  O  O462  1  0.899700  0.003180  0.680840  1.0
  O  O463  1  0.677660  0.899700  0.680840  1.0
  O  O464  1  0.003180  0.781140  0.680840  1.0
  O  O465  1  0.913740  0.531840  0.304280  1.0
  O  O466  1  0.390540  0.772440  0.304280  1.0
  O  O467  1  0.531840  0.390540  0.304280  1.0
  O  O468  1  0.772440  0.913740  0.304280  1.0
  O  O469  1  0.086260  0.468160  0.695720  1.0
  O  O470  1  0.609460  0.227560  0.695720  1.0
  O  O471  1  0.468160  0.609460  0.695720  1.0
  O  O472  1  0.227560  0.086260  0.695720  1.0
  O  O473  1  0.819730  0.475240  0.207540  1.0
  O  O474  1  0.387810  0.732300  0.207540  1.0
  O  O475  1  0.475240  0.387810  0.207540  1.0
  O  O476  1  0.732300  0.819730  0.207540  1.0
  O  O477  1  0.180270  0.524760  0.792460  1.0
  O  O478  1  0.612190  0.267700  0.792460  1.0
  O  O479  1  0.524760  0.612190  0.792460  1.0
  O  O480  1  0.267700  0.180270  0.792460  1.0
  O  O481  1  0.886620  0.526090  0.208240  1.0
  O  O482  1  0.321620  0.682150  0.208240  1.0
  O  O483  1  0.526090  0.321620  0.208240  1.0
  O  O484  1  0.682150  0.886620  0.208240  1.0
  O  O485  1  0.113380  0.473910  0.791760  1.0
  O  O486  1  0.678380  0.317850  0.791760  1.0
  O  O487  1  0.473910  0.678380  0.791760  1.0
  O  O488  1  0.317850  0.113380  0.791760  1.0
  O  O489  1  0.916820  0.325750  0.742620  1.0
  O  O490  1  0.825800  0.416870  0.742620  1.0
  O  O491  1  0.325750  0.825800  0.742620  1.0
  O  O492  1  0.416870  0.916820  0.742620  1.0
  O  O493  1  0.083180  0.674250  0.257380  1.0
  O  O494  1  0.174200  0.583130  0.257380  1.0
  O  O495  1  0.674250  0.174200  0.257380  1.0
  O  O496  1  0.583130  0.083180  0.257380  1.0
  O  O497  1  0.017980  0.356770  0.798560  1.0
  O  O498  1  0.780580  0.441790  0.798560  1.0
  O  O499  1  0.356770  0.780580  0.798560  1.0
  O  O500  1  0.441790  0.017980  0.798560  1.0
  O  O501  1  0.982020  0.643230  0.201440  1.0
  O  O502  1  0.219420  0.558210  0.201440  1.0
  O  O503  1  0.643230  0.219420  0.201440  1.0
  O  O504  1  0.558210  0.982020  0.201440  1.0
  O  O505  1  0.960170  0.271710  0.690740  1.0
  O  O506  1  0.730570  0.419030  0.690740  1.0
  O  O507  1  0.271710  0.730570  0.690740  1.0
  O  O508  1  0.419030  0.960170  0.690740  1.0
  O  O509  1  0.039830  0.728290  0.309260  1.0
  O  O510  1  0.269430  0.580970  0.309260  1.0
  O  O511  1  0.728290  0.269430  0.309260  1.0
  O  O512  1  0.580970  0.039830  0.309260  1.0
  O  O513  1  0.305360  0.528260  0.605920  1.0
  O  O514  1  0.300560  0.077660  0.605920  1.0
  O  O515  1  0.528260  0.300560  0.605920  1.0
  O  O516  1  0.077660  0.305360  0.605920  1.0
  O  O517  1  0.694640  0.471740  0.394080  1.0
  O  O518  1  0.699440  0.922340  0.394080  1.0
  O  O519  1  0.471740  0.699440  0.394080  1.0
  O  O520  1  0.922340  0.694640  0.394080  1.0
  O  O521  1  0.218140  0.521350  0.598100  1.0
  O  O522  1  0.379960  0.076750  0.598100  1.0
  O  O523  1  0.521350  0.379960  0.598100  1.0
  O  O524  1  0.076750  0.218140  0.598100  1.0
  O  O525  1  0.781860  0.478650  0.401900  1.0
  O  O526  1  0.620040  0.923250  0.401900  1.0
  O  O527  1  0.478650  0.620040  0.401900  1.0
  O  O528  1  0.923250  0.781860  0.401900  1.0
  O  O529  1  0.237820  0.564410  0.554040  1.0
  O  O530  1  0.316220  0.989630  0.554040  1.0
  O  O531  1  0.564410  0.316220  0.554040  1.0
  O  O532  1  0.989630  0.237820  0.554040  1.0
  O  O533  1  0.762180  0.435590  0.445960  1.0
  O  O534  1  0.683780  0.010370  0.445960  1.0
  O  O535  1  0.435590  0.683780  0.445960  1.0
  O  O536  1  0.010370  0.762180  0.445960  1.0
  O  O537  1  0.967210  0.400900  0.435880  1.0
  O  O538  1  0.468670  0.034980  0.435880  1.0
  O  O539  1  0.400900  0.468670  0.435880  1.0
  O  O540  1  0.034980  0.967210  0.435880  1.0
  O  O541  1  0.032790  0.599100  0.564120  1.0
  O  O542  1  0.531330  0.965020  0.564120  1.0
  O  O543  1  0.599100  0.531330  0.564120  1.0
  O  O544  1  0.965020  0.032790  0.564120  1.0
  O  O545  1  0.979690  0.181240  0.191180  1.0
  O  O546  1  0.211490  0.009940  0.191180  1.0
  O  O547  1  0.181240  0.211490  0.191180  1.0
  O  O548  1  0.009940  0.979690  0.191180  1.0
  O  O549  1  0.020310  0.818760  0.808820  1.0
  O  O550  1  0.788510  0.990060  0.808820  1.0
  O  O551  1  0.818760  0.788510  0.808820  1.0
  O  O552  1  0.990060  0.020310  0.808820  1.0
  S  S553  1  0.878510  0.498110  0.234580  1.0
  S  S554  1  0.356070  0.736470  0.234580  1.0
  S  S555  1  0.498110  0.356070  0.234580  1.0
  S  S556  1  0.736470  0.878510  0.234580  1.0
  S  S557  1  0.121490  0.501890  0.765420  1.0
  S  S558  1  0.643930  0.263530  0.765420  1.0
  S  S559  1  0.501890  0.643930  0.765420  1.0
  S  S560  1  0.263530  0.121490  0.765420  1.0
  S  S561  1  0.966230  0.309270  0.750980  1.0
  S  S562  1  0.784750  0.441710  0.750980  1.0
  S  S563  1  0.309270  0.784750  0.750980  1.0
  S  S564  1  0.441710  0.966230  0.750980  1.0
  S  S565  1  0.033770  0.690730  0.249020  1.0
  S  S566  1  0.215250  0.558290  0.249020  1.0
  S  S567  1  0.690730  0.215250  0.249020  1.0
  S  S568  1  0.558290  0.033770  0.249020  1.0
  S  S569  1  0.246600  0.523360  0.569600  1.0
  S  S570  1  0.323000  0.046240  0.569600  1.0
  S  S571  1  0.523360  0.323000  0.569600  1.0
  S  S572  1  0.046240  0.246600  0.569600  1.0
  S  S573  1  0.753400  0.476640  0.430400  1.0
  S  S574  1  0.677000  0.953760  0.430400  1.0
  S  S575  1  0.476640  0.677000  0.430400  1.0
  S  S576  1  0.953760  0.753400  0.430400  1.0
