# generated using pymatgen
data_CuH4C8O5
_symmetry_space_group_name_H-M   'P 1'
_cell_length_a   24.33860000
_cell_length_b   24.42670000
_cell_length_c   25.44200000
_cell_angle_alpha   112.19000000
_cell_angle_beta   115.54700000
_cell_angle_gamma   98.07100000
_symmetry_Int_Tables_number   1
_chemical_formula_structural   CuH4C8O5
_chemical_formula_sum   'Cu24 H96 C192 O120'
_cell_volume   11774.00024628
_cell_formula_units_Z   24
loop_
 _symmetry_equiv_pos_site_id
 _symmetry_equiv_pos_as_xyz
  1  'x, y, z'
loop_
 _atom_site_type_symbol
 _atom_site_label
 _atom_site_symmetry_multiplicity
 _atom_site_fract_x
 _atom_site_fract_y
 _atom_site_fract_z
 _atom_site_occupancy
  Cu  Cu1  1  0.769090  0.052880  0.933510  1.0
  Cu  Cu2  1  0.230910  0.947120  0.066490  1.0
  Cu  Cu3  1  0.824300  0.163890  0.949240  1.0
  Cu  Cu4  1  0.175700  0.836110  0.050760  1.0
  Cu  Cu5  1  0.947290  0.070420  0.617440  1.0
  Cu  Cu6  1  0.052710  0.929580  0.382560  1.0
  Cu  Cu7  1  0.961610  0.177300  0.712360  1.0
  Cu  Cu8  1  0.038390  0.822700  0.287640  1.0
  Cu  Cu9  1  0.177860  0.515390  0.687980  1.0
  Cu  Cu10  1  0.822140  0.484610  0.312020  1.0
  Cu  Cu11  1  0.128200  0.511480  0.761750  1.0
  Cu  Cu12  1  0.871800  0.488520  0.238250  1.0
  Cu  Cu13  1  0.761140  0.632900  0.630160  1.0
  Cu  Cu14  1  0.238860  0.367100  0.369840  1.0
  Cu  Cu15  1  0.821720  0.600920  0.722130  1.0
  Cu  Cu16  1  0.178280  0.399080  0.277870  1.0
  Cu  Cu17  1  0.590970  0.628090  0.946160  1.0
  Cu  Cu18  1  0.409030  0.371910  0.053840  1.0
  Cu  Cu19  1  0.696700  0.601690  0.960110  1.0
  Cu  Cu20  1  0.303300  0.398310  0.039890  1.0
  Cu  Cu21  1  0.531710  0.187890  0.572600  1.0
  Cu  Cu22  1  0.468290  0.812110  0.427400  1.0
  Cu  Cu23  1  0.649620  0.262470  0.679290  1.0
  Cu  Cu24  1  0.350380  0.737530  0.320710  1.0
  H  H25  1  0.807700  0.933600  0.785600  1.0
  H  H26  1  0.192300  0.066400  0.214400  1.0
  H  H27  1  0.827400  0.884100  0.701900  1.0
  H  H28  1  0.172600  0.115900  0.298100  1.0
  H  H29  1  0.872700  0.944700  0.667400  1.0
  H  H30  1  0.127300  0.055300  0.332600  1.0
  H  H31  1  0.883300  0.103100  0.807600  1.0
  H  H32  1  0.116700  0.896900  0.192400  1.0
  H  H33  1  0.982900  0.149900  0.501200  1.0
  H  H34  1  0.017100  0.850100  0.498800  1.0
  H  H35  1  0.013500  0.211000  0.459400  1.0
  H  H36  1  0.986500  0.789000  0.540600  1.0
  H  H37  1  0.063100  0.321400  0.525700  1.0
  H  H38  1  0.936900  0.678600  0.474300  1.0
  H  H39  1  0.051300  0.309900  0.675600  1.0
  H  H40  1  0.948700  0.690100  0.324400  1.0
  H  H41  1  0.022200  0.548600  0.548400  1.0
  H  H42  1  0.977800  0.451400  0.451600  1.0
  H  H43  1  0.934300  0.571900  0.487700  1.0
  H  H44  1  0.065700  0.428100  0.512300  1.0
  H  H45  1  0.860900  0.588600  0.520100  1.0
  H  H46  1  0.139100  0.411400  0.479900  1.0
  H  H47  1  0.956700  0.548300  0.668500  1.0
  H  H48  1  0.043300  0.451700  0.331500  1.0
  H  H49  1  0.631400  0.703400  0.688100  1.0
  H  H50  1  0.368600  0.296600  0.311900  1.0
  H  H51  1  0.563000  0.727400  0.729000  1.0
  H  H52  1  0.437000  0.272600  0.271000  1.0
  H  H53  1  0.567600  0.704100  0.811300  1.0
  H  H54  1  0.432400  0.295900  0.188700  1.0
  H  H55  1  0.718200  0.646100  0.822000  1.0
  H  H56  1  0.281800  0.353900  0.178000  1.0
  H  H57  1  0.550000  0.543300  0.050400  1.0
  H  H58  1  0.450000  0.456700  0.949600  1.0
  H  H59  1  0.546800  0.506800  0.121600  1.0
  H  H60  1  0.453200  0.493200  0.878400  1.0
  H  H61  1  0.634800  0.487900  0.186600  1.0
  H  H62  1  0.365200  0.512100  0.813400  1.0
  H  H63  1  0.731000  0.538900  0.107700  1.0
  H  H64  1  0.269000  0.461100  0.892300  1.0
  H  H65  1  0.721600  0.283000  0.212100  1.0
  H  H66  1  0.278400  0.717000  0.787900  1.0
  H  H67  1  0.679500  0.171900  0.150000  1.0
  H  H68  1  0.320500  0.828100  0.850000  1.0
  H  H69  1  0.701800  0.120700  0.066500  1.0
  H  H70  1  0.298200  0.879300  0.933500  1.0
  H  H71  1  0.798500  0.288900  0.101200  1.0
  H  H72  1  0.201500  0.711100  0.898800  1.0
  H  H73  1  0.566900  0.008700  0.779000  1.0
  H  H74  1  0.433100  0.991300  0.221000  1.0
  H  H75  1  0.472000  0.995700  0.687200  1.0
  H  H76  1  0.528000  0.004300  0.312800  1.0
  H  H77  1  0.476500  0.060900  0.640200  1.0
  H  H78  1  0.523500  0.939100  0.359800  1.0
  H  H79  1  0.670800  0.152000  0.777000  1.0
  H  H80  1  0.329200  0.848000  0.223000  1.0
  H  H81  1  0.520600  0.283200  0.460600  1.0
  H  H82  1  0.479400  0.716800  0.539400  1.0
  H  H83  1  0.524700  0.351500  0.415800  1.0
  H  H84  1  0.475300  0.648500  0.584200  1.0
  H  H85  1  0.605500  0.452800  0.484100  1.0
  H  H86  1  0.394500  0.547200  0.515900  1.0
  H  H87  1  0.687000  0.412500  0.633600  1.0
  H  H88  1  0.313000  0.587500  0.366400  1.0
  H  H89  1  0.109300  0.169900  0.255400  1.0
  H  H90  1  0.890700  0.830100  0.744600  1.0
  H  H91  1  0.027600  0.069000  0.186600  1.0
  H  H92  1  0.972400  0.931000  0.813400  1.0
  H  H93  1  0.934600  0.049300  0.088700  1.0
  H  H94  1  0.065400  0.950700  0.911300  1.0
  H  H95  1  0.008400  0.230600  0.129300  1.0
  H  H96  1  0.991600  0.769400  0.870700  1.0
  H  H97  1  0.316300  0.176500  0.890200  1.0
  H  H98  1  0.683700  0.823500  0.109800  1.0
  H  H99  1  0.250600  0.082100  0.788100  1.0
  H  H100  1  0.749400  0.917900  0.211900  1.0
  H  H101  1  0.139900  0.062600  0.720200  1.0
  H  H102  1  0.860100  0.937400  0.279800  1.0
  H  H103  1  0.160600  0.231800  0.856200  1.0
  H  H104  1  0.839400  0.768200  0.143800  1.0
  H  H105  1  0.745200  0.018800  0.461900  1.0
  H  H106  1  0.254800  0.981200  0.538100  1.0
  H  H107  1  0.636700  0.000400  0.403300  1.0
  H  H108  1  0.363300  0.999600  0.596700  1.0
  H  H109  1  0.588500  0.059500  0.450100  1.0
  H  H110  1  0.411500  0.940500  0.549900  1.0
  H  H111  1  0.762700  0.168500  0.620900  1.0
  H  H112  1  0.237300  0.831500  0.379100  1.0
  H  H113  1  0.421200  0.282200  0.642400  1.0
  H  H114  1  0.578800  0.717800  0.357600  1.0
  H  H115  1  0.376000  0.352600  0.684500  1.0
  H  H116  1  0.624000  0.647400  0.315500  1.0
  H  H117  1  0.444300  0.452300  0.779100  1.0
  H  H118  1  0.555700  0.547700  0.220900  1.0
  H  H119  1  0.603100  0.411200  0.789600  1.0
  H  H120  1  0.396900  0.588800  0.210400  1.0
  C  C121  1  0.827300  0.054800  0.858900  1.0
  C  C122  1  0.172700  0.945200  0.141100  1.0
  C  C123  1  0.843600  0.022700  0.805200  1.0
  C  C124  1  0.156400  0.977300  0.194800  1.0
  C  C125  1  0.827400  0.958500  0.772900  1.0
  C  C126  1  0.172600  0.041500  0.227100  1.0
  C  C127  1  0.838400  0.928800  0.722900  1.0
  C  C128  1  0.161600  0.071200  0.277100  1.0
  C  C129  1  0.866100  0.964800  0.703100  1.0
  C  C130  1  0.133900  0.035200  0.296900  1.0
  C  C131  1  0.883300  0.028300  0.734900  1.0
  C  C132  1  0.116700  0.971700  0.265100  1.0
  C  C133  1  0.871800  0.058400  0.786100  1.0
  C  C134  1  0.128200  0.941600  0.213900  1.0
  C  C135  1  0.912200  0.067700  0.711800  1.0
  C  C136  1  0.087800  0.932300  0.288200  1.0
  C  C137  1  0.993200  0.184400  0.619900  1.0
  C  C138  1  0.006800  0.815600  0.380100  1.0
  C  C139  1  0.014200  0.224170  0.592300  1.0
  C  C140  1  0.985800  0.775830  0.407700  1.0
  C  C141  1  0.003000  0.194790  0.528120  1.0
  C  C142  1  0.997000  0.805210  0.471880  1.0
  C  C143  1  0.021200  0.231040  0.503310  1.0
  C  C144  1  0.978800  0.768960  0.496690  1.0
  C  C145  1  0.050600  0.296670  0.542700  1.0
  C  C146  1  0.949400  0.703330  0.457300  1.0
  C  C147  1  0.061800  0.326050  0.606890  1.0
  C  C148  1  0.938200  0.673950  0.393110  1.0
  C  C149  1  0.043600  0.289800  0.631690  1.0
  C  C150  1  0.956400  0.710200  0.368310  1.0
  C  C151  1  0.096800  0.395500  0.650300  1.0
  C  C152  1  0.903200  0.604500  0.349700  1.0
  C  C153  1  0.055700  0.531400  0.654900  1.0
  C  C154  1  0.944300  0.468600  0.345100  1.0
  C  C155  1  0.997800  0.546100  0.613200  1.0
  C  C156  1  0.002200  0.453900  0.386800  1.0
  C  C157  1  0.991000  0.553500  0.561000  1.0
  C  C158  1  0.009000  0.446500  0.439000  1.0
  C  C159  1  0.939000  0.568300  0.525200  1.0
  C  C160  1  0.061000  0.431700  0.474800  1.0
  C  C161  1  0.895600  0.577300  0.543700  1.0
  C  C162  1  0.104400  0.422700  0.456300  1.0
  C  C163  1  0.901600  0.570200  0.597600  1.0
  C  C164  1  0.098400  0.429800  0.402400  1.0
  C  C165  1  0.952800  0.553900  0.632300  1.0
  C  C166  1  0.047200  0.446100  0.367700  1.0
  C  C167  1  0.857000  0.584700  0.623900  1.0
  C  C168  1  0.143000  0.415300  0.376100  1.0
  C  C169  1  0.723200  0.652900  0.723800  1.0
  C  C170  1  0.276800  0.347100  0.276200  1.0
  C  C171  1  0.680500  0.672400  0.750900  1.0
  C  C172  1  0.319500  0.327600  0.249100  1.0
  C  C173  1  0.634900  0.696000  0.723400  1.0
  C  C174  1  0.365100  0.304000  0.276600  1.0
  C  C175  1  0.593500  0.709400  0.747000  1.0
  C  C176  1  0.406500  0.290600  0.253000  1.0
  C  C177  1  0.596900  0.696500  0.796300  1.0
  C  C178  1  0.403100  0.303500  0.203700  1.0
  C  C179  1  0.643200  0.672100  0.824300  1.0
  C  C180  1  0.356800  0.327900  0.175700  1.0
  C  C181  1  0.685600  0.661300  0.802100  1.0
  C  C182  1  0.314400  0.338700  0.197900  1.0
  C  C183  1  0.645700  0.652800  0.875300  1.0
  C  C184  1  0.354300  0.347200  0.124700  1.0
  C  C185  1  0.643600  0.570900  0.028200  1.0
  C  C186  1  0.356400  0.429100  0.971800  1.0
  C  C187  1  0.641100  0.546100  0.073200  1.0
  C  C188  1  0.358900  0.453900  0.926800  1.0
  C  C189  1  0.586500  0.535700  0.076800  1.0
  C  C190  1  0.413500  0.464300  0.923200  1.0
  C  C191  1  0.584700  0.514000  0.119100  1.0
  C  C192  1  0.415300  0.486000  0.880900  1.0
  C  C193  1  0.636800  0.502700  0.157600  1.0
  C  C194  1  0.363200  0.497300  0.842400  1.0
  C  C195  1  0.692200  0.512600  0.154400  1.0
  C  C196  1  0.307800  0.487400  0.845600  1.0
  C  C197  1  0.693600  0.533300  0.111400  1.0
  C  C198  1  0.306400  0.466700  0.888600  1.0
  C  C199  1  0.750900  0.502800  0.199500  1.0
  C  C200  1  0.249100  0.497200  0.800500  1.0
  C  C201  1  0.793500  0.367900  0.202800  1.0
  C  C202  1  0.206500  0.632100  0.797200  1.0
  C  C203  1  0.763400  0.295900  0.162700  1.0
  C  C204  1  0.236600  0.704100  0.837300  1.0
  C  C205  1  0.729000  0.261900  0.177300  1.0
  C  C206  1  0.271000  0.738100  0.822700  1.0
  C  C207  1  0.704600  0.196200  0.141000  1.0
  C  C208  1  0.295400  0.803800  0.859000  1.0
  C  C209  1  0.717400  0.165700  0.090800  1.0
  C  C210  1  0.282600  0.834300  0.909200  1.0
  C  C211  1  0.751700  0.200500  0.077300  1.0
  C  C212  1  0.248300  0.799500  0.922700  1.0
  C  C213  1  0.774800  0.265000  0.111700  1.0
  C  C214  1  0.225200  0.735000  0.888300  1.0
  C  C215  1  0.766800  0.166400  0.024300  1.0
  C  C216  1  0.233200  0.833600  0.975700  1.0
  C  C217  1  0.689500  0.090000  0.845500  1.0
  C  C218  1  0.310500  0.910000  0.154500  1.0
  C  C219  1  0.627770  0.081580  0.786620  1.0
  C  C220  1  0.372230  0.918420  0.213380  1.0
  C  C221  1  0.568710  0.035150  0.759940  1.0
  C  C222  1  0.431290  0.964850  0.240060  1.0
  C  C223  1  0.512350  0.027450  0.705400  1.0
  C  C224  1  0.487650  0.972550  0.294600  1.0
  C  C225  1  0.515040  0.066190  0.677510  1.0
  C  C226  1  0.484960  0.933810  0.322490  1.0
  C  C227  1  0.574090  0.112620  0.704190  1.0
  C  C228  1  0.425910  0.887380  0.295810  1.0
  C  C229  1  0.630460  0.120310  0.758740  1.0
  C  C230  1  0.369540  0.879690  0.241260  1.0
  C  C231  1  0.580900  0.154000  0.673600  1.0
  C  C232  1  0.419100  0.846000  0.326400  1.0
  C  C233  1  0.601000  0.297200  0.577600  1.0
  C  C234  1  0.399000  0.702800  0.422400  1.0
  C  C235  1  0.603600  0.340500  0.550400  1.0
  C  C236  1  0.396400  0.659500  0.449600  1.0
  C  C237  1  0.555300  0.323200  0.487000  1.0
  C  C238  1  0.444700  0.676800  0.513000  1.0
  C  C239  1  0.556900  0.364400  0.460700  1.0
  C  C240  1  0.443100  0.635600  0.539300  1.0
  C  C241  1  0.605800  0.424100  0.500900  1.0
  C  C242  1  0.394200  0.575900  0.499100  1.0
  C  C243  1  0.654600  0.442200  0.564600  1.0
  C  C244  1  0.345400  0.557800  0.435400  1.0
  C  C245  1  0.653500  0.400300  0.589600  1.0
  C  C246  1  0.346500  0.599700  0.410400  1.0
  C  C247  1  0.706600  0.506600  0.607600  1.0
  C  C248  1  0.293400  0.493400  0.392400  1.0
  C  C249  1  0.119700  0.273500  0.244900  1.0
  C  C250  1  0.880300  0.726500  0.755100  1.0
  C  C251  1  0.067900  0.210600  0.200900  1.0
  C  C252  1  0.932100  0.789400  0.799100  1.0
  C  C253  1  0.071700  0.161900  0.215600  1.0
  C  C254  1  0.928300  0.838100  0.784400  1.0
  C  C255  1  0.023200  0.101400  0.174900  1.0
  C  C256  1  0.976800  0.898600  0.825100  1.0
  C  C257  1  0.968400  0.090000  0.117000  1.0
  C  C258  1  0.031600  0.910000  0.883000  1.0
  C  C259  1  0.962400  0.138200  0.099800  1.0
  C  C260  1  0.037600  0.861800  0.900200  1.0
  C  C261  1  0.012200  0.198200  0.141200  1.0
  C  C262  1  0.987800  0.801800  0.858800  1.0
  C  C263  1  0.902700  0.126000  0.038300  1.0
  C  C264  1  0.097300  0.874000  0.961700  1.0
  C  C265  1  0.285800  0.277400  0.944700  1.0
  C  C266  1  0.714200  0.722600  0.055300  1.0
  C  C267  1  0.244670  0.213060  0.882790  1.0
  C  C268  1  0.755330  0.786940  0.117210  1.0
  C  C269  1  0.271400  0.168600  0.862570  1.0
  C  C270  1  0.728600  0.831400  0.137430  1.0
  C  C271  1  0.232360  0.112520  0.801970  1.0
  C  C272  1  0.767640  0.887480  0.198030  1.0
  C  C273  1  0.166590  0.100910  0.761580  1.0
  C  C274  1  0.833410  0.899090  0.238420  1.0
  C  C275  1  0.139870  0.145400  0.781800  1.0
  C  C276  1  0.860130  0.854600  0.218200  1.0
  C  C277  1  0.178910  0.201440  0.842400  1.0
  C  C278  1  0.821090  0.798560  0.157600  1.0
  C  C279  1  0.069900  0.136400  0.737800  1.0
  C  C280  1  0.930100  0.863600  0.262200  1.0
  C  C281  1  0.838200  0.108300  0.590300  1.0
  C  C282  1  0.161800  0.891700  0.409700  1.0
  C  C283  1  0.766700  0.096300  0.547500  1.0
  C  C284  1  0.233300  0.903700  0.452500  1.0
  C  C285  1  0.726900  0.045200  0.482000  1.0
  C  C286  1  0.273100  0.954800  0.518000  1.0
  C  C287  1  0.663100  0.034200  0.448200  1.0
  C  C288  1  0.336900  0.965800  0.551800  1.0
  C  C289  1  0.634300  0.069700  0.475500  1.0
  C  C290  1  0.365700  0.930300  0.524500  1.0
  C  C291  1  0.670800  0.119600  0.539100  1.0
  C  C292  1  0.329200  0.880400  0.460900  1.0
  C  C293  1  0.737000  0.134000  0.576500  1.0
  C  C294  1  0.263000  0.866000  0.423500  1.0
  C  C295  1  0.641200  0.159500  0.571200  1.0
  C  C296  1  0.358800  0.840500  0.428800  1.0
  C  C297  1  0.545500  0.296900  0.683800  1.0
  C  C298  1  0.454500  0.703100  0.316200  1.0
  C  C299  1  0.516400  0.340060  0.712000  1.0
  C  C300  1  0.483600  0.659940  0.288000  1.0
  C  C301  1  0.448960  0.322640  0.680820  1.0
  C  C302  1  0.551040  0.677360  0.319180  1.0
  C  C303  1  0.422070  0.364500  0.705800  1.0
  C  C304  1  0.577930  0.635500  0.294200  1.0
  C  C305  1  0.462700  0.423700  0.762100  1.0
  C  C306  1  0.537300  0.576300  0.237900  1.0
  C  C307  1  0.530130  0.441110  0.793260  1.0
  C  C308  1  0.469870  0.558890  0.206740  1.0
  C  C309  1  0.557020  0.399300  0.768260  1.0
  C  C310  1  0.442980  0.600700  0.231740  1.0
  C  C311  1  0.573900  0.506600  0.853900  1.0
  C  C312  1  0.426100  0.493400  0.146100  1.0
  O  O313  1  0.795420  0.019230  0.868320  1.0
  O  O314  1  0.204580  0.980770  0.131680  1.0
  O  O315  1  0.849000  0.114660  0.888130  1.0
  O  O316  1  0.151000  0.885340  0.111870  1.0
  O  O317  1  0.918430  0.036190  0.663440  1.0
  O  O318  1  0.081570  0.963810  0.336560  1.0
  O  O319  1  0.927940  0.125960  0.742400  1.0
  O  O320  1  0.072060  0.874040  0.257600  1.0
  O  O321  1  0.977400  0.126140  0.589080  1.0
  O  O322  1  0.022600  0.873860  0.410920  1.0
  O  O323  1  0.991500  0.215780  0.670330  1.0
  O  O324  1  0.008500  0.784220  0.329670  1.0
  O  O325  1  0.128790  0.423890  0.634780  1.0
  O  O326  1  0.871210  0.576110  0.365220  1.0
  O  O327  1  0.089280  0.420620  0.698860  1.0
  O  O328  1  0.910720  0.579380  0.301140  1.0
  O  O329  1  0.096770  0.528290  0.637620  1.0
  O  O330  1  0.903230  0.471710  0.362380  1.0
  O  O331  1  0.056460  0.523790  0.700130  1.0
  O  O332  1  0.943540  0.476210  0.299870  1.0
  O  O333  1  0.816150  0.607150  0.596030  1.0
  O  O334  1  0.183850  0.392850  0.403970  1.0
  O  O335  1  0.863560  0.574030  0.670180  1.0
  O  O336  1  0.136440  0.425970  0.329820  1.0
  O  O337  1  0.712630  0.658210  0.673120  1.0
  O  O338  1  0.287370  0.341790  0.326880  1.0
  O  O339  1  0.766740  0.635270  0.753960  1.0
  O  O340  1  0.233260  0.364730  0.246040  1.0
  O  O341  1  0.603400  0.661240  0.890780  1.0
  O  O342  1  0.396600  0.338760  0.109220  1.0
  O  O343  1  0.688620  0.632900  0.898710  1.0
  O  O344  1  0.311380  0.367100  0.101290  1.0
  O  O345  1  0.597870  0.588950  0.002640  1.0
  O  O346  1  0.402130  0.411050  0.997360  1.0
  O  O347  1  0.690490  0.571940  0.019000  1.0
  O  O348  1  0.309510  0.428060  0.981000  1.0
  O  O349  1  0.751480  0.497080  0.245240  1.0
  O  O350  1  0.248520  0.502920  0.754760  1.0
  O  O351  1  0.793920  0.501710  0.185040  1.0
  O  O352  1  0.206080  0.498290  0.814960  1.0
  O  O353  1  0.782620  0.393180  0.249830  1.0
  O  O354  1  0.217380  0.606820  0.750170  1.0
  O  O355  1  0.824300  0.397160  0.187810  1.0
  O  O356  1  0.175700  0.602840  0.812190  1.0
  O  O357  1  0.751350  0.108220  0.000460  1.0
  O  O358  1  0.248650  0.891780  0.999540  1.0
  O  O359  1  0.793070  0.200750  0.008480  1.0
  O  O360  1  0.206930  0.799250  0.991520  1.0
  O  O361  1  0.688500  0.047780  0.862650  1.0
  O  O362  1  0.311500  0.952220  0.137350  1.0
  O  O363  1  0.737450  0.139340  0.871970  1.0
  O  O364  1  0.262550  0.860660  0.128030  1.0
  O  O365  1  0.530680  0.138170  0.618350  1.0
  O  O366  1  0.469320  0.861830  0.381650  1.0
  O  O367  1  0.631850  0.201550  0.706750  1.0
  O  O368  1  0.368150  0.798450  0.293250  1.0
  O  O369  1  0.549970  0.247080  0.542530  1.0
  O  O370  1  0.450030  0.752920  0.457470  1.0
  O  O371  1  0.649130  0.312480  0.634750  1.0
  O  O372  1  0.350870  0.687520  0.365250  1.0
  O  O373  1  0.702040  0.543280  0.582730  1.0
  O  O374  1  0.297960  0.456720  0.417270  1.0
  O  O375  1  0.751770  0.519390  0.664340  1.0
  O  O376  1  0.248230  0.480610  0.335660  1.0
  O  O377  1  0.165740  0.283330  0.299580  1.0
  O  O378  1  0.834260  0.716670  0.700420  1.0
  O  O379  1  0.113260  0.313280  0.225990  1.0
  O  O380  1  0.886740  0.686720  0.774010  1.0
  O  O381  1  0.857180  0.073170  0.006040  1.0
  O  O382  1  0.142820  0.926830  0.993960  1.0
  O  O383  1  0.901600  0.169440  0.024760  1.0
  O  O384  1  0.098400  0.830560  0.975240  1.0
  O  O385  1  0.348820  0.291060  0.974380  1.0
  O  O386  1  0.651180  0.708940  0.025620  1.0
  O  O387  1  0.258400  0.311200  0.965260  1.0
  O  O388  1  0.741600  0.688800  0.034740  1.0
  O  O389  1  0.038010  0.087340  0.680230  1.0
  O  O390  1  0.961990  0.912660  0.319770  1.0
  O  O391  1  0.048480  0.175650  0.761350  1.0
  O  O392  1  0.951520  0.824350  0.238650  1.0
  O  O393  1  0.859480  0.068500  0.566980  1.0
  O  O394  1  0.140520  0.931500  0.433020  1.0
  O  O395  1  0.870460  0.158620  0.646200  1.0
  O  O396  1  0.129540  0.841380  0.353800  1.0
  O  O397  1  0.578330  0.140750  0.537520  1.0
  O  O398  1  0.421670  0.859250  0.462480  1.0
  O  O399  1  0.678880  0.206640  0.627200  1.0
  O  O400  1  0.321120  0.793360  0.372800  1.0
  O  O401  1  0.504890  0.247350  0.625730  1.0
  O  O402  1  0.495110  0.752650  0.374270  1.0
  O  O403  1  0.605350  0.309630  0.715970  1.0
  O  O404  1  0.394650  0.690370  0.284030  1.0
  O  O405  1  0.544730  0.542370  0.868690  1.0
  O  O406  1  0.455270  0.457630  0.131310  1.0
  O  O407  1  0.633940  0.518130  0.883220  1.0
  O  O408  1  0.366060  0.481870  0.116780  1.0
  O  O409  1  0.726500  0.966400  0.929300  1.0
  O  O410  1  0.273500  0.033600  0.070700  1.0
  O  O411  1  0.867400  0.249200  0.952700  1.0
  O  O412  1  0.132600  0.750800  0.047300  1.0
  O  O413  1  0.929220  0.980370  0.540700  1.0
  O  O414  1  0.070780  0.019630  0.459300  1.0
  O  O415  1  0.983900  0.270800  0.790600  1.0
  O  O416  1  0.016100  0.729200  0.209400  1.0
  O  O417  1  0.222070  0.517480  0.630180  1.0
  O  O418  1  0.777930  0.482520  0.369820  1.0
  O  O419  1  0.084900  0.517800  0.822600  1.0
  O  O420  1  0.915100  0.482200  0.177400  1.0
  O  O421  1  0.705930  0.657500  0.554650  1.0
  O  O422  1  0.294070  0.342500  0.445350  1.0
  O  O423  1  0.871800  0.574200  0.796400  1.0
  O  O424  1  0.128200  0.425800  0.203600  1.0
  O  O425  1  0.503030  0.646690  0.927800  1.0
  O  O426  1  0.496970  0.353310  0.072200  1.0
  O  O427  1  0.780400  0.576300  0.962600  1.0
  O  O428  1  0.219600  0.423700  0.037400  1.0
  O  O429  1  0.429830  0.124200  0.487400  1.0
  O  O430  1  0.570170  0.875800  0.512600  1.0
  O  O431  1  0.748000  0.318000  0.766200  1.0
  O  O432  1  0.252000  0.682000  0.233800  1.0
