# generated using pymatgen
data_CuH7C14NO5
_symmetry_space_group_name_H-M   'P 1'
_cell_length_a   20.01400000
_cell_length_b   20.97700000
_cell_length_c   22.60500000
_cell_angle_alpha   117.51800000
_cell_angle_beta   92.93000000
_cell_angle_gamma   110.47000000
_symmetry_Int_Tables_number   1
_chemical_formula_structural   CuH7C14NO5
_chemical_formula_sum   'Cu12 H84 C168 N12 O60'
_cell_volume   7622.44853788
_cell_formula_units_Z   12
loop_
 _symmetry_equiv_pos_site_id
 _symmetry_equiv_pos_as_xyz
  1  'x, y, z'
loop_
 _atom_site_type_symbol
 _atom_site_label
 _atom_site_symmetry_multiplicity
 _atom_site_fract_x
 _atom_site_fract_y
 _atom_site_fract_z
 _atom_site_occupancy
  Cu  Cu1  1  0.659830  0.474500  0.374110  1.0
  Cu  Cu2  1  0.340170  0.525500  0.625890  1.0
  Cu  Cu3  1  0.749340  0.616630  0.405140  1.0
  Cu  Cu4  1  0.250660  0.383370  0.594860  1.0
  Cu  Cu5  1  0.636930  0.008250  0.213340  1.0
  Cu  Cu6  1  0.363070  0.991750  0.786660  1.0
  Cu  Cu7  1  0.736100  0.999060  0.283840  1.0
  Cu  Cu8  1  0.263900  0.000940  0.716160  1.0
  Cu  Cu9  1  0.184190  0.783690  0.108390  1.0
  Cu  Cu10  1  0.815810  0.216310  0.891610  1.0
  Cu  Cu11  1  0.128000  0.840630  0.210010  1.0
  Cu  Cu12  1  0.872000  0.159370  0.789990  1.0
  H  H13  1  0.363200  0.517000  0.106700  1.0
  H  H14  1  0.636800  0.483000  0.893300  1.0
  H  H15  1  0.808400  0.762500  0.865600  1.0
  H  H16  1  0.191600  0.237500  0.134400  1.0
  H  H17  1  0.897100  0.323800  0.054100  1.0
  H  H18  1  0.102900  0.676200  0.945900  1.0
  H  H19  1  0.554700  0.720700  0.767900  1.0
  H  H20  1  0.445300  0.279300  0.232100  1.0
  H  H21  1  0.455100  0.118000  0.578800  1.0
  H  H22  1  0.544900  0.882000  0.421200  1.0
  H  H23  1  0.038800  0.499500  0.616100  1.0
  H  H24  1  0.961200  0.500500  0.383900  1.0
  H  H25  1  0.470900  0.433700  0.237100  1.0
  H  H26  1  0.529100  0.566300  0.762900  1.0
  H  H27  1  0.383800  0.430000  0.162200  1.0
  H  H28  1  0.616200  0.570000  0.837800  1.0
  H  H29  1  0.615200  0.650600  0.279600  1.0
  H  H30  1  0.384800  0.349400  0.720400  1.0
  H  H31  1  0.383800  0.641500  0.083600  1.0
  H  H32  1  0.616200  0.358500  0.916400  1.0
  H  H33  1  0.464800  0.766400  0.115800  1.0
  H  H34  1  0.535200  0.233600  0.884200  1.0
  H  H35  1  0.614500  0.762400  0.240800  1.0
  H  H36  1  0.385500  0.237600  0.759200  1.0
  H  H37  1  0.682600  0.907200  0.013000  1.0
  H  H38  1  0.317400  0.092800  0.987000  1.0
  H  H39  1  0.714700  0.837800  0.910800  1.0
  H  H40  1  0.285300  0.162200  0.089200  1.0
  H  H41  1  0.848400  0.914400  0.130400  1.0
  H  H42  1  0.151600  0.085600  0.869600  1.0
  H  H43  1  0.914400  0.709800  0.863200  1.0
  H  H44  1  0.085600  0.290200  0.136800  1.0
  H  H45  1  0.007800  0.713900  0.932700  1.0
  H  H46  1  0.992200  0.286100  0.067300  1.0
  H  H47  1  0.951700  0.849500  0.102700  1.0
  H  H48  1  0.048300  0.150500  0.897300  1.0
  H  H49  1  0.085200  0.537600  0.049000  1.0
  H  H50  1  0.914800  0.462400  0.951000  1.0
  H  H51  1  0.014900  0.408700  0.021600  1.0
  H  H52  1  0.985100  0.591300  0.978400  1.0
  H  H53  1  0.988300  0.626100  0.199500  1.0
  H  H54  1  0.011700  0.373900  0.800500  1.0
  H  H55  1  0.783300  0.283400  0.109600  1.0
  H  H56  1  0.216700  0.716600  0.890400  1.0
  H  H57  1  0.724000  0.336500  0.195900  1.0
  H  H58  1  0.276000  0.663500  0.804100  1.0
  H  H59  1  0.868600  0.558600  0.249800  1.0
  H  H60  1  0.131400  0.441400  0.750200  1.0
  H  H61  1  0.559600  0.534000  0.541200  1.0
  H  H62  1  0.440400  0.466000  0.458800  1.0
  H  H63  1  0.518800  0.579600  0.643200  1.0
  H  H64  1  0.481200  0.420400  0.356800  1.0
  H  H65  1  0.704100  0.756000  0.597100  1.0
  H  H66  1  0.295900  0.244000  0.402900  1.0
  H  H67  1  0.610800  0.875600  0.869700  1.0
  H  H68  1  0.389200  0.124400  0.130300  1.0
  H  H69  1  0.692800  0.005500  0.896400  1.0
  H  H70  1  0.307200  0.994500  0.103600  1.0
  H  H71  1  0.744100  0.909900  0.708900  1.0
  H  H72  1  0.255900  0.090100  0.291100  1.0
  H  H73  1  0.613300  0.173900  0.781100  1.0
  H  H74  1  0.386700  0.826100  0.218900  1.0
  H  H75  1  0.512000  0.156600  0.709400  1.0
  H  H76  1  0.488000  0.843400  0.290600  1.0
  H  H77  1  0.713000  0.123200  0.624100  1.0
  H  H78  1  0.287000  0.876800  0.375900  1.0
  H  H79  1  0.442600  0.078500  0.441900  1.0
  H  H80  1  0.557400  0.921500  0.558100  1.0
  H  H81  1  0.501700  0.046900  0.352500  1.0
  H  H82  1  0.498300  0.953100  0.647500  1.0
  H  H83  1  0.674400  0.078100  0.480900  1.0
  H  H84  1  0.325600  0.921900  0.519100  1.0
  H  H85  1  0.802100  0.431000  0.478600  1.0
  H  H86  1  0.197900  0.569000  0.521400  1.0
  H  H87  1  0.894600  0.415600  0.534700  1.0
  H  H88  1  0.105400  0.584400  0.465300  1.0
  H  H89  1  0.939400  0.656200  0.539100  1.0
  H  H90  1  0.060600  0.343800  0.460900  1.0
  H  H91  1  0.174400  0.613900  0.688000  1.0
  H  H92  1  0.825600  0.386100  0.312000  1.0
  H  H93  1  0.253600  0.745300  0.725300  1.0
  H  H94  1  0.746400  0.254700  0.274700  1.0
  H  H95  1  0.091800  0.765700  0.630100  1.0
  H  H96  1  0.908200  0.234300  0.369900  1.0
  C  C97  1  0.607400  0.540500  0.311900  1.0
  C  C98  1  0.392600  0.459500  0.688100  1.0
  C  C99  1  0.550200  0.540300  0.264600  1.0
  C  C100  1  0.449800  0.459700  0.735400  1.0
  C  C101  1  0.482400  0.477100  0.229900  1.0
  C  C102  1  0.517600  0.522900  0.770100  1.0
  C  C103  1  0.430600  0.474000  0.185100  1.0
  C  C104  1  0.569400  0.526000  0.814900  1.0
  C  C105  1  0.449600  0.539200  0.174400  1.0
  C  C106  1  0.550400  0.460800  0.825600  1.0
  C  C107  1  0.516500  0.604700  0.209600  1.0
  C  C108  1  0.483500  0.395300  0.790400  1.0
  C  C109  1  0.568700  0.606300  0.255500  1.0
  C  C110  1  0.431300  0.393700  0.744500  1.0
  C  C111  1  0.516500  0.661400  0.191200  1.0
  C  C112  1  0.483500  0.338600  0.808800  1.0
  C  C113  1  0.447300  0.627600  0.143500  1.0
  C  C114  1  0.552700  0.372400  0.856500  1.0
  C  C115  1  0.429900  0.665900  0.116000  1.0
  C  C116  1  0.570100  0.334100  0.884000  1.0
  C  C117  1  0.477700  0.738600  0.134400  1.0
  C  C118  1  0.522300  0.261400  0.865600  1.0
  C  C119  1  0.567700  0.738100  0.209600  1.0
  C  C120  1  0.432300  0.261900  0.790400  1.0
  C  C121  1  0.548800  0.776100  0.181800  1.0
  C  C122  1  0.451200  0.223900  0.818200  1.0
  C  C123  1  0.602000  0.861000  0.205500  1.0
  C  C124  1  0.398000  0.139000  0.794500  1.0
  C  C125  1  0.735500  0.956500  0.145000  1.0
  C  C126  1  0.264500  0.043500  0.855000  1.0
  C  C127  1  0.761600  0.914800  0.077500  1.0
  C  C128  1  0.238400  0.085200  0.922500  1.0
  C  C129  1  0.722500  0.893200  0.015100  1.0
  C  C130  1  0.277500  0.106800  0.984900  1.0
  C  C131  1  0.739900  0.851000  0.954400  1.0
  C  C132  1  0.260100  0.149000  0.045600  1.0
  C  C133  1  0.796600  0.829500  0.961500  1.0
  C  C134  1  0.203400  0.170500  0.038500  1.0
  C  C135  1  0.837700  0.852900  0.024900  1.0
  C  C136  1  0.162300  0.147100  0.975100  1.0
  C  C137  1  0.821000  0.897400  0.086200  1.0
  C  C138  1  0.179000  0.102600  0.913800  1.0
  C  C139  1  0.894900  0.823800  0.013200  1.0
  C  C140  1  0.105100  0.176200  0.986800  1.0
  C  C141  1  0.882800  0.779800  0.942200  1.0
  C  C142  1  0.117200  0.220200  0.057800  1.0
  C  C143  1  0.923900  0.739300  0.912000  1.0
  C  C144  1  0.076100  0.260700  0.088000  1.0
  C  C145  1  0.979200  0.742000  0.953400  1.0
  C  C146  1  0.020800  0.258000  0.046600  1.0
  C  C147  1  0.994400  0.787200  0.027700  1.0
  C  C148  1  0.005600  0.212800  0.972300  1.0
  C  C149  1  0.947000  0.823900  0.054300  1.0
  C  C150  1  0.053000  0.176100  0.945700  1.0
  C  C151  1  0.050100  0.789400  0.071600  1.0
  C  C152  1  0.949900  0.210600  0.928400  1.0
  C  C153  1  0.085200  0.675600  0.139000  1.0
  C  C154  1  0.914800  0.324400  0.861000  1.0
  C  C155  1  0.042600  0.593200  0.127000  1.0
  C  C156  1  0.957400  0.406800  0.873000  1.0
  C  C157  1  0.050000  0.528300  0.074100  1.0
  C  C158  1  0.950000  0.471700  0.925900  1.0
  C  C159  1  0.008800  0.452100  0.057200  1.0
  C  C160  1  0.991200  0.547900  0.942800  1.0
  C  C161  1  0.957000  0.441400  0.095200  1.0
  C  C162  1  0.043000  0.558600  0.904800  1.0
  C  C163  1  0.949500  0.506500  0.150600  1.0
  C  C164  1  0.050500  0.493500  0.849400  1.0
  C  C165  1  0.993100  0.581700  0.163900  1.0
  C  C166  1  0.006900  0.418300  0.836100  1.0
  C  C167  1  0.885600  0.470400  0.172000  1.0
  C  C168  1  0.114400  0.529600  0.828000  1.0
  C  C169  1  0.861500  0.388000  0.132300  1.0
  C  C170  1  0.138500  0.612000  0.867700  1.0
  C  C171  1  0.801400  0.339200  0.139200  1.0
  C  C172  1  0.198600  0.660800  0.860800  1.0
  C  C173  1  0.765500  0.370300  0.189900  1.0
  C  C174  1  0.234500  0.629700  0.810100  1.0
  C  C175  1  0.793500  0.454800  0.232100  1.0
  C  C176  1  0.206500  0.545200  0.767900  1.0
  C  C177  1  0.851400  0.502700  0.222200  1.0
  C  C178  1  0.148600  0.497300  0.777800  1.0
  C  C179  1  0.754000  0.484700  0.287600  1.0
  C  C180  1  0.246000  0.515300  0.712400  1.0
  C  C181  1  0.655300  0.604000  0.494100  1.0
  C  C182  1  0.344700  0.396000  0.505900  1.0
  C  C183  1  0.632800  0.639300  0.558700  1.0
  C  C184  1  0.367200  0.360700  0.441300  1.0
  C  C185  1  0.580600  0.589300  0.574000  1.0
  C  C186  1  0.419400  0.410700  0.426000  1.0
  C  C187  1  0.556500  0.615000  0.635000  1.0
  C  C188  1  0.443500  0.385000  0.365000  1.0
  C  C189  1  0.593000  0.698000  0.683500  1.0
  C  C190  1  0.407000  0.302000  0.316500  1.0
  C  C191  1  0.648100  0.748600  0.668100  1.0
  C  C192  1  0.351900  0.251400  0.331900  1.0
  C  C193  1  0.667900  0.721000  0.606700  1.0
  C  C194  1  0.332100  0.279000  0.393300  1.0
  C  C195  1  0.672300  0.829700  0.729200  1.0
  C  C196  1  0.327700  0.170300  0.270800  1.0
  C  C197  1  0.629300  0.819400  0.775300  1.0
  C  C198  1  0.370700  0.180600  0.224700  1.0
  C  C199  1  0.637300  0.883000  0.838000  1.0
  C  C200  1  0.362700  0.117000  0.162000  1.0
  C  C201  1  0.686500  0.960200  0.854000  1.0
  C  C202  1  0.313500  0.039800  0.146000  1.0
  C  C203  1  0.726900  0.969000  0.804800  1.0
  C  C204  1  0.273100  0.031000  0.195200  1.0
  C  C205  1  0.718800  0.903700  0.741700  1.0
  C  C206  1  0.281200  0.096300  0.258300  1.0
  C  C207  1  0.771000  0.051500  0.821000  1.0
  C  C208  1  0.229000  0.948500  0.179000  1.0
  C  C209  1  0.735500  0.161800  0.755700  1.0
  C  C210  1  0.264500  0.838200  0.244300  1.0
  C  C211  1  0.672600  0.150200  0.709300  1.0
  C  C212  1  0.327400  0.849800  0.290700  1.0
  C  C213  1  0.613000  0.160100  0.734680  1.0
  C  C214  1  0.387000  0.839900  0.265320  1.0
  C  C215  1  0.552800  0.149900  0.692100  1.0
  C  C216  1  0.447200  0.850100  0.307900  1.0
  C  C217  1  0.552300  0.129700  0.624200  1.0
  C  C218  1  0.447700  0.870300  0.375800  1.0
  C  C219  1  0.612000  0.119700  0.598820  1.0
  C  C220  1  0.388000  0.880300  0.401180  1.0
  C  C221  1  0.672200  0.130000  0.641400  1.0
  C  C222  1  0.327800  0.870000  0.358600  1.0
  C  C223  1  0.592300  0.097000  0.526100  1.0
  C  C224  1  0.407700  0.903000  0.473900  1.0
  C  C225  1  0.523400  0.097100  0.514500  1.0
  C  C226  1  0.476600  0.902900  0.485500  1.0
  C  C227  1  0.489700  0.078400  0.449900  1.0
  C  C228  1  0.510300  0.921600  0.550100  1.0
  C  C229  1  0.524800  0.059600  0.396750  1.0
  C  C230  1  0.475200  0.940400  0.603250  1.0
  C  C231  1  0.593600  0.059500  0.408300  1.0
  C  C232  1  0.406400  0.940500  0.591700  1.0
  C  C233  1  0.627340  0.078200  0.473000  1.0
  C  C234  1  0.372660  0.921800  0.527000  1.0
  C  C235  1  0.629800  0.040000  0.350400  1.0
  C  C236  1  0.370200  0.960000  0.649600  1.0
  C  C237  1  0.805700  0.548500  0.463000  1.0
  C  C238  1  0.194300  0.451500  0.537000  1.0
  C  C239  1  0.865500  0.544700  0.504400  1.0
  C  C240  1  0.134500  0.455300  0.495600  1.0
  C  C241  1  0.849600  0.473600  0.502600  1.0
  C  C242  1  0.150400  0.526400  0.497400  1.0
  C  C243  1  0.905000  0.464600  0.536900  1.0
  C  C244  1  0.095000  0.535400  0.463100  1.0
  C  C245  1  0.976700  0.530200  0.574900  1.0
  C  C246  1  0.023300  0.469800  0.425100  1.0
  C  C247  1  0.986900  0.604400  0.577200  1.0
  C  C248  1  0.013100  0.395600  0.422800  1.0
  C  C249  1  0.930800  0.608900  0.539500  1.0
  C  C250  1  0.069200  0.391100  0.460500  1.0
  C  C251  1  0.061480  0.656900  0.619600  1.0
  C  C252  1  0.938520  0.343100  0.380400  1.0
  C  C253  1  0.086000  0.611800  0.636800  1.0
  C  C254  1  0.914000  0.388200  0.363200  1.0
  C  C255  1  0.157600  0.644700  0.676200  1.0
  C  C256  1  0.842400  0.355300  0.323800  1.0
  C  C257  1  0.204660  0.722700  0.698400  1.0
  C  C258  1  0.795340  0.277300  0.301600  1.0
  C  C259  1  0.180100  0.767830  0.681200  1.0
  C  C260  1  0.819900  0.232170  0.318800  1.0
  C  C261  1  0.108500  0.734900  0.641800  1.0
  C  C262  1  0.891500  0.265100  0.358200  1.0
  C  C263  1  0.228200  0.852100  0.706900  1.0
  C  C264  1  0.771800  0.147900  0.293100  1.0
  N  N265  1  0.407600  0.551100  0.134000  1.0
  N  N266  1  0.592400  0.448900  0.866000  1.0
  N  N267  1  0.824800  0.784300  0.910400  1.0
  N  N268  1  0.175200  0.215700  0.089600  1.0
  N  N269  1  0.903400  0.371700  0.085600  1.0
  N  N270  1  0.096600  0.628300  0.914400  1.0
  N  N271  1  0.584500  0.740700  0.747500  1.0
  N  N272  1  0.415500  0.259300  0.252500  1.0
  N  N273  1  0.497800  0.115700  0.574100  1.0
  N  N274  1  0.502200  0.884300  0.425900  1.0
  N  N275  1  0.034200  0.536600  0.610400  1.0
  N  N276  1  0.965800  0.463400  0.389600  1.0
  O  O277  1  0.588100  0.480100  0.316600  1.0
  O  O278  1  0.411900  0.519900  0.683400  1.0
  O  O279  1  0.664800  0.602800  0.344800  1.0
  O  O280  1  0.335200  0.397200  0.655200  1.0
  O  O281  1  0.577900  0.896700  0.182300  1.0
  O  O282  1  0.422100  0.103300  0.817700  1.0
  O  O283  1  0.664900  0.889500  0.244700  1.0
  O  O284  1  0.335100  0.110500  0.755300  1.0
  O  O285  1  0.682200  0.974200  0.136900  1.0
  O  O286  1  0.317800  0.025800  0.863100  1.0
  O  O287  1  0.769100  0.966600  0.199600  1.0
  O  O288  1  0.230900  0.033400  0.800400  1.0
  O  O289  1  0.094000  0.758000  0.044300  1.0
  O  O290  1  0.906000  0.242000  0.955700  1.0
  O  O291  1  0.057000  0.827400  0.136500  1.0
  O  O292  1  0.943000  0.172600  0.863500  1.0
  O  O293  1  0.132200  0.684700  0.106200  1.0
  O  O294  1  0.867800  0.315300  0.893800  1.0
  O  O295  1  0.071000  0.729600  0.182900  1.0
  O  O296  1  0.929000  0.270400  0.817100  1.0
  O  O297  1  0.705600  0.439500  0.298300  1.0
  O  O298  1  0.294400  0.560500  0.701700  1.0
  O  O299  1  0.780600  0.560300  0.324200  1.0
  O  O300  1  0.219400  0.439700  0.675800  1.0
  O  O301  1  0.626800  0.529500  0.454700  1.0
  O  O302  1  0.373200  0.470500  0.545300  1.0
  O  O303  1  0.706000  0.652100  0.482700  1.0
  O  O304  1  0.294000  0.347900  0.517300  1.0
  O  O305  1  0.774000  0.107900  0.875400  1.0
  O  O306  1  0.226000  0.892100  0.124600  1.0
  O  O307  1  0.808300  0.057100  0.777500  1.0
  O  O308  1  0.191700  0.942900  0.222500  1.0
  O  O309  1  0.734400  0.185700  0.818700  1.0
  O  O310  1  0.265600  0.814300  0.181300  1.0
  O  O311  1  0.792000  0.153000  0.732000  1.0
  O  O312  1  0.208000  0.847000  0.268000  1.0
  O  O313  1  0.600700  0.036100  0.297000  1.0
  O  O314  1  0.399300  0.963900  0.703000  1.0
  O  O315  1  0.689000  0.030300  0.359200  1.0
  O  O316  1  0.311000  0.969700  0.640800  1.0
  O  O317  1  0.745300  0.491300  0.435700  1.0
  O  O318  1  0.254700  0.508700  0.564300  1.0
  O  O319  1  0.822300  0.611400  0.460400  1.0
  O  O320  1  0.177700  0.388600  0.539600  1.0
  O  O321  1  0.291500  0.881900  0.747200  1.0
  O  O322  1  0.708500  0.118100  0.252800  1.0
  O  O323  1  0.204300  0.889700  0.685800  1.0
  O  O324  1  0.795700  0.110300  0.314200  1.0
  O  O325  1  0.601100  0.355200  0.356900  1.0
  O  O326  1  0.398900  0.644800  0.643100  1.0
  O  O327  1  0.817000  0.735700  0.424400  1.0
  O  O328  1  0.183000  0.264300  0.575600  1.0
  O  O329  1  0.550300  0.018800  0.160800  1.0
  O  O330  1  0.449700  0.981200  0.839200  1.0
  O  O331  1  0.823300  0.986500  0.335700  1.0
  O  O332  1  0.176700  0.013500  0.664300  1.0
  O  O333  1  0.239200  0.738600  0.027600  1.0
  O  O334  1  0.760800  0.261400  0.972400  1.0
  O  O335  1  0.071200  0.891300  0.287500  1.0
  O  O336  1  0.928800  0.108700  0.712500  1.0
