# generated using pymatgen
data_CuH19C27NO5
_symmetry_space_group_name_H-M   'P 1'
_cell_length_a   18.03470000
_cell_length_b   27.16910000
_cell_length_c   31.13500000
_cell_angle_alpha   90.00000000
_cell_angle_beta   90.00000000
_cell_angle_gamma   105.58700000
_symmetry_Int_Tables_number   1
_chemical_formula_structural   CuH19C27NO5
_chemical_formula_sum   'Cu16 H304 C432 N16 O80'
_cell_volume   14694.68025192
_cell_formula_units_Z   16
loop_
 _symmetry_equiv_pos_site_id
 _symmetry_equiv_pos_as_xyz
  1  'x, y, z'
loop_
 _atom_site_type_symbol
 _atom_site_label
 _atom_site_symmetry_multiplicity
 _atom_site_fract_x
 _atom_site_fract_y
 _atom_site_fract_z
 _atom_site_occupancy
  Cu  Cu1  1  0.104150  0.299130  0.937230  1
  Cu  Cu2  1  0.395850  0.200870  0.437230  1
  Cu  Cu3  1  0.895850  0.700870  0.062770  1
  Cu  Cu4  1  0.604150  0.799130  0.562770  1
  Cu  Cu5  1  0.211980  0.268630  0.896820  1
  Cu  Cu6  1  0.288020  0.231370  0.396820  1
  Cu  Cu7  1  0.788020  0.731370  0.103180  1
  Cu  Cu8  1  0.711980  0.768630  0.603180  1
  Cu  Cu9  1  0.709930  0.142250  0.722800  1
  Cu  Cu10  1  0.790070  0.357750  0.222800  1
  Cu  Cu11  1  0.290070  0.857750  0.277200  1
  Cu  Cu12  1  0.209930  0.642250  0.777200  1
  Cu  Cu13  1  0.602930  0.172580  0.763150  1
  Cu  Cu14  1  0.897070  0.327420  0.263150  1
  Cu  Cu15  1  0.397070  0.827420  0.236850  1
  Cu  Cu16  1  0.102930  0.672580  0.736850  1
  H  H17  1  0.664400  0.334000  0.934300  1
  H  H18  1  0.835600  0.166000  0.434300  1
  H  H19  1  0.335600  0.666000  0.065700  1
  H  H20  1  0.164400  0.834000  0.565700  1
  H  H21  1  0.598900  0.351100  0.955000  1
  H  H22  1  0.901100  0.148900  0.455000  1
  H  H23  1  0.401100  0.648900  0.045000  1
  H  H24  1  0.098900  0.851100  0.545000  1
  H  H25  1  0.410800  0.386600  0.717600  1
  H  H26  1  0.089200  0.113400  0.217600  1
  H  H27  1  0.589200  0.613400  0.282400  1
  H  H28  1  0.910800  0.886600  0.782400  1
  H  H29  1  0.473300  0.370000  0.693200  1
  H  H30  1  0.026700  0.130000  0.193200  1
  H  H31  1  0.526700  0.630000  0.306800  1
  H  H32  1  0.973300  0.870000  0.806800  1
  H  H33  1  0.207400  0.092100  0.713600  1
  H  H34  1  0.292600  0.407900  0.213600  1
  H  H35  1  0.792600  0.907900  0.286400  1
  H  H36  1  0.707400  0.592100  0.786400  1
  H  H37  1  0.140600  0.106900  0.735200  1
  H  H38  1  0.359400  0.393100  0.235200  1
  H  H39  1  0.859400  0.893100  0.264800  1
  H  H40  1  0.640600  0.606900  0.764800  1
  H  H41  1  0.377400  0.073900  0.972300  1
  H  H42  1  0.122600  0.426100  0.472300  1
  H  H43  1  0.622600  0.926100  0.027700  1
  H  H44  1  0.877400  0.573900  0.527700  1
  H  H45  1  0.439500  0.054700  0.950000  1
  H  H46  1  0.060500  0.445300  0.450000  1
  H  H47  1  0.560500  0.945300  0.050000  1
  H  H48  1  0.939500  0.554700  0.550000  1
  H  H49  1  0.238000  0.400200  0.029400  1
  H  H50  1  0.262000  0.099800  0.529400  1
  H  H51  1  0.762000  0.599800  0.970600  1
  H  H52  1  0.738000  0.900200  0.470600  1
  H  H53  1  0.329400  0.456300  0.072300  1
  H  H54  1  0.170600  0.043700  0.572300  1
  H  H55  1  0.670600  0.543700  0.927700  1
  H  H56  1  0.829400  0.956300  0.427700  1
  H  H57  1  0.460700  0.465200  0.061100  1
  H  H58  1  0.039300  0.034800  0.561100  1
  H  H59  1  0.539300  0.534800  0.938900  1
  H  H60  1  0.960700  0.965200  0.438900  1
  H  H61  1  0.409100  0.362100  0.964200  1
  H  H62  1  0.090900  0.137900  0.464200  1
  H  H63  1  0.590900  0.637900  0.035800  1
  H  H64  1  0.909100  0.862100  0.535800  1
  H  H65  1  0.710400  0.502400  0.021000  1
  H  H66  1  0.789600  0.997600  0.521000  1
  H  H67  1  0.289600  0.497600  0.979000  1
  H  H68  1  0.210400  0.002400  0.479000  1
  H  H69  1  0.884200  0.456600  0.965900  1
  H  H70  1  0.615800  0.043400  0.465900  1
  H  H71  1  0.115800  0.543400  0.034100  1
  H  H72  1  0.384200  0.956600  0.534100  1
  H  H73  1  0.965400  0.351500  0.875800  1
  H  H74  1  0.534600  0.148500  0.375800  1
  H  H75  1  0.034600  0.648500  0.124200  1
  H  H76  1  0.465400  0.851500  0.624200  1
  H  H77  1  0.002800  0.308300  0.818200  1
  H  H78  1  0.497200  0.191700  0.318200  1
  H  H79  1  0.997200  0.691700  0.181800  1
  H  H80  1  0.502800  0.808300  0.681800  1
  H  H81  1  0.909800  0.249900  0.777900  1
  H  H82  1  0.590200  0.250100  0.277900  1
  H  H83  1  0.090200  0.750100  0.222100  1
  H  H84  1  0.409800  0.749900  0.722100  1
  H  H85  1  0.741900  0.277800  0.852900  1
  H  H86  1  0.758100  0.222200  0.352900  1
  H  H87  1  0.258100  0.722200  0.147100  1
  H  H88  1  0.241900  0.777800  0.647100  1
  H  H89  1  0.832100  0.556200  0.028400  1
  H  H90  1  0.667900  0.943800  0.528400  1
  H  H91  1  0.167900  0.443800  0.971600  1
  H  H92  1  0.332100  0.056200  0.471600  1
  H  H93  1  0.944300  0.597000  0.988500  1
  H  H94  1  0.555700  0.903000  0.488500  1
  H  H95  1  0.055700  0.403000  0.011500  1
  H  H96  1  0.444300  0.097000  0.511500  1
  H  H97  1  0.873800  0.575600  0.956400  1
  H  H98  1  0.626200  0.924400  0.456400  1
  H  H99  1  0.126200  0.424400  0.043600  1
  H  H100  1  0.373800  0.075600  0.543600  1
  H  H101  1  0.938000  0.545400  0.962200  1
  H  H102  1  0.562000  0.954600  0.462200  1
  H  H103  1  0.062000  0.454600  0.037800  1
  H  H104  1  0.438000  0.045400  0.537800  1
  H  H105  1  0.953400  0.552600  0.056400  1
  H  H106  1  0.546600  0.947400  0.556400  1
  H  H107  1  0.046600  0.447400  0.943600  1
  H  H108  1  0.453400  0.052600  0.443600  1
  H  H109  1  0.946600  0.500200  0.031300  1
  H  H110  1  0.553400  0.999800  0.531300  1
  H  H111  1  0.053400  0.499800  0.968700  1
  H  H112  1  0.446600  0.000200  0.468700  1
  H  H113  1  0.888400  0.502100  0.069700  1
  H  H114  1  0.611600  0.997900  0.569700  1
  H  H115  1  0.111600  0.497900  0.930300  1
  H  H116  1  0.388400  0.002100  0.430300  1
  H  H117  1  0.777700  0.259300  0.628000  1
  H  H118  1  0.722300  0.240700  0.128000  1
  H  H119  1  0.222300  0.740700  0.372000  1
  H  H120  1  0.277700  0.759300  0.872000  1
  H  H121  1  0.798100  0.327900  0.579900  1
  H  H122  1  0.701900  0.172100  0.079900  1
  H  H123  1  0.201900  0.672100  0.420100  1
  H  H124  1  0.298100  0.827900  0.920100  1
  H  H125  1  0.716400  0.381800  0.580900  1
  H  H126  1  0.783600  0.118200  0.080900  1
  H  H127  1  0.283600  0.618200  0.419100  1
  H  H128  1  0.216400  0.881800  0.919100  1
  H  H129  1  0.593900  0.298500  0.677800  1
  H  H130  1  0.906100  0.201500  0.177800  1
  H  H131  1  0.406100  0.701500  0.322200  1
  H  H132  1  0.093900  0.798500  0.822200  1
  H  H133  1  0.553500  0.486800  0.586100  1
  H  H134  1  0.946500  0.013200  0.086100  1
  H  H135  1  0.446500  0.513200  0.413900  1
  H  H136  1  0.053500  0.986800  0.913900  1
  H  H137  1  0.387600  0.531700  0.650500  1
  H  H138  1  0.112400  0.968300  0.150500  1
  H  H139  1  0.612400  0.468300  0.349500  1
  H  H140  1  0.887600  0.031700  0.849500  1
  H  H141  1  0.257700  0.523000  0.773100  1
  H  H142  1  0.242300  0.977000  0.273100  1
  H  H143  1  0.742300  0.477000  0.226900  1
  H  H144  1  0.757700  0.023000  0.726900  1
  H  H145  1  0.176800  0.518000  0.832600  1
  H  H146  1  0.323200  0.982000  0.332600  1
  H  H147  1  0.823200  0.482000  0.167400  1
  H  H148  1  0.676800  0.018000  0.667400  1
  H  H149  1  0.135100  0.441300  0.870800  1
  H  H150  1  0.364900  0.058700  0.370800  1
  H  H151  1  0.864900  0.558700  0.129200  1
  H  H152  1  0.635100  0.941300  0.629200  1
  H  H153  1  0.255100  0.374600  0.789900  1
  H  H154  1  0.244900  0.125400  0.289900  1
  H  H155  1  0.744900  0.625400  0.210100  1
  H  H156  1  0.755100  0.874600  0.710100  1
  H  H157  1  0.442800  0.582400  0.596500  1
  H  H158  1  0.057200  0.917600  0.096500  1
  H  H159  1  0.557200  0.417600  0.403500  1
  H  H160  1  0.942800  0.082400  0.903500  1
  H  H161  1  0.563500  0.626300  0.566000  1
  H  H162  1  0.936500  0.873700  0.066000  1
  H  H163  1  0.436500  0.373700  0.434000  1
  H  H164  1  0.063500  0.126300  0.934000  1
  H  H165  1  0.595200  0.577400  0.573700  1
  H  H166  1  0.904800  0.922600  0.073700  1
  H  H167  1  0.404800  0.422600  0.426300  1
  H  H168  1  0.095200  0.077400  0.926300  1
  H  H169  1  0.576000  0.608600  0.613900  1
  H  H170  1  0.924000  0.891400  0.113900  1
  H  H171  1  0.424000  0.391400  0.386100  1
  H  H172  1  0.076000  0.108600  0.886100  1
  H  H173  1  0.458000  0.575700  0.521000  1
  H  H174  1  0.042000  0.924300  0.021000  1
  H  H175  1  0.542000  0.424300  0.479000  1
  H  H176  1  0.958000  0.075700  0.979000  1
  H  H177  1  0.401000  0.524000  0.538900  1
  H  H178  1  0.099000  0.976000  0.038900  1
  H  H179  1  0.599000  0.476000  0.461100  1
  H  H180  1  0.901000  0.024000  0.961100  1
  H  H181  1  0.488400  0.526100  0.527700  1
  H  H182  1  0.011600  0.973900  0.027700  1
  H  H183  1  0.511600  0.473900  0.472300  1
  H  H184  1  0.988400  0.026100  0.972300  1
  H  H185  1  0.901700  0.195400  0.884300  1
  H  H186  1  0.598300  0.304600  0.384300  1
  H  H187  1  0.098300  0.804600  0.115700  1
  H  H188  1  0.401700  0.695400  0.615700  1
  H  H189  1  0.806900  0.139500  0.843100  1
  H  H190  1  0.693100  0.360500  0.343100  1
  H  H191  1  0.193100  0.860500  0.156900  1
  H  H192  1  0.306900  0.639500  0.656900  1
  H  H193  1  0.842100  0.096900  0.784400  1
  H  H194  1  0.657900  0.403100  0.284400  1
  H  H195  1  0.157900  0.903100  0.215600  1
  H  H196  1  0.342100  0.596900  0.715600  1
  H  H197  1  0.067000  0.166100  0.808100  1
  H  H198  1  0.433000  0.333900  0.308100  1
  H  H199  1  0.933000  0.833900  0.191900  1
  H  H200  1  0.567000  0.666100  0.691900  1
  H  H201  1  0.920500  0.007800  0.676500  1
  H  H202  1  0.579500  0.492200  0.176500  1
  H  H203  1  0.079500  0.992200  0.323500  1
  H  H204  1  0.420500  0.507800  0.823500  1
  H  H205  1  0.094000  0.965800  0.617100  1
  H  H206  1  0.406000  0.534200  0.117100  1
  H  H207  1  0.906000  0.034200  0.382900  1
  H  H208  1  0.594000  0.465800  0.882900  1
  H  H209  1  0.337700  0.961800  0.617800  1
  H  H210  1  0.162300  0.538200  0.117800  1
  H  H211  1  0.662300  0.038200  0.382200  1
  H  H212  1  0.837700  0.461800  0.882200  1
  H  H213  1  0.466200  0.959500  0.613000  1
  H  H214  1  0.033800  0.540500  0.113000  1
  H  H215  1  0.533800  0.040500  0.387000  1
  H  H216  1  0.966200  0.459500  0.887000  1
  H  H217  1  0.562200  0.020600  0.649100  1
  H  H218  1  0.937800  0.479400  0.149100  1
  H  H219  1  0.437800  0.979400  0.350900  1
  H  H220  1  0.062200  0.520600  0.850900  1
  H  H221  1  0.401300  0.086400  0.694800  1
  H  H222  1  0.098700  0.413600  0.194800  1
  H  H223  1  0.598700  0.913600  0.305200  1
  H  H224  1  0.901300  0.586400  0.805200  1
  H  H225  1  0.969400  0.936200  0.588000  1
  H  H226  1  0.530600  0.563800  0.088000  1
  H  H227  1  0.030600  0.063800  0.412000  1
  H  H228  1  0.469400  0.436200  0.912000  1
  H  H229  1  0.880900  0.865300  0.621000  1
  H  H230  1  0.619100  0.634700  0.121000  1
  H  H231  1  0.119100  0.134700  0.379000  1
  H  H232  1  0.380900  0.365300  0.879000  1
  H  H233  1  0.891000  0.895200  0.665900  1
  H  H234  1  0.609000  0.604800  0.165900  1
  H  H235  1  0.109000  0.104800  0.334100  1
  H  H236  1  0.391000  0.395200  0.834100  1
  H  H237  1  0.961700  0.877900  0.645800  1
  H  H238  1  0.538300  0.622100  0.145800  1
  H  H239  1  0.038300  0.122100  0.354200  1
  H  H240  1  0.461700  0.377900  0.854200  1
  H  H241  1  0.836600  0.933700  0.586300  1
  H  H242  1  0.663400  0.566300  0.086300  1
  H  H243  1  0.163400  0.066300  0.413700  1
  H  H244  1  0.336600  0.433700  0.913700  1
  H  H245  1  0.887700  0.991800  0.588100  1
  H  H246  1  0.612300  0.508200  0.088100  1
  H  H247  1  0.112300  0.008200  0.411900  1
  H  H248  1  0.387700  0.491800  0.911900  1
  H  H249  1  0.845600  0.964700  0.630500  1
  H  H250  1  0.654400  0.535300  0.130500  1
  H  H251  1  0.154400  0.035300  0.369500  1
  H  H252  1  0.345600  0.464700  0.869500  1
  H  H253  1  0.738900  0.026600  0.809900  1
  H  H254  1  0.761100  0.473400  0.309900  1
  H  H255  1  0.261100  0.973400  0.190100  1
  H  H256  1  0.238900  0.526600  0.690100  1
  H  H257  1  0.731300  0.961200  0.860000  1
  H  H258  1  0.768700  0.538800  0.360000  1
  H  H259  1  0.268700  0.038800  0.140000  1
  H  H260  1  0.231300  0.461200  0.640000  1
  H  H261  1  0.630700  0.941600  0.910000  1
  H  H262  1  0.869300  0.558400  0.410000  1
  H  H263  1  0.369300  0.058400  0.090000  1
  H  H264  1  0.130700  0.441600  0.590000  1
  H  H265  1  0.545300  0.052600  0.859700  1
  H  H266  1  0.954700  0.447400  0.359700  1
  H  H267  1  0.454700  0.947400  0.140300  1
  H  H268  1  0.045300  0.552600  0.640300  1
  H  H269  1  0.387800  0.884400  0.982900  1
  H  H270  1  0.112200  0.615600  0.482900  1
  H  H271  1  0.612200  0.115600  0.017100  1
  H  H272  1  0.887800  0.384400  0.517100  1
  H  H273  1  0.222700  0.935800  0.042000  1
  H  H274  1  0.277300  0.564200  0.542000  1
  H  H275  1  0.777300  0.064200  0.958000  1
  H  H276  1  0.722700  0.435800  0.458000  1
  H  H277  1  0.160600  0.081100  0.091600  1
  H  H278  1  0.339400  0.418900  0.591600  1
  H  H279  1  0.839400  0.918900  0.908400  1
  H  H280  1  0.660600  0.581100  0.408400  1
  H  H281  1  0.097400  0.144700  0.103600  1
  H  H282  1  0.402600  0.355300  0.603600  1
  H  H283  1  0.902600  0.855300  0.896400  1
  H  H284  1  0.597400  0.644700  0.396400  1
  H  H285  1  0.094600  0.204200  0.049700  1
  H  H286  1  0.405400  0.295800  0.549700  1
  H  H287  1  0.905400  0.795800  0.950300  1
  H  H288  1  0.594600  0.704200  0.450300  1
  H  H289  1  0.218200  0.136600  0.971800  1
  H  H290  1  0.281800  0.363400  0.471800  1
  H  H291  1  0.781800  0.863400  0.028200  1
  H  H292  1  0.718200  0.636600  0.528200  1
  H  H293  1  0.283500  0.823400  0.017300  1
  H  H294  1  0.216500  0.676600  0.517300  1
  H  H295  1  0.716500  0.176600  0.982700  1
  H  H296  1  0.783500  0.323400  0.482700  1
  H  H297  1  0.257300  0.812900  0.092400  1
  H  H298  1  0.242700  0.687100  0.592400  1
  H  H299  1  0.742700  0.187100  0.907600  1
  H  H300  1  0.757300  0.312900  0.407600  1
  H  H301  1  0.264000  0.872700  0.096700  1
  H  H302  1  0.236000  0.627300  0.596700  1
  H  H303  1  0.736000  0.127300  0.903300  1
  H  H304  1  0.764000  0.372700  0.403300  1
  H  H305  1  0.338300  0.854000  0.084600  1
  H  H306  1  0.161700  0.646000  0.584600  1
  H  H307  1  0.661700  0.146000  0.915400  1
  H  H308  1  0.838300  0.354000  0.415400  1
  H  H309  1  0.152600  0.801300  0.040100  1
  H  H310  1  0.347400  0.698700  0.540100  1
  H  H311  1  0.847400  0.198700  0.959900  1
  H  H312  1  0.652600  0.301300  0.459900  1
  H  H313  1  0.162400  0.835600  0.997600  1
  H  H314  1  0.337600  0.664400  0.497600  1
  H  H315  1  0.837600  0.164400  0.002400  1
  H  H316  1  0.662400  0.335600  0.502400  1
  H  H317  1  0.155300  0.860500  0.043500  1
  H  H318  1  0.344700  0.639500  0.543500  1
  H  H319  1  0.844700  0.139500  0.956500  1
  H  H320  1  0.655300  0.360500  0.456500  1
  C  C321  1  0.256500  0.342600  0.964200  1
  C  C322  1  0.243500  0.157400  0.464200  1
  C  C323  1  0.743500  0.657400  0.035800  1
  C  C324  1  0.756500  0.842600  0.535800  1
  C  C325  1  0.314910  0.375850  0.992770  1
  C  C326  1  0.185090  0.124150  0.492770  1
  C  C327  1  0.685090  0.624150  0.007230  1
  C  C328  1  0.814910  0.875850  0.507230  1
  C  C329  1  0.291260  0.403830  0.024860  1
  C  C330  1  0.208740  0.096170  0.524860  1
  C  C331  1  0.708740  0.596170  0.975140  1
  C  C332  1  0.791260  0.903830  0.475140  1
  C  C333  1  0.345600  0.437140  0.050340  1
  C  C334  1  0.154400  0.062860  0.550340  1
  C  C335  1  0.654400  0.562860  0.949660  1
  C  C336  1  0.845600  0.937140  0.449660  1
  C  C337  1  0.423580  0.442470  0.043730  1
  C  C338  1  0.076420  0.057530  0.543730  1
  C  C339  1  0.576420  0.557530  0.956270  1
  C  C340  1  0.923580  0.942470  0.456270  1
  C  C341  1  0.447230  0.414490  0.011640  1
  C  C342  1  0.052770  0.085510  0.511640  1
  C  C343  1  0.552770  0.585510  0.988360  1
  C  C344  1  0.947230  0.914490  0.488360  1
  C  C345  1  0.392900  0.381180  0.986160  1
  C  C346  1  0.107100  0.118820  0.486160  1
  C  C347  1  0.607100  0.618820  0.013840  1
  C  C348  1  0.892900  0.881180  0.513840  1
  C  C349  1  0.528300  0.420000  0.004000  1
  C  C350  1  0.971700  0.080000  0.504000  1
  C  C351  1  0.471700  0.580000  0.996000  1
  C  C352  1  0.028300  0.920000  0.496000  1
  C  C353  1  0.595000  0.426200  0.999100  1
  C  C354  1  0.905000  0.073800  0.499100  1
  C  C355  1  0.405000  0.573800  0.000900  1
  C  C356  1  0.095000  0.926200  0.500900  1
  C  C357  1  0.674930  0.434690  0.989050  1
  C  C358  1  0.825070  0.065310  0.489050  1
  C  C359  1  0.325070  0.565310  0.010950  1
  C  C360  1  0.174930  0.934690  0.510950  1
  C  C361  1  0.727600  0.478230  0.004550  1
  C  C362  1  0.772400  0.021770  0.504550  1
  C  C363  1  0.272400  0.521770  0.995450  1
  C  C364  1  0.227600  0.978230  0.495450  1
  C  C365  1  0.805600  0.486380  0.995940  1
  C  C366  1  0.694400  0.013620  0.495940  1
  C  C367  1  0.194400  0.513620  0.004060  1
  C  C368  1  0.305600  0.986380  0.504060  1
  C  C369  1  0.830920  0.450990  0.971820  1
  C  C370  1  0.669080  0.049010  0.471820  1
  C  C371  1  0.169080  0.549010  0.028180  1
  C  C372  1  0.330920  0.950990  0.528180  1
  C  C373  1  0.778200  0.407440  0.956310  1
  C  C374  1  0.721800  0.092560  0.456310  1
  C  C375  1  0.221800  0.592560  0.043690  1
  C  C376  1  0.278200  0.907440  0.543690  1
  C  C377  1  0.700200  0.399290  0.964930  1
  C  C378  1  0.799800  0.100710  0.464930  1
  C  C379  1  0.299800  0.600710  0.035070  1
  C  C380  1  0.200200  0.899290  0.535070  1
  C  C381  1  0.804900  0.374000  0.928400  1
  C  C382  1  0.695100  0.126000  0.428400  1
  C  C383  1  0.195100  0.626000  0.071600  1
  C  C384  1  0.304900  0.874000  0.571600  1
  C  C385  1  0.825700  0.347700  0.903000  1
  C  C386  1  0.674300  0.152300  0.403000  1
  C  C387  1  0.174300  0.652300  0.097000  1
  C  C388  1  0.325700  0.847700  0.597000  1
  C  C389  1  0.850100  0.318760  0.869730  1
  C  C390  1  0.649900  0.181240  0.369730  1
  C  C391  1  0.149900  0.681240  0.130270  1
  C  C392  1  0.350100  0.818760  0.630270  1
  C  C393  1  0.927600  0.327820  0.859430  1
  C  C394  1  0.572400  0.172180  0.359430  1
  C  C395  1  0.072400  0.672180  0.140570  1
  C  C396  1  0.427600  0.827820  0.640570  1
  C  C397  1  0.949840  0.302140  0.825220  1
  C  C398  1  0.550160  0.197860  0.325220  1
  C  C399  1  0.050160  0.697860  0.174780  1
  C  C400  1  0.449840  0.802140  0.674780  1
  C  C401  1  0.894600  0.267420  0.801310  1
  C  C402  1  0.605400  0.232580  0.301310  1
  C  C403  1  0.105400  0.732580  0.198690  1
  C  C404  1  0.394600  0.767420  0.698690  1
  C  C405  1  0.817090  0.258360  0.811610  1
  C  C406  1  0.682910  0.241640  0.311610  1
  C  C407  1  0.182910  0.741640  0.188390  1
  C  C408  1  0.317090  0.758360  0.688390  1
  C  C409  1  0.794840  0.284030  0.845820  1
  C  C410  1  0.705160  0.215970  0.345820  1
  C  C411  1  0.205160  0.715970  0.154180  1
  C  C412  1  0.294840  0.784030  0.654180  1
  C  C413  1  0.756500  0.219500  0.786600  1
  C  C414  1  0.743500  0.280500  0.286600  1
  C  C415  1  0.243500  0.780500  0.213400  1
  C  C416  1  0.256500  0.719500  0.713400  1
  C  C417  1  0.861900  0.534930  0.013620  1
  C  C418  1  0.638100  0.965070  0.513620  1
  C  C419  1  0.138100  0.465070  0.986380  1
  C  C420  1  0.361900  0.034930  0.486380  1
  C  C421  1  0.908700  0.566020  0.976860  1
  C  C422  1  0.591300  0.933980  0.476860  1
  C  C423  1  0.091300  0.433980  0.023140  1
  C  C424  1  0.408700  0.066020  0.523140  1
  C  C425  1  0.917600  0.521200  0.045660  1
  C  C426  1  0.582400  0.978800  0.545660  1
  C  C427  1  0.082400  0.478800  0.954340  1
  C  C428  1  0.417600  0.021200  0.454340  1
  C  C429  1  0.670700  0.228100  0.688200  1
  C  C430  1  0.829300  0.271900  0.188200  1
  C  C431  1  0.329300  0.771900  0.311800  1
  C  C432  1  0.170700  0.728100  0.811800  1
  C  C433  1  0.683800  0.272460  0.657390  1
  C  C434  1  0.816200  0.227540  0.157390  1
  C  C435  1  0.316200  0.727540  0.342610  1
  C  C436  1  0.183800  0.772460  0.842610  1
  C  C437  1  0.744500  0.281190  0.628330  1
  C  C438  1  0.755500  0.218810  0.128330  1
  C  C439  1  0.255500  0.718810  0.371670  1
  C  C440  1  0.244500  0.781190  0.871670  1
  C  C441  1  0.756700  0.321900  0.599810  1
  C  C442  1  0.743300  0.178100  0.099810  1
  C  C443  1  0.243300  0.678100  0.400190  1
  C  C444  1  0.256700  0.821900  0.900190  1
  C  C445  1  0.708100  0.353970  0.600340  1
  C  C446  1  0.791900  0.146030  0.100340  1
  C  C447  1  0.291900  0.646030  0.399660  1
  C  C448  1  0.208100  0.853970  0.899660  1
  C  C449  1  0.647500  0.345240  0.629400  1
  C  C450  1  0.852500  0.154760  0.129400  1
  C  C451  1  0.352500  0.654760  0.370600  1
  C  C452  1  0.147500  0.845240  0.870600  1
  C  C453  1  0.635300  0.304490  0.657920  1
  C  C454  1  0.864700  0.195510  0.157920  1
  C  C455  1  0.364700  0.695510  0.342080  1
  C  C456  1  0.135300  0.804490  0.842080  1
  C  C457  1  0.598300  0.379400  0.628800  1
  C  C458  1  0.901700  0.120600  0.128800  1
  C  C459  1  0.401700  0.620600  0.371200  1
  C  C460  1  0.098300  0.879400  0.871200  1
  C  C461  1  0.557000  0.407000  0.631500  1
  C  C462  1  0.943000  0.093000  0.131500  1
  C  C463  1  0.443000  0.593000  0.368500  1
  C  C464  1  0.057000  0.907000  0.868500  1
  C  C465  1  0.507500  0.440390  0.636210  1
  C  C466  1  0.992500  0.059610  0.136210  1
  C  C467  1  0.492500  0.559610  0.363790  1
  C  C468  1  0.007500  0.940390  0.863790  1
  C  C469  1  0.516700  0.481790  0.608590  1
  C  C470  1  0.983300  0.018210  0.108590  1
  C  C471  1  0.483300  0.518210  0.391410  1
  C  C472  1  0.016700  0.981790  0.891410  1
  C  C473  1  0.472000  0.515800  0.613940  1
  C  C474  1  0.028000  0.984200  0.113940  1
  C  C475  1  0.528000  0.484200  0.386060  1
  C  C476  1  0.972000  0.015800  0.886060  1
  C  C477  1  0.418100  0.508410  0.646900  1
  C  C478  1  0.081900  0.991590  0.146900  1
  C  C479  1  0.581900  0.491590  0.353100  1
  C  C480  1  0.918100  0.008410  0.853100  1
  C  C481  1  0.409000  0.467010  0.674510  1
  C  C482  1  0.091000  0.032990  0.174510  1
  C  C483  1  0.591000  0.532990  0.325490  1
  C  C484  1  0.909000  0.967010  0.825490  1
  C  C485  1  0.453700  0.433000  0.669170  1
  C  C486  1  0.046300  0.067000  0.169170  1
  C  C487  1  0.546300  0.567000  0.330830  1
  C  C488  1  0.953700  0.933000  0.830830  1
  C  C489  1  0.355500  0.461100  0.709000  1
  C  C490  1  0.144500  0.038900  0.209000  1
  C  C491  1  0.644500  0.538900  0.291000  1
  C  C492  1  0.855500  0.961100  0.791000  1
  C  C493  1  0.313500  0.454000  0.738900  1
  C  C494  1  0.186500  0.046000  0.238900  1
  C  C495  1  0.686500  0.546000  0.261100  1
  C  C496  1  0.813500  0.954000  0.761100  1
  C  C497  1  0.264000  0.449220  0.775870  1
  C  C498  1  0.236000  0.050780  0.275870  1
  C  C499  1  0.736000  0.550780  0.224130  1
  C  C500  1  0.764000  0.949220  0.724130  1
  C  C501  1  0.240800  0.491820  0.788560  1
  C  C502  1  0.259200  0.008180  0.288560  1
  C  C503  1  0.759200  0.508180  0.211440  1
  C  C504  1  0.740800  0.991820  0.711440  1
  C  C505  1  0.192700  0.488880  0.823920  1
  C  C506  1  0.307300  0.011120  0.323920  1
  C  C507  1  0.807300  0.511120  0.176080  1
  C  C508  1  0.692700  0.988880  0.676080  1
  C  C509  1  0.167900  0.443340  0.846590  1
  C  C510  1  0.332100  0.056660  0.346590  1
  C  C511  1  0.832100  0.556660  0.153410  1
  C  C512  1  0.667900  0.943340  0.653410  1
  C  C513  1  0.191100  0.400730  0.833900  1
  C  C514  1  0.308900  0.099270  0.333900  1
  C  C515  1  0.808900  0.599270  0.166100  1
  C  C516  1  0.691100  0.900730  0.666100  1
  C  C517  1  0.239200  0.403680  0.798540  1
  C  C518  1  0.260800  0.096320  0.298540  1
  C  C519  1  0.760800  0.596320  0.201460  1
  C  C520  1  0.739200  0.903680  0.701460  1
  C  C521  1  0.173400  0.354000  0.862610  1
  C  C522  1  0.326600  0.146000  0.362610  1
  C  C523  1  0.826600  0.646000  0.137390  1
  C  C524  1  0.673400  0.854000  0.637390  1
  C  C525  1  0.477800  0.562510  0.585150  1
  C  C526  1  0.022200  0.937490  0.085150  1
  C  C527  1  0.522200  0.437490  0.414850  1
  C  C528  1  0.977800  0.062510  0.914850  1
  C  C529  1  0.560600  0.596790  0.584660  1
  C  C530  1  0.939400  0.903210  0.084660  1
  C  C531  1  0.439400  0.403210  0.415340  1
  C  C532  1  0.060600  0.096790  0.915340  1
  C  C533  1  0.454200  0.545560  0.539040  1
  C  C534  1  0.045800  0.954440  0.039040  1
  C  C535  1  0.545800  0.454440  0.460960  1
  C  C536  1  0.954200  0.045560  0.960960  1
  C  C537  1  0.053800  0.223300  0.874950  1
  C  C538  1  0.446200  0.276700  0.374950  1
  C  C539  1  0.946200  0.776700  0.125050  1
  C  C540  1  0.553800  0.723300  0.625050  1
  C  C541  1  0.993260  0.186010  0.850040  1
  C  C542  1  0.506740  0.313990  0.350040  1
  C  C543  1  0.006740  0.813990  0.149960  1
  C  C544  1  0.493260  0.686010  0.649960  1
  C  C545  1  0.916000  0.178110  0.860440  1
  C  C546  1  0.584000  0.321890  0.360440  1
  C  C547  1  0.084000  0.821890  0.139560  1
  C  C548  1  0.416000  0.678110  0.639560  1
  C  C549  1  0.859680  0.144920  0.836000  1
  C  C550  1  0.640320  0.355080  0.336000  1
  C  C551  1  0.140320  0.855080  0.164000  1
  C  C552  1  0.359680  0.644920  0.664000  1
  C  C553  1  0.880630  0.119610  0.801150  1
  C  C554  1  0.619370  0.380390  0.301150  1
  C  C555  1  0.119370  0.880390  0.198850  1
  C  C556  1  0.380630  0.619610  0.698850  1
  C  C557  1  0.957900  0.127510  0.790750  1
  C  C558  1  0.542100  0.372490  0.290750  1
  C  C559  1  0.042100  0.872490  0.209250  1
  C  C560  1  0.457900  0.627510  0.709250  1
  C  C561  1  0.014210  0.160700  0.815200  1
  C  C562  1  0.485790  0.339300  0.315200  1
  C  C563  1  0.985790  0.839300  0.184800  1
  C  C564  1  0.514210  0.660700  0.684800  1
  C  C565  1  0.980600  0.100200  0.755700  1
  C  C566  1  0.519400  0.399800  0.255700  1
  C  C567  1  0.019400  0.899800  0.244300  1
  C  C568  1  0.480600  0.600200  0.744300  1
  C  C569  1  0.001300  0.076200  0.729000  1
  C  C570  1  0.498700  0.423800  0.229000  1
  C  C571  1  0.998700  0.923800  0.271000  1
  C  C572  1  0.501300  0.576200  0.771000  1
  C  C573  1  0.027400  0.046880  0.697080  1
  C  C574  1  0.472600  0.453120  0.197080  1
  C  C575  1  0.972600  0.953120  0.302920  1
  C  C576  1  0.527400  0.546880  0.802920  1
  C  C577  1  0.973990  0.011390  0.672760  1
  C  C578  1  0.526010  0.488610  0.172760  1
  C  C579  1  0.026010  0.988610  0.327240  1
  C  C580  1  0.473990  0.511390  0.827240  1
  C  C581  1  0.998810  0.981180  0.642970  1
  C  C582  1  0.501190  0.518820  0.142970  1
  C  C583  1  0.001190  0.018820  0.357030  1
  C  C584  1  0.498810  0.481180  0.857030  1
  C  C585  1  0.077050  0.986450  0.637500  1
  C  C586  1  0.422950  0.513550  0.137500  1
  C  C587  1  0.922950  0.013550  0.362500  1
  C  C588  1  0.577050  0.486450  0.862500  1
  C  C589  1  0.130480  0.021940  0.661820  1
  C  C590  1  0.369520  0.478060  0.161820  1
  C  C591  1  0.869520  0.978060  0.338180  1
  C  C592  1  0.630480  0.521940  0.838180  1
  C  C593  1  0.105660  0.052150  0.691610  1
  C  C594  1  0.394340  0.447850  0.191610  1
  C  C595  1  0.894340  0.947850  0.308390  1
  C  C596  1  0.605660  0.552150  0.808390  1
  C  C597  1  0.212200  0.023200  0.658300  1
  C  C598  1  0.287800  0.476800  0.158300  1
  C  C599  1  0.787800  0.976800  0.341700  1
  C  C600  1  0.712200  0.523200  0.841700  1
  C  C601  1  0.277500  0.025900  0.657900  1
  C  C602  1  0.222500  0.474100  0.157900  1
  C  C603  1  0.722500  0.974100  0.342100  1
  C  C604  1  0.777500  0.525900  0.842100  1
  C  C605  1  0.357420  0.024300  0.656760  1
  C  C606  1  0.142580  0.475700  0.156760  1
  C  C607  1  0.642580  0.975700  0.343240  1
  C  C608  1  0.857420  0.524300  0.843240  1
  C  C609  1  0.376700  0.986590  0.632470  1
  C  C610  1  0.123300  0.513410  0.132470  1
  C  C611  1  0.623300  0.013410  0.367530  1
  C  C612  1  0.876700  0.486590  0.867530  1
  C  C613  1  0.453000  0.985210  0.629610  1
  C  C614  1  0.047000  0.514790  0.129610  1
  C  C615  1  0.547000  0.014790  0.370390  1
  C  C616  1  0.953000  0.485210  0.870390  1
  C  C617  1  0.510080  0.021500  0.651030  1
  C  C618  1  0.989920  0.478500  0.151030  1
  C  C619  1  0.489920  0.978500  0.348970  1
  C  C620  1  0.010080  0.521500  0.848970  1
  C  C621  1  0.490800  0.059210  0.675320  1
  C  C622  1  0.009200  0.440790  0.175320  1
  C  C623  1  0.509200  0.940790  0.324680  1
  C  C624  1  0.990800  0.559210  0.824680  1
  C  C625  1  0.414500  0.060590  0.678180  1
  C  C626  1  0.085500  0.439410  0.178180  1
  C  C627  1  0.585500  0.939410  0.321820  1
  C  C628  1  0.914500  0.560590  0.821820  1
  C  C629  1  0.552300  0.096500  0.699900  1
  C  C630  1  0.947700  0.403500  0.199900  1
  C  C631  1  0.447700  0.903500  0.300100  1
  C  C632  1  0.052300  0.596500  0.800100  1
  C  C633  1  0.942880  0.941360  0.615150  1
  C  C634  1  0.557120  0.558640  0.115150  1
  C  C635  1  0.057120  0.058640  0.384850  1
  C  C636  1  0.442880  0.441360  0.884850  1
  C  C637  1  0.916800  0.890350  0.639110  1
  C  C638  1  0.583200  0.609650  0.139110  1
  C  C639  1  0.083200  0.109650  0.360890  1
  C  C640  1  0.416800  0.390350  0.860890  1
  C  C641  1  0.871800  0.959510  0.604000  1
  C  C642  1  0.628200  0.540490  0.104000  1
  C  C643  1  0.128200  0.040490  0.396000  1
  C  C644  1  0.371800  0.459510  0.896000  1
  C  C645  1  0.647700  0.086800  0.798700  1
  C  C646  1  0.852300  0.413200  0.298700  1
  C  C647  1  0.352300  0.913200  0.201300  1
  C  C648  1  0.147700  0.586800  0.701300  1
  C  C649  1  0.642800  0.045730  0.830060  1
  C  C650  1  0.857200  0.454270  0.330060  1
  C  C651  1  0.357200  0.954270  0.169940  1
  C  C652  1  0.142800  0.545730  0.669940  1
  C  C653  1  0.698000  0.018600  0.830150  1
  C  C654  1  0.802000  0.481400  0.330150  1
  C  C655  1  0.302000  0.981400  0.169850  1
  C  C656  1  0.198000  0.518600  0.669850  1
  C  C657  1  0.693600  0.979800  0.859930  1
  C  C658  1  0.806400  0.520200  0.359930  1
  C  C659  1  0.306400  0.020200  0.140070  1
  C  C660  1  0.193600  0.479800  0.640070  1
  C  C661  1  0.633800  0.968100  0.889610  1
  C  C662  1  0.866200  0.531900  0.389610  1
  C  C663  1  0.366200  0.031900  0.110390  1
  C  C664  1  0.133800  0.468100  0.610390  1
  C  C665  1  0.578600  0.995200  0.889520  1
  C  C666  1  0.921400  0.504800  0.389520  1
  C  C667  1  0.421400  0.004800  0.110480  1
  C  C668  1  0.078600  0.495200  0.610480  1
  C  C669  1  0.583000  0.034100  0.859740  1
  C  C670  1  0.917000  0.465900  0.359740  1
  C  C671  1  0.417000  0.965900  0.140260  1
  C  C672  1  0.083000  0.534100  0.640260  1
  C  C673  1  0.515300  0.981700  0.920900  1
  C  C674  1  0.984700  0.518300  0.420900  1
  C  C675  1  0.484700  0.018300  0.079100  1
  C  C676  1  0.015300  0.481700  0.579100  1
  C  C677  1  0.463500  0.969900  0.945000  1
  C  C678  1  0.036500  0.530100  0.445000  1
  C  C679  1  0.536500  0.030100  0.055000  1
  C  C680  1  0.963500  0.469900  0.555000  1
  C  C681  1  0.398000  0.960160  0.973130  1
  C  C682  1  0.102000  0.539840  0.473130  1
  C  C683  1  0.602000  0.039840  0.026870  1
  C  C684  1  0.898000  0.460160  0.526870  1
  C  C685  1  0.365400  0.911490  0.989360  1
  C  C686  1  0.134600  0.588510  0.489360  1
  C  C687  1  0.634600  0.088510  0.010640  1
  C  C688  1  0.865400  0.411490  0.510640  1
  C  C689  1  0.300100  0.902400  0.015040  1
  C  C690  1  0.199900  0.597600  0.515040  1
  C  C691  1  0.699900  0.097600  0.984960  1
  C  C692  1  0.800100  0.402400  0.484960  1
  C  C693  1  0.267400  0.942000  0.024490  1
  C  C694  1  0.232600  0.558000  0.524490  1
  C  C695  1  0.732600  0.058000  0.975510  1
  C  C696  1  0.767400  0.442000  0.475510  1
  C  C697  1  0.300000  0.990660  0.008260  1
  C  C698  1  0.200000  0.509340  0.508260  1
  C  C699  1  0.700000  0.009340  0.991740  1
  C  C700  1  0.800000  0.490660  0.491740  1
  C  C701  1  0.365300  0.999750  0.982580  1
  C  C702  1  0.134700  0.500250  0.482580  1
  C  C703  1  0.634700  0.000250  0.017420  1
  C  C704  1  0.865300  0.499750  0.517420  1
  C  C705  1  0.262900  0.029400  0.016300  1
  C  C706  1  0.237100  0.470600  0.516300  1
  C  C707  1  0.737100  0.970600  0.983700  1
  C  C708  1  0.762900  0.529400  0.483700  1
  C  C709  1  0.234100  0.063600  0.023900  1
  C  C710  1  0.265900  0.436400  0.523900  1
  C  C711  1  0.765900  0.936400  0.976100  1
  C  C712  1  0.734100  0.563600  0.476100  1
  C  C713  1  0.195300  0.102910  0.030550  1
  C  C714  1  0.304700  0.397090  0.530550  1
  C  C715  1  0.804700  0.897090  0.969450  1
  C  C716  1  0.695300  0.602910  0.469450  1
  C  C717  1  0.159400  0.105300  0.069710  1
  C  C718  1  0.340600  0.394700  0.569710  1
  C  C719  1  0.840600  0.894700  0.930290  1
  C  C720  1  0.659400  0.605300  0.430290  1
  C  C721  1  0.121900  0.143100  0.076850  1
  C  C722  1  0.378100  0.356900  0.576850  1
  C  C723  1  0.878100  0.856900  0.923150  1
  C  C724  1  0.621900  0.643100  0.423150  1
  C  C725  1  0.120300  0.178400  0.044830  1
  C  C726  1  0.379700  0.321600  0.544830  1
  C  C727  1  0.879700  0.821600  0.955170  1
  C  C728  1  0.620300  0.678400  0.455170  1
  C  C729  1  0.156200  0.176000  0.005680  1
  C  C730  1  0.343800  0.324000  0.505680  1
  C  C731  1  0.843800  0.824000  0.994320  1
  C  C732  1  0.656200  0.676000  0.494320  1
  C  C733  1  0.193700  0.138300  0.998540  1
  C  C734  1  0.306300  0.361700  0.498540  1
  C  C735  1  0.806300  0.861700  0.001460  1
  C  C736  1  0.693700  0.638300  0.501460  1
  C  C737  1  0.156500  0.215000  0.971400  1
  C  C738  1  0.343500  0.285000  0.471400  1
  C  C739  1  0.843500  0.785000  0.028600  1
  C  C740  1  0.656500  0.715000  0.528600  1
  C  C741  1  0.263200  0.848950  0.033250  1
  C  C742  1  0.236800  0.651050  0.533250  1
  C  C743  1  0.736800  0.151050  0.966750  1
  C  C744  1  0.763200  0.348950  0.466750  1
  C  C745  1  0.282400  0.847000  0.081030  1
  C  C746  1  0.217600  0.653000  0.581030  1
  C  C747  1  0.717600  0.153000  0.918970  1
  C  C748  1  0.782400  0.347000  0.418970  1
  C  C749  1  0.175500  0.835400  0.028200  1
  C  C750  1  0.324500  0.664600  0.528200  1
  C  C751  1  0.824500  0.164600  0.971800  1
  C  C752  1  0.675500  0.335400  0.471800  1
  N  N753  1  0.648300  0.356300  0.949580  1
  N  N754  1  0.851700  0.143700  0.449580  1
  N  N755  1  0.351700  0.643700  0.050420  1
  N  N756  1  0.148300  0.856300  0.550420  1
  N  N757  1  0.444800  0.391400  0.696700  1
  N  N758  1  0.055200  0.108600  0.196700  1
  N  N759  1  0.555200  0.608600  0.303300  1
  N  N760  1  0.944800  0.891400  0.803300  1
  N  N761  1  0.157600  0.088100  0.716560  1
  N  N762  1  0.342400  0.411900  0.216560  1
  N  N763  1  0.842400  0.911900  0.283440  1
  N  N764  1  0.657600  0.588100  0.783440  1
  N  N765  1  0.398200  0.048900  0.966250  1
  N  N766  1  0.101800  0.451100  0.466250  1
  N  N767  1  0.601800  0.951100  0.033750  1
  N  N768  1  0.898200  0.548900  0.533750  1
  O  O769  1  0.187440  0.345050  0.968600  1
  O  O770  1  0.312560  0.154950  0.468600  1
  O  O771  1  0.812560  0.654950  0.031400  1
  O  O772  1  0.687440  0.845050  0.531400  1
  O  O773  1  0.279660  0.315500  0.938090  1
  O  O774  1  0.220340  0.184500  0.438090  1
  O  O775  1  0.720340  0.684500  0.061910  1
  O  O776  1  0.779660  0.815500  0.561910  1
  O  O777  1  0.779900  0.196690  0.756480  1
  O  O778  1  0.720100  0.303310  0.256480  1
  O  O779  1  0.220100  0.803310  0.243520  1
  O  O780  1  0.279900  0.696690  0.743520  1
  O  O781  1  0.687200  0.213740  0.797710  1
  O  O782  1  0.812800  0.286260  0.297710  1
  O  O783  1  0.312800  0.786260  0.202290  1
  O  O784  1  0.187200  0.713740  0.702290  1
  O  O785  1  0.706800  0.195170  0.680820  1
  O  O786  1  0.793200  0.304830  0.180820  1
  O  O787  1  0.293200  0.804830  0.319180  1
  O  O788  1  0.206800  0.695170  0.819180  1
  O  O789  1  0.625700  0.227090  0.719370  1
  O  O790  1  0.874300  0.272910  0.219370  1
  O  O791  1  0.374300  0.772910  0.280630  1
  O  O792  1  0.125700  0.727090  0.780630  1
  O  O793  1  0.120200  0.348990  0.889830  1
  O  O794  1  0.379800  0.151010  0.389830  1
  O  O795  1  0.879800  0.651010  0.110170  1
  O  O796  1  0.620200  0.848990  0.610170  1
  O  O797  1  0.217720  0.325800  0.858290  1
  O  O798  1  0.282280  0.174200  0.358290  1
  O  O799  1  0.782280  0.674200  0.141710  1
  O  O800  1  0.717720  0.825800  0.641710  1
  O  O801  1  0.031730  0.248240  0.903880  1
  O  O802  1  0.468270  0.251760  0.403880  1
  O  O803  1  0.968270  0.751760  0.096120  1
  O  O804  1  0.531730  0.748240  0.596120  1
  O  O805  1  0.123280  0.226950  0.864700  1
  O  O806  1  0.376720  0.273050  0.364700  1
  O  O807  1  0.876720  0.773050  0.135300  1
  O  O808  1  0.623280  0.726950  0.635300  1
  O  O809  1  0.620800  0.093810  0.695230  1
  O  O810  1  0.879200  0.406190  0.195230  1
  O  O811  1  0.379200  0.906190  0.304770  1
  O  O812  1  0.120800  0.593810  0.804770  1
  O  O813  1  0.530800  0.127840  0.723810  1
  O  O814  1  0.969200  0.372160  0.223810  1
  O  O815  1  0.469200  0.872160  0.276190  1
  O  O816  1  0.030800  0.627840  0.776190  1
  O  O817  1  0.701200  0.093450  0.770500  1
  O  O818  1  0.798800  0.406550  0.270500  1
  O  O819  1  0.298800  0.906550  0.229500  1
  O  O820  1  0.201200  0.593450  0.729500  1
  O  O821  1  0.599200  0.112880  0.800690  1
  O  O822  1  0.900800  0.387120  0.300690  1
  O  O823  1  0.400800  0.887120  0.199310  1
  O  O824  1  0.099200  0.612880  0.699310  1
  O  O825  1  0.113700  0.244720  0.977800  1
  O  O826  1  0.386300  0.255280  0.477800  1
  O  O827  1  0.886300  0.755280  0.022200  1
  O  O828  1  0.613700  0.744720  0.522200  1
  O  O829  1  0.198400  0.215010  0.939710  1
  O  O830  1  0.301600  0.284990  0.439710  1
  O  O831  1  0.801600  0.784990  0.060290  1
  O  O832  1  0.698400  0.715010  0.560290  1
  O  O833  1  0.013300  0.319860  0.971960  1
  O  O834  1  0.486700  0.180140  0.471960  1
  O  O835  1  0.986700  0.680140  0.028040  1
  O  O836  1  0.513300  0.819860  0.528040  1
  O  O837  1  0.296200  0.240920  0.861870  1
  O  O838  1  0.203800  0.259080  0.361870  1
  O  O839  1  0.703800  0.759080  0.138130  1
  O  O840  1  0.796200  0.740920  0.638130  1
  O  O841  1  0.800000  0.118620  0.689240  1
  O  O842  1  0.700000  0.381380  0.189240  1
  O  O843  1  0.200000  0.881380  0.310760  1
  O  O844  1  0.300000  0.618620  0.810760  1
  O  O845  1  0.514100  0.194600  0.798590  1
  O  O846  1  0.985900  0.305400  0.298590  1
  O  O847  1  0.485900  0.805400  0.201410  1
  O  O848  1  0.014100  0.694600  0.701410  1
