# generated using pymatgen
data_FeCoB3H94C96N13O2
_symmetry_space_group_name_H-M   'P 1'
_cell_length_a   12.59400000
_cell_length_b   14.78200000
_cell_length_c   19.30900000
_cell_angle_alpha   69.18300000
_cell_angle_beta   81.31800000
_cell_angle_gamma   75.89500000
_symmetry_Int_Tables_number   1
_chemical_formula_structural   FeCoB3H94C96N13O2
_chemical_formula_sum   'Fe2 Co2 B6 H188 C192 N26 O4'
_cell_volume   3250.47290488
_cell_formula_units_Z   2
loop_
 _symmetry_equiv_pos_site_id
 _symmetry_equiv_pos_as_xyz
  1  'x, y, z'
loop_
 _atom_site_type_symbol
 _atom_site_label
 _atom_site_symmetry_multiplicity
 _atom_site_fract_x
 _atom_site_fract_y
 _atom_site_fract_z
 _atom_site_occupancy
  Fe  Fe1  1  0.055550  0.738910  0.890640  1.0
  Fe  Fe2  1  0.944450  0.261090  0.109360  1.0
  Co  Co3  1  0.153810  0.489340  0.132500  1.0
  Co  Co4  1  0.846190  0.510660  0.867500  1.0
  B  B5  1  0.818700  0.335700  0.591100  1
  B  B6  1  0.181300  0.664300  0.408900  1
  B  B7  1  0.196600  0.870700  0.769100  1.0
  B  B8  1  0.803400  0.129300  0.230900  1.0
  B  B9  1  0.737500  0.233300  0.614400  1.0
  B  B10  1  0.262500  0.766700  0.385600  1.0
  H  H11  1  0.327700  0.216900  0.347900  1
  H  H12  1  0.672300  0.783100  0.652100  1
  H  H13  1  0.013600  0.354600  0.384500  1
  H  H14  1  0.986400  0.645400  0.615500  1
  H  H15  1  0.110500  0.215100  0.486500  1
  H  H16  1  0.889500  0.784900  0.513500  1
  H  H17  1  0.216700  0.143600  0.463800  1
  H  H18  1  0.783300  0.856400  0.536200  1
  H  H19  1  0.097800  0.143500  0.443900  1
  H  H20  1  0.902200  0.856500  0.556100  1
  H  H21  1  0.699900  0.194700  0.668700  1
  H  H22  1  0.300100  0.805300  0.331300  1
  H  H23  1  0.714600  0.065700  0.782500  1
  H  H24  1  0.285400  0.934300  0.217500  1
  H  H25  1  0.861500  0.034900  0.854500  1
  H  H26  1  0.138500  0.965100  0.145500  1
  H  H27  1  0.993700  0.133200  0.812600  1
  H  H28  1  0.006300  0.866800  0.187400  1
  H  H29  1  0.979000  0.262300  0.698800  1
  H  H30  1  0.021000  0.737700  0.301200  1
  H  H31  1  0.600100  0.370400  0.553300  1
  H  H32  1  0.399900  0.629600  0.446700  1
  H  H33  1  0.437900  0.474500  0.578500  1
  H  H34  1  0.562100  0.525500  0.421500  1
  H  H35  1  0.440800  0.577400  0.646200  1
  H  H36  1  0.559200  0.422600  0.353800  1
  H  H37  1  0.605800  0.576100  0.688700  1
  H  H38  1  0.394200  0.423900  0.311300  1
  H  H39  1  0.767900  0.472000  0.663500  1
  H  H40  1  0.232100  0.528000  0.336500  1
  H  H41  1  0.864200  0.145100  0.577200  1
  H  H42  1  0.135800  0.854900  0.422800  1
  H  H43  1  0.879600  0.091900  0.474900  1
  H  H44  1  0.120400  0.908100  0.525100  1
  H  H45  1  0.829100  0.204900  0.359000  1
  H  H46  1  0.170900  0.795100  0.641000  1
  H  H47  1  0.767200  0.373000  0.343800  1
  H  H48  1  0.232800  0.627000  0.656200  1
  H  H49  1  0.757100  0.428100  0.444800  1
  H  H50  1  0.242900  0.571900  0.555200  1
  H  H51  1  0.044900  0.278500  0.579800  1
  H  H52  1  0.955100  0.721500  0.420200  1
  H  H53  1  0.185700  0.364900  0.524100  1
  H  H54  1  0.814300  0.635100  0.475900  1
  H  H55  1  0.142700  0.535100  0.460500  1
  H  H56  1  0.857300  0.464900  0.539500  1
  H  H57  1  0.960000  0.620900  0.459300  1
  H  H58  1  0.040000  0.379100  0.540700  1
  H  H59  1  0.819700  0.535000  0.517900  1
  H  H60  1  0.180300  0.465000  0.482100  1
  H  H61  1  0.879300  0.970100  0.648300  1.0
  H  H62  1  0.120700  0.029900  0.351700  1.0
  H  H63  1  0.194400  0.998700  0.954300  1.0
  H  H64  1  0.805600  0.001300  0.045700  1.0
  H  H65  1  0.396400  0.564000  0.769000  1.0
  H  H66  1  0.603600  0.436000  0.231000  1.0
  H  H67  1  0.316600  0.310100  0.223100  1.0
  H  H68  1  0.683400  0.689900  0.776900  1.0
  H  H69  1  0.308900  0.197000  0.341200  1.0
  H  H70  1  0.691100  0.803000  0.658800  1.0
  H  H71  1  0.914100  0.514400  0.347000  1.0
  H  H72  1  0.085900  0.485600  0.653000  1.0
  H  H73  1  0.810900  0.731700  0.158200  1.0
  H  H74  1  0.189100  0.268300  0.841800  1.0
  H  H75  1  0.960300  0.663800  0.093200  1.0
  H  H76  1  0.039700  0.336200  0.906800  1.0
  H  H77  1  0.152200  0.665700  0.180200  1.0
  H  H78  1  0.847800  0.334300  0.819800  1.0
  H  H79  1  0.283400  0.739100  0.196600  1.0
  H  H80  1  0.716600  0.260900  0.803400  1.0
  H  H81  1  0.516500  0.547300  0.121500  1.0
  H  H82  1  0.483500  0.452700  0.878500  1.0
  H  H83  1  0.546700  0.416400  0.085200  1.0
  H  H84  1  0.453300  0.583600  0.914800  1.0
  H  H85  1  0.399600  0.247000  0.024200  1.0
  H  H86  1  0.600400  0.753000  0.975800  1.0
  H  H87  1  0.230800  0.331500  0.056300  1.0
  H  H88  1  0.769200  0.668500  0.943700  1.0
  H  H89  1  0.812100  0.777700  0.813200  1.0
  H  H90  1  0.187900  0.222300  0.186800  1.0
  H  H91  1  0.749100  0.878300  0.756900  1.0
  H  H92  1  0.250900  0.121700  0.243100  1.0
  H  H93  1  0.783100  0.877000  0.833900  1.0
  H  H94  1  0.216900  0.123000  0.166100  1.0
  H  H95  1  0.178300  0.969200  0.610400  1.0
  H  H96  1  0.821700  0.030800  0.389600  1.0
  H  H97  1  0.109600  0.066400  0.627300  1.0
  H  H98  1  0.890400  0.933600  0.372700  1.0
  H  H99  1  0.068600  0.029500  0.569400  1.0
  H  H100  1  0.931400  0.970500  0.430600  1.0
  H  H101  1  0.232500  0.495200  0.932100  1.0
  H  H102  1  0.767500  0.504800  0.067900  1.0
  H  H103  1  0.269100  0.453000  0.864600  1.0
  H  H104  1  0.730900  0.547000  0.135400  1.0
  H  H105  1  0.145200  0.509500  0.874900  1.0
  H  H106  1  0.854800  0.490500  0.125100  1.0
  H  H107  1  0.376600  0.808800  0.648700  1.0
  H  H108  1  0.623400  0.191200  0.351300  1.0
  H  H109  1  0.479600  0.724700  0.683400  1.0
  H  H110  1  0.520400  0.275300  0.316600  1.0
  H  H111  1  0.437700  0.817100  0.712400  1.0
  H  H112  1  0.562300  0.182900  0.287600  1.0
  H  H113  1  0.996700  0.871800  0.031100  1.0
  H  H114  1  0.003300  0.128200  0.968900  1.0
  H  H115  1  0.108400  0.864600  0.064600  1.0
  H  H116  1  0.891600  0.135400  0.935400  1.0
  H  H117  1  0.088500  0.772000  0.047400  1.0
  H  H118  1  0.911500  0.228000  0.952600  1.0
  H  H119  1  0.349700  0.004700  0.784500  1.0
  H  H120  1  0.650300  0.995300  0.215500  1.0
  H  H121  1  0.283500  0.090600  0.816000  1.0
  H  H122  1  0.716500  0.909400  0.184000  1.0
  H  H123  1  0.235000  0.069700  0.752500  1.0
  H  H124  1  0.765000  0.930300  0.247500  1.0
  H  H125  1  0.710800  0.618700  0.336000  1.0
  H  H126  1  0.289200  0.381300  0.664000  1.0
  H  H127  1  0.696900  0.722100  0.269300  1.0
  H  H128  1  0.303100  0.277900  0.730700  1.0
  H  H129  1  0.773000  0.701700  0.334800  1.0
  H  H130  1  0.227000  0.298300  0.665200  1.0
  H  H131  1  0.468900  0.752700  0.191000  1.0
  H  H132  1  0.531100  0.247300  0.809000  1.0
  H  H133  1  0.552200  0.710900  0.132900  1.0
  H  H134  1  0.447800  0.289100  0.867100  1.0
  H  H135  1  0.544500  0.644300  0.218700  1.0
  H  H136  1  0.455500  0.355700  0.781300  1.0
  H  H137  1  0.656800  0.300300  0.021300  1.0
  H  H138  1  0.343200  0.699700  0.978700  1.0
  H  H139  1  0.598800  0.224100  0.006900  1.0
  H  H140  1  0.401200  0.775900  0.993100  1.0
  H  H141  1  0.628700  0.206700  0.089000  1.0
  H  H142  1  0.371300  0.793300  0.911000  1.0
  H  H143  1  0.242300  0.912900  0.729900  1.0
  H  H144  1  0.757700  0.087100  0.270100  1.0
  H  H145  1  0.060500  0.394400  0.397000  1.0
  H  H146  1  0.939500  0.605600  0.603000  1.0
  H  H147  1  0.275900  0.180500  0.472900  1.0
  H  H148  1  0.724100  0.819500  0.527100  1.0
  H  H149  1  0.145300  0.193400  0.485800  1.0
  H  H150  1  0.854700  0.806600  0.514200  1.0
  H  H151  1  0.203900  0.272200  0.495800  1.0
  H  H152  1  0.796100  0.727800  0.504200  1.0
  H  H153  1  0.652200  0.951200  0.927300  1.0
  H  H154  1  0.347800  0.048800  0.072700  1.0
  H  H155  1  0.503600  0.068600  0.871600  1.0
  H  H156  1  0.496400  0.931400  0.128400  1.0
  H  H157  1  0.724400  0.845400  0.037400  1.0
  H  H158  1  0.275600  0.154600  0.962600  1.0
  H  H159  1  0.581800  0.153600  0.717600  1.0
  H  H160  1  0.418200  0.846400  0.282400  1.0
  H  H161  1  0.485100  0.030300  0.733200  1.0
  H  H162  1  0.514900  0.969700  0.266800  1.0
  H  H163  1  0.512900  0.949400  0.645500  1.0
  H  H164  1  0.487100  0.050600  0.354500  1.0
  H  H165  1  0.637300  0.991800  0.542200  1.0
  H  H166  1  0.362700  0.008200  0.457800  1.0
  H  H167  1  0.734000  0.115100  0.526600  1.0
  H  H168  1  0.266000  0.884900  0.473400  1.0
  H  H169  1  0.763700  0.080700  0.753200  1.0
  H  H170  1  0.236300  0.919300  0.246800  1.0
  H  H171  1  0.893300  0.032000  0.841400  1.0
  H  H172  1  0.106700  0.968000  0.158600  1.0
  H  H173  1  0.039800  0.112700  0.818100  1.0
  H  H174  1  0.960200  0.887300  0.181900  1.0
  H  H175  1  0.056800  0.242200  0.706600  1.0
  H  H176  1  0.943200  0.757800  0.293400  1.0
  H  H177  1  0.927200  0.290900  0.618400  1.0
  H  H178  1  0.072800  0.709100  0.381600  1.0
  H  H179  1  0.518100  0.315100  0.588900  1.0
  H  H180  1  0.481900  0.684900  0.411100  1.0
  H  H181  1  0.401700  0.464500  0.590100  1.0
  H  H182  1  0.598300  0.535500  0.409900  1.0
  H  H183  1  0.466200  0.577200  0.624300  1.0
  H  H184  1  0.533800  0.422800  0.375700  1.0
  H  H185  1  0.647100  0.540600  0.657200  1.0
  H  H186  1  0.352900  0.459400  0.342800  1.0
  H  H187  1  0.763500  0.391200  0.655900  1.0
  H  H188  1  0.236500  0.608800  0.344100  1.0
  H  H189  1  0.904700  0.293800  0.329200  1.0
  H  H190  1  0.095300  0.706200  0.670800  1.0
  H  H191  1  0.010000  0.174000  0.430000  1.0
  H  H192  1  0.990000  0.826000  0.570000  1.0
  H  H193  1  0.939500  0.154200  0.551700  1.0
  H  H194  1  0.060500  0.845800  0.448300  1.0
  H  H195  1  0.680400  0.380200  0.480600  1.0
  H  H196  1  0.319600  0.619800  0.519400  1.0
  H  H197  1  0.749600  0.403400  0.358000  1.0
  H  H198  1  0.250400  0.596600  0.642000  1.0
  C  C199  1  0.158500  0.263200  0.376500  1
  C  C200  1  0.841500  0.736800  0.623500  1
  C  C201  1  0.079000  0.346300  0.353800  1
  C  C202  1  0.921000  0.653700  0.646200  1
  C  C203  1  0.144700  0.184700  0.448800  1
  C  C204  1  0.855300  0.815300  0.551200  1
  C  C205  1  0.838100  0.240600  0.673000  1
  C  C206  1  0.161900  0.759400  0.327000  1
  C  C207  1  0.759600  0.182200  0.697900  1
  C  C208  1  0.240400  0.817800  0.302100  1
  C  C209  1  0.768300  0.105600  0.765500  1
  C  C210  1  0.231700  0.894400  0.234500  1
  C  C211  1  0.855500  0.087300  0.808300  1
  C  C212  1  0.144500  0.912700  0.191700  1
  C  C213  1  0.934100  0.145700  0.783400  1
  C  C214  1  0.065900  0.854300  0.216600  1
  C  C215  1  0.925300  0.222400  0.715800  1
  C  C216  1  0.074700  0.777600  0.284200  1
  C  C217  1  0.699200  0.411400  0.606000  1
  C  C218  1  0.300800  0.588600  0.394000  1
  C  C219  1  0.601200  0.412100  0.580800  1
  C  C220  1  0.398800  0.587900  0.419200  1
  C  C221  1  0.504900  0.474000  0.595700  1
  C  C222  1  0.495100  0.526000  0.404300  1
  C  C223  1  0.506600  0.535100  0.635900  1
  C  C224  1  0.493400  0.464900  0.364100  1
  C  C225  1  0.604600  0.534300  0.661200  1
  C  C226  1  0.395400  0.465700  0.338800  1
  C  C227  1  0.700900  0.472500  0.646200  1
  C  C228  1  0.299100  0.527500  0.353800  1
  C  C229  1  0.805800  0.290900  0.521700  1
  C  C230  1  0.194200  0.709100  0.478300  1
  C  C231  1  0.844200  0.191400  0.530000  1
  C  C232  1  0.155800  0.808600  0.470000  1
  C  C233  1  0.853200  0.159900  0.469200  1
  C  C234  1  0.146800  0.840100  0.530800  1
  C  C235  1  0.823900  0.227200  0.400100  1
  C  C236  1  0.176100  0.772800  0.599900  1
  C  C237  1  0.787200  0.327000  0.391100  1
  C  C238  1  0.212800  0.673000  0.608900  1
  C  C239  1  0.779700  0.359600  0.451200  1
  C  C240  1  0.220300  0.640400  0.548800  1
  C  C241  1  0.919600  0.399600  0.557700  1
  C  C242  1  0.080400  0.600400  0.442300  1
  C  C243  1  0.027900  0.348300  0.556800  1
  C  C244  1  0.972100  0.651700  0.443200  1
  C  C245  1  0.111300  0.399300  0.522300  1
  C  C246  1  0.888700  0.600700  0.477700  1
  C  C247  1  0.085900  0.500600  0.485200  1
  C  C248  1  0.914100  0.499400  0.514800  1
  C  C249  1  0.977300  0.551500  0.484200  1
  C  C250  1  0.022700  0.448500  0.515800  1
  C  C251  1  0.894100  0.500600  0.519700  1
  C  C252  1  0.105900  0.499400  0.480300  1
  C  C253  1  0.103300  0.644100  0.980300  1.0
  C  C254  1  0.896700  0.355900  0.019700  1.0
  C  C255  1  0.982600  0.647600  0.879900  1.0
  C  C256  1  0.017400  0.352400  0.120100  1.0
  C  C257  1  0.912300  0.873600  0.756600  1.0
  C  C258  1  0.087700  0.126400  0.243400  1.0
  C  C259  1  0.930900  0.937900  0.685100  1.0
  C  C260  1  0.069100  0.062100  0.314900  1.0
  C  C261  1  0.037600  0.945400  0.678400  1.0
  C  C262  1  0.962400  0.054600  0.321600  1.0
  C  C263  1  0.127200  0.881700  0.954200  1.0
  C  C264  1  0.872800  0.118300  0.045800  1.0
  C  C265  1  0.182600  0.959000  0.927800  1.0
  C  C266  1  0.817400  0.041000  0.072200  1.0
  C  C267  1  0.216900  0.966400  0.855700  1.0
  C  C268  1  0.783100  0.033600  0.144300  1.0
  C  C269  1  0.252200  0.601800  0.833000  1.0
  C  C270  1  0.747800  0.398200  0.167000  1.0
  C  C271  1  0.342900  0.614400  0.781500  1.0
  C  C272  1  0.657100  0.385600  0.218500  1.0
  C  C273  1  0.338800  0.715200  0.752400  1.0
  C  C274  1  0.661200  0.284800  0.247600  1.0
  C  C275  1  0.258000  0.322800  0.257800  1.0
  C  C276  1  0.742000  0.677200  0.742200  1.0
  C  C277  1  0.261500  0.260400  0.329300  1.0
  C  C278  1  0.738500  0.739600  0.670700  1.0
  C  C279  1  0.093600  0.420800  0.284100  1.0
  C  C280  1  0.906400  0.579200  0.715900  1.0
  C  C281  1  0.010600  0.508500  0.253900  1.0
  C  C282  1  0.989400  0.491500  0.746100  1.0
  C  C283  1  0.922200  0.546100  0.294800  1.0
  C  C284  1  0.077800  0.453900  0.705200  1.0
  C  C285  1  0.845800  0.629200  0.260900  1.0
  C  C286  1  0.154200  0.370800  0.739100  1.0
  C  C287  1  0.861300  0.674200  0.183800  1.0
  C  C288  1  0.138700  0.325800  0.816200  1.0
  C  C289  1  0.951000  0.633800  0.145600  1.0
  C  C290  1  0.049000  0.366200  0.854400  1.0
  C  C291  1  0.227300  0.640500  0.169300  1.0
  C  C292  1  0.772700  0.359500  0.830700  1.0
  C  C293  1  0.305500  0.684500  0.178900  1.0
  C  C294  1  0.694500  0.315500  0.821100  1.0
  C  C295  1  0.415300  0.651000  0.163400  1.0
  C  C296  1  0.584700  0.349000  0.836600  1.0
  C  C297  1  0.442200  0.571800  0.134900  1.0
  C  C298  1  0.557800  0.428200  0.865100  1.0
  C  C299  1  0.360100  0.530000  0.126600  1.0
  C  C300  1  0.639900  0.470000  0.873400  1.0
  C  C301  1  0.380500  0.446600  0.098700  1.0
  C  C302  1  0.619500  0.553400  0.901300  1.0
  C  C303  1  0.482800  0.396200  0.080600  1.0
  C  C304  1  0.517200  0.603800  0.919400  1.0
  C  C305  1  0.493600  0.316800  0.056000  1.0
  C  C306  1  0.506400  0.683200  0.944000  1.0
  C  C307  1  0.396500  0.297000  0.045100  1.0
  C  C308  1  0.603500  0.703000  0.954900  1.0
  C  C309  1  0.295600  0.348000  0.063700  1.0
  C  C310  1  0.704400  0.652000  0.936300  1.0
  C  C311  1  0.805000  0.849600  0.793300  1.0
  C  C312  1  0.195000  0.150400  0.206700  1.0
  C  C313  1  0.104400  0.008200  0.615800  1.0
  C  C314  1  0.895600  0.991800  0.384200  1.0
  C  C315  1  0.222200  0.506900  0.880100  1.0
  C  C316  1  0.777800  0.493100  0.119900  1.0
  C  C317  1  0.414800  0.771400  0.694100  1.0
  C  C318  1  0.585200  0.228600  0.305900  1.0
  C  C319  1  0.075800  0.844400  0.030900  1.0
  C  C320  1  0.924200  0.155600  0.969100  1.0
  C  C321  1  0.276500  0.039200  0.797000  1.0
  C  C322  1  0.723500  0.960800  0.203000  1.0
  C  C323  1  0.748000  0.671700  0.304100  1.0
  C  C324  1  0.252000  0.328300  0.695900  1.0
  C  C325  1  0.502700  0.693400  0.177800  1.0
  C  C326  1  0.497300  0.306600  0.822200  1.0
  C  C327  1  0.604100  0.256800  0.042100  1.0
  C  C328  1  0.395900  0.743200  0.957900  1.0
  C  C329  1  0.924600  0.783200  0.943800  1.0
  C  C330  1  0.075400  0.216800  0.056200  1.0
  C  C331  1  0.109100  0.371500  0.361300  1.0
  C  C332  1  0.890900  0.628500  0.638700  1.0
  C  C333  1  0.194800  0.290300  0.384900  1.0
  C  C334  1  0.805200  0.709700  0.615100  1.0
  C  C335  1  0.206000  0.228500  0.467300  1.0
  C  C336  1  0.794000  0.771500  0.532700  1.0
  C  C337  1  0.588100  0.925800  0.032600  1.0
  C  C338  1  0.411900  0.074200  0.967400  1.0
  C  C339  1  0.589800  0.970000  0.957300  1.0
  C  C340  1  0.410200  0.030000  0.042700  1.0
  C  C341  1  0.502400  0.041400  0.924300  1.0
  C  C342  1  0.497600  0.958600  0.075700  1.0
  C  C343  1  0.667000  0.145900  0.620600  1.0
  C  C344  1  0.333000  0.854100  0.379400  1.0
  C  C345  1  0.593100  0.120700  0.682000  1.0
  C  C346  1  0.406900  0.879300  0.318000  1.0
  C  C347  1  0.535700  0.047500  0.691300  1.0
  C  C348  1  0.464300  0.952500  0.308700  1.0
  C  C349  1  0.552100  0.999400  0.639200  1.0
  C  C350  1  0.447900  0.000600  0.360800  1.0
  C  C351  1  0.626100  0.024600  0.577800  1.0
  C  C352  1  0.373900  0.975400  0.422200  1.0
  C  C353  1  0.683500  0.097900  0.568500  1.0
  C  C354  1  0.316500  0.902100  0.431500  1.0
  C  C355  1  0.833300  0.190400  0.677500  1.0
  C  C356  1  0.166700  0.809600  0.322500  1.0
  C  C357  1  0.823200  0.113500  0.743800  1.0
  C  C358  1  0.176800  0.886500  0.256200  1.0
  C  C359  1  0.900200  0.084500  0.796200  1.0
  C  C360  1  0.099800  0.915500  0.203800  1.0
  C  C361  1  0.987200  0.132500  0.782300  1.0
  C  C362  1  0.012800  0.867500  0.217700  1.0
  C  C363  1  0.997300  0.209400  0.716100  1.0
  C  C364  1  0.002700  0.790600  0.283900  1.0
  C  C365  1  0.920300  0.238400  0.663700  1.0
  C  C366  1  0.079700  0.761600  0.336300  1.0
  C  C367  1  0.651700  0.339100  0.622300  1.0
  C  C368  1  0.348300  0.660900  0.377700  1.0
  C  C369  1  0.544300  0.360800  0.602700  1.0
  C  C370  1  0.455700  0.639200  0.397300  1.0
  C  C371  1  0.475200  0.449600  0.603500  1.0
  C  C372  1  0.524800  0.550400  0.396500  1.0
  C  C373  1  0.513500  0.516600  0.623800  1.0
  C  C374  1  0.486500  0.483400  0.376200  1.0
  C  C375  1  0.620900  0.494800  0.643300  1.0
  C  C376  1  0.379100  0.505200  0.356700  1.0
  C  C377  1  0.690000  0.406000  0.642600  1.0
  C  C378  1  0.310000  0.594000  0.357400  1.0
  C  C379  1  0.880100  0.287800  0.379300  1.0
  C  C380  1  0.119900  0.712200  0.620700  1.0
  C  C381  1  0.936000  0.216000  0.438100  1.0
  C  C382  1  0.064000  0.784000  0.561900  1.0
  C  C383  1  0.899200  0.203500  0.512600  1.0
  C  C384  1  0.100800  0.796500  0.487400  1.0
  C  C385  1  0.802600  0.264700  0.527900  1.0
  C  C386  1  0.197400  0.735300  0.472100  1.0
  C  C387  1  0.746400  0.338300  0.470100  1.0
  C  C388  1  0.253600  0.661700  0.529900  1.0
  C  C389  1  0.786700  0.350700  0.396900  1.0
  C  C390  1  0.213300  0.649300  0.603100  1.0
  N  N391  1  0.844700  0.802800  0.978400  1.0
  N  N392  1  0.155300  0.197200  0.021600  1.0
  N  N393  1  0.127200  0.583000  0.036800  1.0
  N  N394  1  0.872800  0.417000  0.963200  1.0
  N  N395  1  0.933100  0.593200  0.877600  1.0
  N  N396  1  0.066900  0.406800  0.122400  1.0
  N  N397  1  0.005600  0.840800  0.791600  1.0
  N  N398  1  0.994400  0.159200  0.208400  1.0
  N  N399  1  0.084100  0.886700  0.742700  1.0
  N  N400  1  0.915900  0.113300  0.257300  1.0
  N  N401  1  0.195700  0.690800  0.835100  1.0
  N  N402  1  0.804300  0.309200  0.164900  1.0
  N  N403  1  0.250100  0.760100  0.785300  1.0
  N  N404  1  0.749900  0.239900  0.214700  1.0
  N  N405  1  0.128600  0.842000  0.900900  1.0
  N  N406  1  0.871400  0.158000  0.099100  1.0
  N  N407  1  0.184800  0.895300  0.839300  1.0
  N  N408  1  0.815200  0.104700  0.160700  1.0
  N  N409  1  0.177000  0.400700  0.233800  1.0
  N  N410  1  0.823000  0.599300  0.766200  1.0
  N  N411  1  0.025100  0.554300  0.179400  1.0
  N  N412  1  0.974900  0.445700  0.820600  1.0
  N  N413  1  0.253600  0.562600  0.144700  1.0
  N  N414  1  0.746400  0.437400  0.855300  1.0
  N  N415  1  0.287000  0.420900  0.092200  1.0
  N  N416  1  0.713000  0.579100  0.907800  1.0
  O  O417  1  0.462000  0.209000  0.506800  1
  O  O418  1  0.538000  0.791000  0.493200  1
  O  O419  1  0.671100  0.852800  0.068200  1.0
  O  O420  1  0.328900  0.147200  0.931800  1.0
