# generated using pymatgen
data_FeCoB3H94C96N13O2
_symmetry_space_group_name_H-M   'P 1'
_cell_length_a   12.91400000
_cell_length_b   14.82600000
_cell_length_c   19.50700000
_cell_angle_alpha   69.64200000
_cell_angle_beta   80.36300000
_cell_angle_gamma   75.90900000
_symmetry_Int_Tables_number   1
_chemical_formula_structural   FeCoB3H94C96N13O2
_chemical_formula_sum   'Fe2 Co2 B6 H188 C192 N26 O4'
_cell_volume   3382.13887599
_cell_formula_units_Z   2
loop_
 _symmetry_equiv_pos_site_id
 _symmetry_equiv_pos_as_xyz
  1  'x, y, z'
loop_
 _atom_site_type_symbol
 _atom_site_label
 _atom_site_symmetry_multiplicity
 _atom_site_fract_x
 _atom_site_fract_y
 _atom_site_fract_z
 _atom_site_occupancy
  Fe  Fe1  1  0.050190  0.755310  0.885320  1.0
  Fe  Fe2  1  0.949810  0.244690  0.114680  1.0
  Co  Co3  1  0.157340  0.492490  0.128640  1.0
  Co  Co4  1  0.842660  0.507510  0.871360  1.0
  B  B5  1  0.811200  0.335100  0.592400  1
  B  B6  1  0.188800  0.664900  0.407600  1
  B  B7  1  0.187200  0.881600  0.765800  1.0
  B  B8  1  0.812800  0.118400  0.234200  1.0
  B  B9  1  0.736000  0.240400  0.615200  1.0
  B  B10  1  0.264000  0.759600  0.384800  1.0
  H  H11  1  0.315500  0.223200  0.354400  1
  H  H12  1  0.684500  0.776800  0.645600  1
  H  H13  1  0.996200  0.349900  0.380800  1
  H  H14  1  0.003800  0.650100  0.619200  1
  H  H15  1  0.066700  0.206100  0.473900  1
  H  H16  1  0.933300  0.793900  0.526100  1
  H  H17  1  0.189900  0.161400  0.470200  1
  H  H18  1  0.810100  0.838600  0.529800  1
  H  H19  1  0.113700  0.130000  0.431800  1
  H  H20  1  0.886300  0.870000  0.568200  1
  H  H21  1  0.698200  0.190500  0.675900  1
  H  H22  1  0.301800  0.809500  0.324100  1
  H  H23  1  0.716700  0.068400  0.789000  1
  H  H24  1  0.283300  0.931600  0.211000  1
  H  H25  1  0.858900  0.047900  0.855100  1
  H  H26  1  0.141100  0.952100  0.144900  1
  H  H27  1  0.982700  0.149500  0.808300  1
  H  H28  1  0.017300  0.850500  0.191700  1
  H  H29  1  0.964200  0.271600  0.695300  1
  H  H30  1  0.035800  0.728400  0.304700  1
  H  H31  1  0.601100  0.372600  0.554100  1
  H  H32  1  0.398900  0.627400  0.445900  1
  H  H33  1  0.443500  0.474900  0.580000  1
  H  H34  1  0.556500  0.525100  0.420000  1
  H  H35  1  0.444000  0.574500  0.649000  1
  H  H36  1  0.556000  0.425500  0.351000  1
  H  H37  1  0.602000  0.571900  0.692000  1
  H  H38  1  0.398000  0.428100  0.308000  1
  H  H39  1  0.759600  0.469600  0.666100  1
  H  H40  1  0.240400  0.530400  0.333900  1
  H  H41  1  0.846600  0.147100  0.583300  1
  H  H42  1  0.153400  0.852900  0.416700  1
  H  H43  1  0.864300  0.087000  0.484500  1
  H  H44  1  0.135700  0.913000  0.515500  1
  H  H45  1  0.812200  0.193000  0.371000  1
  H  H46  1  0.187800  0.807000  0.629000  1
  H  H47  1  0.759300  0.360300  0.352200  1
  H  H48  1  0.240700  0.639700  0.647800  1
  H  H49  1  0.758700  0.421600  0.446500  1
  H  H50  1  0.241300  0.578400  0.553500  1
  H  H51  1  0.033600  0.282800  0.579500  1
  H  H52  1  0.966400  0.717200  0.420500  1
  H  H53  1  0.166000  0.364800  0.506600  1
  H  H54  1  0.834000  0.635200  0.493400  1
  H  H55  1  0.128300  0.535600  0.462900  1
  H  H56  1  0.871700  0.464400  0.537100  1
  H  H57  1  0.950800  0.619100  0.461300  1
  H  H58  1  0.049200  0.380900  0.538700  1
  H  H59  1  0.814800  0.533700  0.519100  1
  H  H60  1  0.185200  0.466300  0.480900  1
  H  H61  1  0.878100  0.972900  0.652700  1.0
  H  H62  1  0.121900  0.027100  0.347300  1.0
  H  H63  1  0.192800  0.004200  0.948500  1.0
  H  H64  1  0.807200  0.995800  0.051500  1.0
  H  H65  1  0.380000  0.577300  0.769700  1.0
  H  H66  1  0.620000  0.422700  0.230300  1.0
  H  H67  1  0.311500  0.318000  0.232300  1.0
  H  H68  1  0.688500  0.682000  0.767700  1.0
  H  H69  1  0.299200  0.202700  0.344200  1.0
  H  H70  1  0.700800  0.797300  0.655800  1.0
  H  H71  1  0.914500  0.511000  0.353000  1.0
  H  H72  1  0.085500  0.489000  0.647000  1.0
  H  H73  1  0.807200  0.725300  0.173900  1.0
  H  H74  1  0.192800  0.274700  0.826100  1.0
  H  H75  1  0.958500  0.668700  0.108200  1.0
  H  H76  1  0.041500  0.331300  0.891800  1.0
  H  H77  1  0.183200  0.668800  0.174400  1.0
  H  H78  1  0.816800  0.331200  0.825600  1.0
  H  H79  1  0.316400  0.732600  0.192400  1.0
  H  H80  1  0.683600  0.267400  0.807600  1.0
  H  H81  1  0.530300  0.538200  0.117900  1.0
  H  H82  1  0.469700  0.461800  0.882100  1.0
  H  H83  1  0.555200  0.407500  0.085200  1.0
  H  H84  1  0.444800  0.592500  0.914800  1.0
  H  H85  1  0.415200  0.238400  0.027200  1.0
  H  H86  1  0.584800  0.761600  0.972800  1.0
  H  H87  1  0.253700  0.329500  0.052000  1.0
  H  H88  1  0.746300  0.670500  0.948000  1.0
  H  H89  1  0.815900  0.781300  0.816100  1.0
  H  H90  1  0.184100  0.218700  0.183900  1.0
  H  H91  1  0.755700  0.873400  0.757900  1.0
  H  H92  1  0.244300  0.126600  0.242100  1.0
  H  H93  1  0.779500  0.881900  0.831400  1.0
  H  H94  1  0.220500  0.118100  0.168600  1.0
  H  H95  1  0.153900  0.976500  0.599100  1.0
  H  H96  1  0.846100  0.023500  0.400900  1.0
  H  H97  1  0.115300  0.062300  0.632700  1.0
  H  H98  1  0.884700  0.937700  0.367300  1.0
  H  H99  1  0.046500  0.051700  0.578000  1.0
  H  H100  1  0.953500  0.948300  0.422000  1.0
  H  H101  1  0.224900  0.506100  0.925800  1.0
  H  H102  1  0.775100  0.493900  0.074200  1.0
  H  H103  1  0.246200  0.469700  0.857400  1.0
  H  H104  1  0.753800  0.530300  0.142600  1.0
  H  H105  1  0.131900  0.526300  0.876800  1.0
  H  H106  1  0.868100  0.473700  0.123200  1.0
  H  H107  1  0.369100  0.815800  0.649400  1.0
  H  H108  1  0.630900  0.184200  0.350600  1.0
  H  H109  1  0.466700  0.736900  0.685400  1.0
  H  H110  1  0.533300  0.263100  0.314600  1.0
  H  H111  1  0.420700  0.828500  0.711900  1.0
  H  H112  1  0.579300  0.171500  0.288100  1.0
  H  H113  1  0.003900  0.850000  0.026000  1.0
  H  H114  1  0.996100  0.150000  0.974000  1.0
  H  H115  1  0.080700  0.895100  0.053200  1.0
  H  H116  1  0.919300  0.104900  0.946800  1.0
  H  H117  1  0.117000  0.788000  0.049100  1.0
  H  H118  1  0.883000  0.212000  0.950900  1.0
  H  H119  1  0.324400  0.010800  0.767400  1.0
  H  H120  1  0.675600  0.989200  0.232600  1.0
  H  H121  1  0.304400  0.076000  0.818600  1.0
  H  H122  1  0.695600  0.924000  0.181400  1.0
  H  H123  1  0.221600  0.094000  0.762500  1.0
  H  H124  1  0.778400  0.906000  0.237500  1.0
  H  H125  1  0.740500  0.610700  0.364300  1.0
  H  H126  1  0.259500  0.389300  0.635700  1.0
  H  H127  1  0.683900  0.674300  0.292900  1.0
  H  H128  1  0.316100  0.325700  0.707100  1.0
  H  H129  1  0.757500  0.718400  0.323600  1.0
  H  H130  1  0.242500  0.281600  0.676400  1.0
  H  H131  1  0.499200  0.732100  0.192000  1.0
  H  H132  1  0.500800  0.267900  0.808000  1.0
  H  H133  1  0.572600  0.699800  0.128600  1.0
  H  H134  1  0.427400  0.300200  0.871400  1.0
  H  H135  1  0.570600  0.626300  0.208900  1.0
  H  H136  1  0.429400  0.373700  0.791100  1.0
  H  H137  1  0.643200  0.276900  0.992400  1.0
  H  H138  1  0.356800  0.723100  0.007600  1.0
  H  H139  1  0.609900  0.183300  0.051800  1.0
  H  H140  1  0.390100  0.816700  0.948200  1.0
  H  H141  1  0.662600  0.252100  0.074700  1.0
  H  H142  1  0.337400  0.747900  0.925300  1.0
  H  H143  1  0.231000  0.922300  0.727100  1.0
  H  H144  1  0.769000  0.077700  0.272900  1.0
  H  H145  1  0.053600  0.391000  0.399000  1.0
  H  H146  1  0.946400  0.609000  0.601000  1.0
  H  H147  1  0.262900  0.205700  0.480200  1.0
  H  H148  1  0.737100  0.794300  0.519800  1.0
  H  H149  1  0.147200  0.186500  0.485400  1.0
  H  H150  1  0.852800  0.813500  0.514600  1.0
  H  H151  1  0.162700  0.280900  0.498200  1.0
  H  H152  1  0.837300  0.719100  0.501800  1.0
  H  H153  1  0.658400  0.960900  0.931800  1.0
  H  H154  1  0.341600  0.039100  0.068200  1.0
  H  H155  1  0.517100  0.075900  0.876800  1.0
  H  H156  1  0.482900  0.924100  0.123200  1.0
  H  H157  1  0.716400  0.847900  0.038000  1.0
  H  H158  1  0.283600  0.152100  0.962000  1.0
  H  H159  1  0.582800  0.171400  0.724500  1.0
  H  H160  1  0.417200  0.828600  0.275500  1.0
  H  H161  1  0.492700  0.043200  0.754700  1.0
  H  H162  1  0.507300  0.956800  0.245300  1.0
  H  H163  1  0.518100  0.948100  0.678400  1.0
  H  H164  1  0.481900  0.051900  0.321600  1.0
  H  H165  1  0.633500  0.981200  0.572000  1.0
  H  H166  1  0.366500  0.018800  0.428000  1.0
  H  H167  1  0.723500  0.109400  0.541800  1.0
  H  H168  1  0.276500  0.890600  0.458200  1.0
  H  H169  1  0.766300  0.099900  0.754000  1.0
  H  H170  1  0.233700  0.900100  0.246000  1.0
  H  H171  1  0.894300  0.057700  0.836200  1.0
  H  H172  1  0.105700  0.942300  0.163800  1.0
  H  H173  1  0.040500  0.133800  0.804600  1.0
  H  H174  1  0.959500  0.866200  0.195400  1.0
  H  H175  1  0.058700  0.252100  0.690700  1.0
  H  H176  1  0.941300  0.747900  0.309300  1.0
  H  H177  1  0.930800  0.294300  0.608500  1.0
  H  H178  1  0.069200  0.705700  0.391500  1.0
  H  H179  1  0.528600  0.329800  0.586300  1.0
  H  H180  1  0.471400  0.670200  0.413700  1.0
  H  H181  1  0.419700  0.479300  0.587000  1.0
  H  H182  1  0.580300  0.520700  0.413000  1.0
  H  H183  1  0.483300  0.587400  0.623500  1.0
  H  H184  1  0.516700  0.412600  0.376500  1.0
  H  H185  1  0.655700  0.546200  0.659300  1.0
  H  H186  1  0.344300  0.453800  0.340700  1.0
  H  H187  1  0.764600  0.396700  0.658700  1.0
  H  H188  1  0.235400  0.603300  0.341300  1.0
  H  H189  1  0.898000  0.295200  0.332900  1.0
  H  H190  1  0.102000  0.704800  0.667100  1.0
  H  H191  1  0.020000  0.214000  0.409000  1.0
  H  H192  1  0.980000  0.786000  0.591000  1.0
  H  H193  1  0.925900  0.151700  0.550500  1.0
  H  H194  1  0.074100  0.848300  0.449500  1.0
  H  H195  1  0.681500  0.378900  0.484000  1.0
  H  H196  1  0.318500  0.621100  0.516000  1.0
  H  H197  1  0.748800  0.400900  0.363100  1.0
  H  H198  1  0.251200  0.599100  0.636900  1.0
  C  C199  1  0.144000  0.264900  0.375300  1
  C  C200  1  0.856000  0.735100  0.624700  1
  C  C201  1  0.063000  0.345000  0.354300  1
  C  C202  1  0.937000  0.655000  0.645700  1
  C  C203  1  0.127000  0.183400  0.443900  1
  C  C204  1  0.873000  0.816600  0.556100  1
  C  C205  1  0.829400  0.243200  0.674400  1
  C  C206  1  0.170600  0.756800  0.325600  1
  C  C207  1  0.755200  0.182300  0.702500  1
  C  C208  1  0.244800  0.817700  0.297500  1
  C  C209  1  0.766300  0.109100  0.770200  1
  C  C210  1  0.233700  0.890900  0.229800  1
  C  C211  1  0.851500  0.096900  0.809800  1
  C  C212  1  0.148500  0.903100  0.190200  1
  C  C213  1  0.925700  0.157700  0.781800  1
  C  C214  1  0.074300  0.842300  0.218200  1
  C  C215  1  0.914600  0.230900  0.714100  1
  C  C216  1  0.085400  0.769100  0.285900  1
  C  C217  1  0.696000  0.411000  0.607500  1
  C  C218  1  0.304000  0.589000  0.392500  1
  C  C219  1  0.601300  0.412600  0.581700  1
  C  C220  1  0.398700  0.587400  0.418300  1
  C  C221  1  0.506900  0.473800  0.597300  1
  C  C222  1  0.493100  0.526200  0.402700  1
  C  C223  1  0.507200  0.533500  0.638600  1
  C  C224  1  0.492800  0.466500  0.361400  1
  C  C225  1  0.601800  0.532000  0.664400  1
  C  C226  1  0.398200  0.468000  0.335600  1
  C  C227  1  0.696200  0.470700  0.648800  1
  C  C228  1  0.303800  0.529300  0.351200  1
  C  C229  1  0.798400  0.290400  0.525300  1
  C  C230  1  0.201600  0.709600  0.474700  1
  C  C231  1  0.830700  0.190100  0.536800  1
  C  C232  1  0.169300  0.809900  0.463200  1
  C  C233  1  0.839000  0.153600  0.477700  1
  C  C234  1  0.161000  0.846400  0.522300  1
  C  C235  1  0.810400  0.217400  0.409200  1
  C  C236  1  0.189600  0.782600  0.590800  1
  C  C237  1  0.778600  0.317700  0.397900  1
  C  C238  1  0.221400  0.682300  0.602100  1
  C  C239  1  0.775800  0.354200  0.455100  1
  C  C240  1  0.224200  0.645800  0.544900  1
  C  C241  1  0.910500  0.399700  0.554900  1
  C  C242  1  0.089500  0.600300  0.445100  1
  C  C243  1  0.016500  0.349500  0.553600  1
  C  C244  1  0.983500  0.650500  0.446400  1
  C  C245  1  0.096800  0.399400  0.513400  1
  C  C246  1  0.903200  0.600600  0.486600  1
  C  C247  1  0.073200  0.501200  0.483500  1
  C  C248  1  0.926800  0.498800  0.516500  1
  C  C249  1  0.967200  0.551500  0.484200  1
  C  C250  1  0.032800  0.448500  0.515800  1
  C  C251  1  0.885800  0.500400  0.519400  1
  C  C252  1  0.114200  0.499600  0.480600  1
  C  C253  1  0.096400  0.660700  0.974600  1.0
  C  C254  1  0.903600  0.339300  0.025400  1.0
  C  C255  1  0.975800  0.660500  0.880300  1.0
  C  C256  1  0.024200  0.339500  0.119700  1.0
  C  C257  1  0.911000  0.878200  0.758500  1.0
  C  C258  1  0.089000  0.121800  0.241500  1.0
  C  C259  1  0.927700  0.942800  0.687500  1.0
  C  C260  1  0.072300  0.057200  0.312500  1.0
  C  C261  1  0.032500  0.952500  0.679800  1.0
  C  C262  1  0.967500  0.047500  0.320200  1.0
  C  C263  1  0.123900  0.891500  0.950400  1.0
  C  C264  1  0.876100  0.108500  0.049600  1.0
  C  C265  1  0.179500  0.966200  0.923100  1.0
  C  C266  1  0.820500  0.033800  0.076900  1.0
  C  C267  1  0.211300  0.974000  0.851700  1.0
  C  C268  1  0.788700  0.026000  0.148300  1.0
  C  C269  1  0.237800  0.615700  0.829900  1.0
  C  C270  1  0.762200  0.384300  0.170100  1.0
  C  C271  1  0.328000  0.627200  0.780600  1.0
  C  C272  1  0.672000  0.372800  0.219400  1.0
  C  C273  1  0.326500  0.725800  0.751000  1.0
  C  C274  1  0.673500  0.274200  0.249000  1.0
  C  C275  1  0.252500  0.328200  0.265400  1.0
  C  C276  1  0.747500  0.671800  0.734600  1.0
  C  C277  1  0.253400  0.263900  0.334400  1.0
  C  C278  1  0.746600  0.736100  0.665600  1.0
  C  C279  1  0.089100  0.423200  0.287600  1.0
  C  C280  1  0.910900  0.576800  0.712400  1.0
  C  C281  1  0.006300  0.509000  0.259800  1.0
  C  C282  1  0.993700  0.491000  0.740200  1.0
  C  C283  1  0.920400  0.542500  0.302500  1.0
  C  C284  1  0.079600  0.457500  0.697500  1.0
  C  C285  1  0.842800  0.622300  0.271500  1.0
  C  C286  1  0.157200  0.377700  0.728500  1.0
  C  C287  1  0.857100  0.670600  0.197100  1.0
  C  C288  1  0.142900  0.329400  0.802900  1.0
  C  C289  1  0.948100  0.635000  0.158000  1.0
  C  C290  1  0.051900  0.365000  0.842000  1.0
  C  C291  1  0.254200  0.640700  0.164200  1.0
  C  C292  1  0.745800  0.359300  0.835800  1.0
  C  C293  1  0.334000  0.679700  0.174600  1.0
  C  C294  1  0.666000  0.320300  0.825400  1.0
  C  C295  1  0.439200  0.641500  0.159000  1.0
  C  C296  1  0.560800  0.358500  0.841000  1.0
  C  C297  1  0.460000  0.565100  0.130900  1.0
  C  C298  1  0.540000  0.434900  0.869100  1.0
  C  C299  1  0.375900  0.528000  0.122000  1.0
  C  C300  1  0.624100  0.472000  0.878000  1.0
  C  C301  1  0.395200  0.441500  0.095200  1.0
  C  C302  1  0.604800  0.558500  0.904800  1.0
  C  C303  1  0.494200  0.389100  0.079400  1.0
  C  C304  1  0.505800  0.610900  0.920600  1.0
  C  C305  1  0.505700  0.309800  0.055400  1.0
  C  C306  1  0.494300  0.690200  0.944600  1.0
  C  C307  1  0.412400  0.289800  0.044800  1.0
  C  C308  1  0.587600  0.710200  0.955200  1.0
  C  C309  1  0.315300  0.344900  0.060000  1.0
  C  C310  1  0.684700  0.655100  0.940000  1.0
  C  C311  1  0.806200  0.851300  0.794200  1.0
  C  C312  1  0.193800  0.148700  0.205800  1.0
  C  C313  1  0.092400  0.016500  0.616800  1.0
  C  C314  1  0.907600  0.983500  0.383200  1.0
  C  C315  1  0.207500  0.521100  0.876600  1.0
  C  C316  1  0.792500  0.478900  0.123400  1.0
  C  C317  1  0.402700  0.781800  0.694300  1.0
  C  C318  1  0.597300  0.218200  0.305700  1.0
  C  C319  1  0.077300  0.852800  0.026300  1.0
  C  C320  1  0.922700  0.147200  0.973700  1.0
  C  C321  1  0.270700  0.045000  0.795000  1.0
  C  C322  1  0.729300  0.955000  0.205000  1.0
  C  C323  1  0.747500  0.659800  0.317200  1.0
  C  C324  1  0.252500  0.340200  0.682800  1.0
  C  C325  1  0.528300  0.678200  0.173400  1.0
  C  C326  1  0.471700  0.321800  0.826600  1.0
  C  C327  1  0.615300  0.250100  0.042400  1.0
  C  C328  1  0.384700  0.749900  0.957600  1.0
  C  C329  1  0.921300  0.797200  0.941600  1.0
  C  C330  1  0.078700  0.202800  0.058400  1.0
  C  C331  1  0.103300  0.370000  0.364600  1.0
  C  C332  1  0.896700  0.630000  0.635400  1.0
  C  C333  1  0.184000  0.291000  0.391000  1.0
  C  C334  1  0.816000  0.709000  0.609000  1.0
  C  C335  1  0.190000  0.236000  0.470800  1.0
  C  C336  1  0.810000  0.764000  0.529200  1.0
  C  C337  1  0.586300  0.931500  0.032400  1.0
  C  C338  1  0.413700  0.068500  0.967600  1.0
  C  C339  1  0.595100  0.976100  0.960000  1.0
  C  C340  1  0.404900  0.023900  0.040000  1.0
  C  C341  1  0.510200  0.044500  0.927300  1.0
  C  C342  1  0.489800  0.955500  0.072700  1.0
  C  C343  1  0.662100  0.153100  0.630200  1.0
  C  C344  1  0.337900  0.846900  0.369800  1.0
  C  C345  1  0.592900  0.133300  0.693900  1.0
  C  C346  1  0.407100  0.866700  0.306100  1.0
  C  C347  1  0.539000  0.056500  0.712000  1.0
  C  C348  1  0.461000  0.943500  0.288000  1.0
  C  C349  1  0.554200  0.999500  0.666300  1.0
  C  C350  1  0.445800  0.000500  0.333700  1.0
  C  C351  1  0.623300  0.019300  0.602500  1.0
  C  C352  1  0.376700  0.980700  0.397500  1.0
  C  C353  1  0.677300  0.096100  0.584500  1.0
  C  C354  1  0.322700  0.903900  0.415500  1.0
  C  C355  1  0.835800  0.201200  0.673100  1.0
  C  C356  1  0.164200  0.798800  0.326900  1.0
  C  C357  1  0.824900  0.130400  0.741300  1.0
  C  C358  1  0.175100  0.869600  0.258700  1.0
  C  C359  1  0.901600  0.105100  0.790600  1.0
  C  C360  1  0.098400  0.894900  0.209400  1.0
  C  C361  1  0.989200  0.150700  0.771600  1.0
  C  C362  1  0.010800  0.849300  0.228400  1.0
  C  C363  1  0.000100  0.221600  0.703400  1.0
  C  C364  1  0.999900  0.778400  0.296600  1.0
  C  C365  1  0.923400  0.246800  0.654100  1.0
  C  C366  1  0.076600  0.753200  0.345900  1.0
  C  C367  1  0.657400  0.348500  0.622400  1.0
  C  C368  1  0.342600  0.651500  0.377600  1.0
  C  C369  1  0.554100  0.373200  0.601000  1.0
  C  C370  1  0.445900  0.626800  0.399000  1.0
  C  C371  1  0.488800  0.462700  0.601400  1.0
  C  C372  1  0.511200  0.537300  0.398600  1.0
  C  C373  1  0.526900  0.527500  0.623200  1.0
  C  C374  1  0.473100  0.472500  0.376800  1.0
  C  C375  1  0.630200  0.502800  0.644700  1.0
  C  C376  1  0.369800  0.497200  0.355300  1.0
  C  C377  1  0.695500  0.413300  0.644300  1.0
  C  C378  1  0.304500  0.586700  0.355700  1.0
  C  C379  1  0.875000  0.287300  0.382000  1.0
  C  C380  1  0.125000  0.712700  0.618000  1.0
  C  C381  1  0.931000  0.213000  0.436700  1.0
  C  C382  1  0.069000  0.787000  0.563300  1.0
  C  C383  1  0.889900  0.200900  0.512800  1.0
  C  C384  1  0.110100  0.799100  0.487200  1.0
  C  C385  1  0.796800  0.263000  0.529200  1.0
  C  C386  1  0.203200  0.737000  0.470800  1.0
  C  C387  1  0.743700  0.337400  0.473000  1.0
  C  C388  1  0.256300  0.662600  0.527000  1.0
  C  C389  1  0.784000  0.349700  0.400300  1.0
  C  C390  1  0.216000  0.650300  0.599700  1.0
  N  N391  1  0.845200  0.819200  0.976700  1.0
  N  N392  1  0.154800  0.180800  0.023300  1.0
  N  N393  1  0.122300  0.600800  0.028500  1.0
  N  N394  1  0.877700  0.399200  0.971500  1.0
  N  N395  1  0.930200  0.604400  0.878900  1.0
  N  N396  1  0.069800  0.395600  0.121100  1.0
  N  N397  1  0.001600  0.850000  0.790900  1.0
  N  N398  1  0.998400  0.150000  0.209100  1.0
  N  N399  1  0.077400  0.896700  0.742000  1.0
  N  N400  1  0.922600  0.103300  0.258000  1.0
  N  N401  1  0.184500  0.704400  0.831300  1.0
  N  N402  1  0.815500  0.295600  0.168700  1.0
  N  N403  1  0.238400  0.773000  0.781500  1.0
  N  N404  1  0.761600  0.227000  0.218500  1.0
  N  N405  1  0.121600  0.852900  0.896900  1.0
  N  N406  1  0.878400  0.147100  0.103100  1.0
  N  N407  1  0.175800  0.907200  0.835200  1.0
  N  N408  1  0.824200  0.092800  0.164800  1.0
  N  N409  1  0.174200  0.404700  0.240900  1.0
  N  N410  1  0.825800  0.595300  0.759100  1.0
  N  N411  1  0.021200  0.556300  0.186900  1.0
  N  N412  1  0.978800  0.443700  0.813100  1.0
  N  N413  1  0.275100  0.563000  0.139600  1.0
  N  N414  1  0.724900  0.437000  0.860400  1.0
  N  N415  1  0.304200  0.419300  0.085600  1.0
  N  N416  1  0.695800  0.580700  0.914400  1.0
  O  O417  1  0.440000  0.194000  0.524600  1
  O  O418  1  0.560000  0.806000  0.475400  1
  O  O419  1  0.668300  0.861300  0.068300  1.0
  O  O420  1  0.331700  0.138700  0.931700  1.0
