# generated using pymatgen
data_Co4B9H112C188N36(OF13)4
_symmetry_space_group_name_H-M   'P 1'
_cell_length_a   18.91130000
_cell_length_b   23.45490000
_cell_length_c   23.45490000
_cell_angle_alpha   90.00000000
_cell_angle_beta   90.00000000
_cell_angle_gamma   90.00000000
_symmetry_Int_Tables_number   1
_chemical_formula_structural   Co4B9H112C188N36(OF13)4
_chemical_formula_sum   'Co8 B18 H224 C376 N72 O8 F104'
_cell_volume   10403.71760816
_cell_formula_units_Z   2
loop_
 _symmetry_equiv_pos_site_id
 _symmetry_equiv_pos_as_xyz
  1  'x, y, z'
loop_
 _atom_site_type_symbol
 _atom_site_label
 _atom_site_symmetry_multiplicity
 _atom_site_fract_x
 _atom_site_fract_y
 _atom_site_fract_z
 _atom_site_occupancy
  Co  Co1  1  0.763640  0.277660  0.617270  1.0
  Co  Co2  1  0.763640  0.722340  0.382730  1.0
  Co  Co3  1  0.236360  0.617270  0.722340  1.0
  Co  Co4  1  0.236360  0.382730  0.277660  1.0
  Co  Co5  1  0.263640  0.777660  0.117270  1.0
  Co  Co6  1  0.263640  0.222340  0.882730  1.0
  Co  Co7  1  0.736360  0.117270  0.222340  1.0
  Co  Co8  1  0.736360  0.882730  0.777660  1.0
  B  B9  1  0.473600  0.478000  0.766000  1
  B  B10  1  0.473600  0.522000  0.234000  1
  B  B11  1  0.526400  0.766000  0.522000  1
  B  B12  1  0.526400  0.234000  0.478000  1
  B  B13  1  0.973600  0.978000  0.266000  1
  B  B14  1  0.973600  0.022000  0.734000  1
  B  B15  1  0.026400  0.266000  0.022000  1
  B  B16  1  0.026400  0.734000  0.978000  1
  B  B17  1  0.183700  0.287200  0.576100  1
  B  B18  1  0.183700  0.712800  0.423900  1
  B  B19  1  0.816300  0.576100  0.712800  1
  B  B20  1  0.816300  0.423900  0.287200  1
  B  B21  1  0.683700  0.787200  0.076100  1
  B  B22  1  0.683700  0.212800  0.923900  1
  B  B23  1  0.316300  0.076100  0.212800  1
  B  B24  1  0.316300  0.923900  0.787200  1
  B  B25  1  0.750000  0.000000  0.500000  1
  B  B26  1  0.250000  0.500000  0.000000  1
  H  H27  1  0.758100  0.309000  0.752700  1.0
  H  H28  1  0.758100  0.691000  0.247300  1.0
  H  H29  1  0.241900  0.752700  0.691000  1.0
  H  H30  1  0.241900  0.247300  0.309000  1.0
  H  H31  1  0.258100  0.809000  0.252700  1.0
  H  H32  1  0.258100  0.191000  0.747300  1.0
  H  H33  1  0.741900  0.252700  0.191000  1.0
  H  H34  1  0.741900  0.747300  0.809000  1.0
  H  H35  1  0.806700  0.273100  0.836100  1.0
  H  H36  1  0.806700  0.726900  0.163900  1.0
  H  H37  1  0.193300  0.836100  0.726900  1.0
  H  H38  1  0.193300  0.163900  0.273100  1.0
  H  H39  1  0.306700  0.773100  0.336100  1.0
  H  H40  1  0.306700  0.226900  0.663900  1.0
  H  H41  1  0.693300  0.336100  0.226900  1.0
  H  H42  1  0.693300  0.663900  0.773100  1.0
  H  H43  1  0.871700  0.189200  0.834000  1.0
  H  H44  1  0.871700  0.810800  0.166000  1.0
  H  H45  1  0.128300  0.834000  0.810800  1.0
  H  H46  1  0.128300  0.166000  0.189200  1.0
  H  H47  1  0.371700  0.689200  0.334000  1.0
  H  H48  1  0.371700  0.310800  0.666000  1.0
  H  H49  1  0.628300  0.334000  0.310800  1.0
  H  H50  1  0.628300  0.666000  0.689200  1.0
  H  H51  1  0.888200  0.141400  0.748500  1.0
  H  H52  1  0.888200  0.858600  0.251500  1.0
  H  H53  1  0.111800  0.748500  0.858600  1.0
  H  H54  1  0.111800  0.251500  0.141400  1.0
  H  H55  1  0.388200  0.641400  0.248500  1.0
  H  H56  1  0.388200  0.358600  0.751500  1.0
  H  H57  1  0.611800  0.248500  0.358600  1.0
  H  H58  1  0.611800  0.751500  0.641400  1.0
  H  H59  1  0.855400  0.076700  0.550800  1.0
  H  H60  1  0.855400  0.923300  0.449200  1.0
  H  H61  1  0.144600  0.550800  0.923300  1.0
  H  H62  1  0.144600  0.449200  0.076700  1.0
  H  H63  1  0.355400  0.576700  0.050800  1.0
  H  H64  1  0.355400  0.423300  0.949200  1.0
  H  H65  1  0.644600  0.050800  0.423300  1.0
  H  H66  1  0.644600  0.949200  0.576700  1.0
  H  H67  1  0.889600  0.091700  0.653300  1.0
  H  H68  1  0.889600  0.908300  0.346700  1.0
  H  H69  1  0.110400  0.653300  0.908300  1.0
  H  H70  1  0.110400  0.346700  0.091700  1.0
  H  H71  1  0.389600  0.591700  0.153300  1.0
  H  H72  1  0.389600  0.408300  0.846700  1.0
  H  H73  1  0.610400  0.153300  0.408300  1.0
  H  H74  1  0.610400  0.846700  0.591700  1.0
  H  H75  1  0.731700  0.188000  0.508500  1.0
  H  H76  1  0.731700  0.812000  0.491500  1.0
  H  H77  1  0.268300  0.508500  0.812000  1.0
  H  H78  1  0.268300  0.491500  0.188000  1.0
  H  H79  1  0.231700  0.688000  0.008500  1.0
  H  H80  1  0.231700  0.312000  0.991500  1.0
  H  H81  1  0.768300  0.008500  0.312000  1.0
  H  H82  1  0.768300  0.991500  0.688000  1.0
  H  H83  1  0.763400  0.131000  0.485200  1.0
  H  H84  1  0.763400  0.869000  0.514800  1.0
  H  H85  1  0.236600  0.485200  0.869000  1.0
  H  H86  1  0.236600  0.514800  0.131000  1.0
  H  H87  1  0.263400  0.631000  0.985200  1.0
  H  H88  1  0.263400  0.369000  0.014800  1.0
  H  H89  1  0.736600  0.985200  0.369000  1.0
  H  H90  1  0.736600  0.014800  0.631000  1.0
  H  H91  1  0.640200  0.298300  0.527200  1.0
  H  H92  1  0.640200  0.701700  0.472800  1.0
  H  H93  1  0.359800  0.527200  0.701700  1.0
  H  H94  1  0.359800  0.472800  0.298300  1.0
  H  H95  1  0.140200  0.798300  0.027200  1.0
  H  H96  1  0.140200  0.201700  0.972800  1.0
  H  H97  1  0.859800  0.027200  0.201700  1.0
  H  H98  1  0.859800  0.972800  0.798300  1.0
  H  H99  1  0.627300  0.345400  0.440900  1.0
  H  H100  1  0.627300  0.654600  0.559100  1.0
  H  H101  1  0.372700  0.440900  0.654600  1.0
  H  H102  1  0.372700  0.559100  0.345400  1.0
  H  H103  1  0.127300  0.845400  0.940900  1.0
  H  H104  1  0.127300  0.154600  0.059100  1.0
  H  H105  1  0.872700  0.940900  0.154600  1.0
  H  H106  1  0.872700  0.059100  0.845400  1.0
  H  H107  1  0.724800  0.386600  0.397200  1.0
  H  H108  1  0.724800  0.613400  0.602800  1.0
  H  H109  1  0.275200  0.397200  0.613400  1.0
  H  H110  1  0.275200  0.602800  0.386600  1.0
  H  H111  1  0.224800  0.886600  0.897200  1.0
  H  H112  1  0.224800  0.113400  0.102800  1.0
  H  H113  1  0.775200  0.897200  0.113400  1.0
  H  H114  1  0.775200  0.102800  0.886600  1.0
  H  H115  1  0.835200  0.380800  0.440000  1.0
  H  H116  1  0.835200  0.619200  0.560000  1.0
  H  H117  1  0.164800  0.440000  0.619200  1.0
  H  H118  1  0.164800  0.560000  0.380800  1.0
  H  H119  1  0.335200  0.880800  0.940000  1.0
  H  H120  1  0.335200  0.119200  0.060000  1.0
  H  H121  1  0.664800  0.940000  0.119200  1.0
  H  H122  1  0.664800  0.060000  0.880800  1.0
  H  H123  1  0.027700  0.337500  0.571900  1.0
  H  H124  1  0.027700  0.662500  0.428100  1.0
  H  H125  1  0.972300  0.571900  0.662500  1.0
  H  H126  1  0.972300  0.428100  0.337500  1.0
  H  H127  1  0.527700  0.837500  0.071900  1.0
  H  H128  1  0.527700  0.162500  0.928100  1.0
  H  H129  1  0.472300  0.071900  0.162500  1.0
  H  H130  1  0.472300  0.928100  0.837500  1.0
  H  H131  1  0.950900  0.361200  0.487800  1.0
  H  H132  1  0.950900  0.638800  0.512200  1.0
  H  H133  1  0.049100  0.487800  0.638800  1.0
  H  H134  1  0.049100  0.512200  0.361200  1.0
  H  H135  1  0.450900  0.861200  0.987800  1.0
  H  H136  1  0.450900  0.138800  0.012200  1.0
  H  H137  1  0.549100  0.987800  0.138800  1.0
  H  H138  1  0.549100  0.012200  0.861200  1.0
  H  H139  1  0.985800  0.260700  0.667300  1.0
  H  H140  1  0.985800  0.739300  0.332700  1.0
  H  H141  1  0.014200  0.667300  0.739300  1.0
  H  H142  1  0.014200  0.332700  0.260700  1.0
  H  H143  1  0.485800  0.760700  0.167300  1.0
  H  H144  1  0.485800  0.239300  0.832700  1.0
  H  H145  1  0.514200  0.167300  0.239300  1.0
  H  H146  1  0.514200  0.832700  0.760700  1.0
  H  H147  1  0.914200  0.283500  0.692600  1.0
  H  H148  1  0.914200  0.716500  0.307400  1.0
  H  H149  1  0.085800  0.692600  0.716500  1.0
  H  H150  1  0.085800  0.307400  0.283500  1.0
  H  H151  1  0.414200  0.783500  0.192600  1.0
  H  H152  1  0.414200  0.216500  0.807400  1.0
  H  H153  1  0.585800  0.192600  0.216500  1.0
  H  H154  1  0.585800  0.807400  0.783500  1.0
  H  H155  1  0.972700  0.460200  0.769500  1.0
  H  H156  1  0.972700  0.539800  0.230500  1.0
  H  H157  1  0.027300  0.769500  0.539800  1.0
  H  H158  1  0.027300  0.230500  0.460200  1.0
  H  H159  1  0.472700  0.960200  0.269500  1.0
  H  H160  1  0.472700  0.039800  0.730500  1.0
  H  H161  1  0.527300  0.269500  0.039800  1.0
  H  H162  1  0.527300  0.730500  0.960200  1.0
  H  H163  1  0.911000  0.391400  0.718900  1.0
  H  H164  1  0.911000  0.608600  0.281100  1.0
  H  H165  1  0.089000  0.718900  0.608600  1.0
  H  H166  1  0.089000  0.281100  0.391400  1.0
  H  H167  1  0.411000  0.891400  0.218900  1.0
  H  H168  1  0.411000  0.108600  0.781100  1.0
  H  H169  1  0.589000  0.218900  0.108600  1.0
  H  H170  1  0.589000  0.781100  0.891400  1.0
  H  H171  1  0.091800  0.305400  0.692500  1.0
  H  H172  1  0.091800  0.694600  0.307500  1.0
  H  H173  1  0.908200  0.692500  0.694600  1.0
  H  H174  1  0.908200  0.307500  0.305400  1.0
  H  H175  1  0.591800  0.805400  0.192500  1.0
  H  H176  1  0.591800  0.194600  0.807500  1.0
  H  H177  1  0.408200  0.192500  0.194600  1.0
  H  H178  1  0.408200  0.807500  0.805400  1.0
  H  H179  1  0.082400  0.496300  0.807100  1.0
  H  H180  1  0.082400  0.503700  0.192900  1.0
  H  H181  1  0.917600  0.807100  0.503700  1.0
  H  H182  1  0.917600  0.192900  0.496300  1.0
  H  H183  1  0.582400  0.996300  0.307100  1.0
  H  H184  1  0.582400  0.003700  0.692900  1.0
  H  H185  1  0.417600  0.307100  0.003700  1.0
  H  H186  1  0.417600  0.692900  0.996300  1.0
  H  H187  1  0.736800  0.219200  0.410400  1.0
  H  H188  1  0.736800  0.780800  0.589600  1.0
  H  H189  1  0.263200  0.410400  0.780800  1.0
  H  H190  1  0.263200  0.589600  0.219200  1.0
  H  H191  1  0.236800  0.719200  0.910400  1.0
  H  H192  1  0.236800  0.280800  0.089600  1.0
  H  H193  1  0.763200  0.910400  0.280800  1.0
  H  H194  1  0.763200  0.089600  0.719200  1.0
  H  H195  1  0.201500  0.341500  0.730100  1.0
  H  H196  1  0.201500  0.658500  0.269900  1.0
  H  H197  1  0.798500  0.730100  0.658500  1.0
  H  H198  1  0.798500  0.269900  0.341500  1.0
  H  H199  1  0.701500  0.841500  0.230100  1.0
  H  H200  1  0.701500  0.158500  0.769900  1.0
  H  H201  1  0.298500  0.230100  0.158500  1.0
  H  H202  1  0.298500  0.769900  0.841500  1.0
  H  H203  1  0.659600  0.172400  0.602500  1.0
  H  H204  1  0.659600  0.827600  0.397500  1.0
  H  H205  1  0.340400  0.602500  0.827600  1.0
  H  H206  1  0.340400  0.397500  0.172400  1.0
  H  H207  1  0.159600  0.672400  0.102500  1.0
  H  H208  1  0.159600  0.327600  0.897500  1.0
  H  H209  1  0.840400  0.102500  0.327600  1.0
  H  H210  1  0.840400  0.897500  0.672400  1.0
  H  H211  1  0.543500  0.151200  0.626600  1.0
  H  H212  1  0.543500  0.848800  0.373400  1.0
  H  H213  1  0.456500  0.626600  0.848800  1.0
  H  H214  1  0.456500  0.373400  0.151200  1.0
  H  H215  1  0.043500  0.651200  0.126600  1.0
  H  H216  1  0.043500  0.348800  0.873400  1.0
  H  H217  1  0.956500  0.126600  0.348800  1.0
  H  H218  1  0.956500  0.873400  0.651200  1.0
  H  H219  1  0.474700  0.218400  0.673400  1.0
  H  H220  1  0.474700  0.781600  0.326600  1.0
  H  H221  1  0.525300  0.673400  0.781600  1.0
  H  H222  1  0.525300  0.326600  0.218400  1.0
  H  H223  1  0.974700  0.718400  0.173400  1.0
  H  H224  1  0.974700  0.281600  0.826600  1.0
  H  H225  1  0.025300  0.173400  0.281600  1.0
  H  H226  1  0.025300  0.826600  0.718400  1.0
  H  H227  1  0.522000  0.306800  0.696300  1.0
  H  H228  1  0.522000  0.693200  0.303700  1.0
  H  H229  1  0.478000  0.696300  0.693200  1.0
  H  H230  1  0.478000  0.303700  0.306800  1.0
  H  H231  1  0.022000  0.806800  0.196300  1.0
  H  H232  1  0.022000  0.193200  0.803700  1.0
  H  H233  1  0.978000  0.196300  0.193200  1.0
  H  H234  1  0.978000  0.803700  0.806800  1.0
  H  H235  1  0.684600  0.475900  0.709400  1.0
  H  H236  1  0.684600  0.524100  0.290600  1.0
  H  H237  1  0.315400  0.709400  0.524100  1.0
  H  H238  1  0.315400  0.290600  0.475900  1.0
  H  H239  1  0.184600  0.975900  0.209400  1.0
  H  H240  1  0.184600  0.024100  0.790600  1.0
  H  H241  1  0.815400  0.209400  0.024100  1.0
  H  H242  1  0.815400  0.790600  0.975900  1.0
  H  H243  1  0.586300  0.404300  0.718100  1.0
  H  H244  1  0.586300  0.595700  0.281900  1.0
  H  H245  1  0.413700  0.718100  0.595700  1.0
  H  H246  1  0.413700  0.281900  0.404300  1.0
  H  H247  1  0.086300  0.904300  0.218100  1.0
  H  H248  1  0.086300  0.095700  0.781900  1.0
  H  H249  1  0.913700  0.218100  0.095700  1.0
  H  H250  1  0.913700  0.781900  0.904300  1.0
  C  C251  1  0.819400  0.535000  0.424800  1
  C  C252  1  0.819400  0.465000  0.575200  1
  C  C253  1  0.180600  0.424800  0.465000  1
  C  C254  1  0.180600  0.575200  0.535000  1
  C  C255  1  0.319400  0.035000  0.924800  1
  C  C256  1  0.319400  0.965000  0.075200  1
  C  C257  1  0.680600  0.924800  0.965000  1
  C  C258  1  0.680600  0.075200  0.035000  1
  C  C259  1  0.755900  0.549000  0.398500  1
  C  C260  1  0.755900  0.451000  0.601500  1
  C  C261  1  0.244100  0.398500  0.451000  1
  C  C262  1  0.244100  0.601500  0.549000  1
  C  C263  1  0.255900  0.049000  0.898500  1
  C  C264  1  0.255900  0.951000  0.101500  1
  C  C265  1  0.744100  0.898500  0.951000  1
  C  C266  1  0.744100  0.101500  0.049000  1
  C  C267  1  0.755600  0.500100  0.499800  1.0
  C  C268  1  0.755600  0.499900  0.500200  1.0
  C  C269  1  0.244400  0.499800  0.499900  1.0
  C  C270  1  0.244400  0.500200  0.500100  1.0
  C  C271  1  0.255600  0.000100  0.999800  1.0
  C  C272  1  0.255600  0.999900  0.000200  1.0
  C  C273  1  0.744400  0.999800  0.999900  1.0
  C  C274  1  0.744400  0.000200  0.000100  1.0
  C  C275  1  0.877900  0.499200  0.499400  1.0
  C  C276  1  0.877900  0.500800  0.500600  1.0
  C  C277  1  0.122100  0.499400  0.500800  1.0
  C  C278  1  0.122100  0.500600  0.499200  1.0
  C  C279  1  0.377900  0.999200  0.999400  1.0
  C  C280  1  0.377900  0.000800  0.000600  1.0
  C  C281  1  0.622100  0.999400  0.000800  1.0
  C  C282  1  0.622100  0.000600  0.999200  1.0
  C  C283  1  0.784200  0.275400  0.751900  1.0
  C  C284  1  0.784200  0.724600  0.248100  1.0
  C  C285  1  0.215800  0.751900  0.724600  1.0
  C  C286  1  0.215800  0.248100  0.275400  1.0
  C  C287  1  0.284200  0.775400  0.251900  1.0
  C  C288  1  0.284200  0.224600  0.748100  1.0
  C  C289  1  0.715800  0.251900  0.224600  1.0
  C  C290  1  0.715800  0.748100  0.775400  1.0
  C  C291  1  0.813300  0.253900  0.801850  1.0
  C  C292  1  0.813300  0.746100  0.198150  1.0
  C  C293  1  0.186700  0.801850  0.746100  1.0
  C  C294  1  0.186700  0.198150  0.253900  1.0
  C  C295  1  0.313300  0.753900  0.301850  1.0
  C  C296  1  0.313300  0.246100  0.698150  1.0
  C  C297  1  0.686700  0.301850  0.246100  1.0
  C  C298  1  0.686700  0.698150  0.753900  1.0
  C  C299  1  0.852200  0.203600  0.800570  1.0
  C  C300  1  0.852200  0.796400  0.199430  1.0
  C  C301  1  0.147800  0.800570  0.796400  1.0
  C  C302  1  0.147800  0.199430  0.203600  1.0
  C  C303  1  0.352200  0.703600  0.300570  1.0
  C  C304  1  0.352200  0.296400  0.699430  1.0
  C  C305  1  0.647800  0.300570  0.296400  1.0
  C  C306  1  0.647800  0.699430  0.703600  1.0
  C  C307  1  0.862100  0.175000  0.749300  1.0
  C  C308  1  0.862100  0.825000  0.250700  1.0
  C  C309  1  0.137900  0.749300  0.825000  1.0
  C  C310  1  0.137900  0.250700  0.175000  1.0
  C  C311  1  0.362100  0.675000  0.249300  1.0
  C  C312  1  0.362100  0.325000  0.750700  1.0
  C  C313  1  0.637900  0.249300  0.325000  1.0
  C  C314  1  0.637900  0.750700  0.675000  1.0
  C  C315  1  0.833000  0.196500  0.699360  1.0
  C  C316  1  0.833000  0.803500  0.300640  1.0
  C  C317  1  0.167000  0.699360  0.803500  1.0
  C  C318  1  0.167000  0.300640  0.196500  1.0
  C  C319  1  0.333000  0.696500  0.199360  1.0
  C  C320  1  0.333000  0.303500  0.800640  1.0
  C  C321  1  0.667000  0.199360  0.303500  1.0
  C  C322  1  0.667000  0.800640  0.696500  1.0
  C  C323  1  0.844600  0.108490  0.572800  1.0
  C  C324  1  0.844600  0.891510  0.427200  1.0
  C  C325  1  0.155400  0.572800  0.891510  1.0
  C  C326  1  0.155400  0.427200  0.108490  1.0
  C  C327  1  0.344600  0.608490  0.072800  1.0
  C  C328  1  0.344600  0.391510  0.927200  1.0
  C  C329  1  0.655400  0.072800  0.391510  1.0
  C  C330  1  0.655400  0.927200  0.608490  1.0
  C  C331  1  0.863900  0.117000  0.630700  1.0
  C  C332  1  0.863900  0.883000  0.369300  1.0
  C  C333  1  0.136100  0.630700  0.883000  1.0
  C  C334  1  0.136100  0.369300  0.117000  1.0
  C  C335  1  0.363900  0.617000  0.130700  1.0
  C  C336  1  0.363900  0.383000  0.869300  1.0
  C  C337  1  0.636100  0.130700  0.383000  1.0
  C  C338  1  0.636100  0.869300  0.617000  1.0
  C  C339  1  0.837200  0.170800  0.648220  1.0
  C  C340  1  0.837200  0.829200  0.351780  1.0
  C  C341  1  0.162800  0.648220  0.829200  1.0
  C  C342  1  0.162800  0.351780  0.170800  1.0
  C  C343  1  0.337200  0.670800  0.148220  1.0
  C  C344  1  0.337200  0.329200  0.851780  1.0
  C  C345  1  0.662800  0.148220  0.329200  1.0
  C  C346  1  0.662800  0.851780  0.670800  1.0
  C  C347  1  0.775500  0.167300  0.502500  1.0
  C  C348  1  0.775500  0.832700  0.497500  1.0
  C  C349  1  0.224500  0.502500  0.832700  1.0
  C  C350  1  0.224500  0.497500  0.167300  1.0
  C  C351  1  0.275500  0.667300  0.002500  1.0
  C  C352  1  0.275500  0.332700  0.997500  1.0
  C  C353  1  0.724500  0.002500  0.332700  1.0
  C  C354  1  0.724500  0.997500  0.667300  1.0
  C  C355  1  0.679300  0.314800  0.509700  1.0
  C  C356  1  0.679300  0.685200  0.490300  1.0
  C  C357  1  0.320700  0.509700  0.685200  1.0
  C  C358  1  0.320700  0.490300  0.314800  1.0
  C  C359  1  0.179300  0.814800  0.009700  1.0
  C  C360  1  0.179300  0.185200  0.990300  1.0
  C  C361  1  0.820700  0.009700  0.185200  1.0
  C  C362  1  0.820700  0.990300  0.814800  1.0
  C  C363  1  0.671500  0.343000  0.458000  1.0
  C  C364  1  0.671500  0.657000  0.542000  1.0
  C  C365  1  0.328500  0.458000  0.657000  1.0
  C  C366  1  0.328500  0.542000  0.343000  1.0
  C  C367  1  0.171500  0.843000  0.958000  1.0
  C  C368  1  0.171500  0.157000  0.042000  1.0
  C  C369  1  0.828500  0.958000  0.157000  1.0
  C  C370  1  0.828500  0.042000  0.843000  1.0
  C  C371  1  0.729900  0.367800  0.431900  1.0
  C  C372  1  0.729900  0.632200  0.568100  1.0
  C  C373  1  0.270100  0.431900  0.632200  1.0
  C  C374  1  0.270100  0.568100  0.367800  1.0
  C  C375  1  0.229900  0.867800  0.931900  1.0
  C  C376  1  0.229900  0.132200  0.068100  1.0
  C  C377  1  0.770100  0.931900  0.132200  1.0
  C  C378  1  0.770100  0.068100  0.867800  1.0
  C  C379  1  0.796100  0.364300  0.457500  1.0
  C  C380  1  0.796100  0.635700  0.542500  1.0
  C  C381  1  0.203900  0.457500  0.635700  1.0
  C  C382  1  0.203900  0.542500  0.364300  1.0
  C  C383  1  0.296100  0.864300  0.957500  1.0
  C  C384  1  0.296100  0.135700  0.042500  1.0
  C  C385  1  0.703900  0.957500  0.135700  1.0
  C  C386  1  0.703900  0.042500  0.864300  1.0
  C  C387  1  0.803800  0.336100  0.509200  1.0
  C  C388  1  0.803800  0.663900  0.490800  1.0
  C  C389  1  0.196200  0.509200  0.663900  1.0
  C  C390  1  0.196200  0.490800  0.336100  1.0
  C  C391  1  0.303800  0.836100  0.009200  1.0
  C  C392  1  0.303800  0.163900  0.990800  1.0
  C  C393  1  0.696200  0.009200  0.163900  1.0
  C  C394  1  0.696200  0.990800  0.836100  1.0
  C  C395  1  0.978900  0.333500  0.570200  1.0
  C  C396  1  0.978900  0.666500  0.429800  1.0
  C  C397  1  0.021100  0.570200  0.666500  1.0
  C  C398  1  0.021100  0.429800  0.333500  1.0
  C  C399  1  0.478900  0.833500  0.070200  1.0
  C  C400  1  0.478900  0.166500  0.929800  1.0
  C  C401  1  0.521100  0.070200  0.166500  1.0
  C  C402  1  0.521100  0.929800  0.833500  1.0
  C  C403  1  0.935500  0.346900  0.522600  1.0
  C  C404  1  0.935500  0.653100  0.477400  1.0
  C  C405  1  0.064500  0.522600  0.653100  1.0
  C  C406  1  0.064500  0.477400  0.346900  1.0
  C  C407  1  0.435500  0.846900  0.022600  1.0
  C  C408  1  0.435500  0.153100  0.977400  1.0
  C  C409  1  0.564500  0.022600  0.153100  1.0
  C  C410  1  0.564500  0.977400  0.846900  1.0
  C  C411  1  0.864300  0.334700  0.537600  1.0
  C  C412  1  0.864300  0.665300  0.462400  1.0
  C  C413  1  0.135700  0.537600  0.665300  1.0
  C  C414  1  0.135700  0.462400  0.334700  1.0
  C  C415  1  0.364300  0.834700  0.037600  1.0
  C  C416  1  0.364300  0.165300  0.962400  1.0
  C  C417  1  0.635700  0.037600  0.165300  1.0
  C  C418  1  0.635700  0.962400  0.834700  1.0
  C  C419  1  0.955700  0.294000  0.670600  1.0
  C  C420  1  0.955700  0.706000  0.329400  1.0
  C  C421  1  0.044300  0.670600  0.706000  1.0
  C  C422  1  0.044300  0.329400  0.294000  1.0
  C  C423  1  0.455700  0.794000  0.170600  1.0
  C  C424  1  0.455700  0.206000  0.829400  1.0
  C  C425  1  0.544300  0.170600  0.206000  1.0
  C  C426  1  0.544300  0.829400  0.794000  1.0
  C  C427  1  0.996590  0.429200  0.754100  1.0
  C  C428  1  0.996590  0.570800  0.245900  1.0
  C  C429  1  0.003410  0.754100  0.570800  1.0
  C  C430  1  0.003410  0.245900  0.429200  1.0
  C  C431  1  0.496590  0.929200  0.254100  1.0
  C  C432  1  0.496590  0.070800  0.745900  1.0
  C  C433  1  0.503410  0.254100  0.070800  1.0
  C  C434  1  0.503410  0.745900  0.929200  1.0
  C  C435  1  0.959610  0.387900  0.723700  1.0
  C  C436  1  0.959610  0.612100  0.276300  1.0
  C  C437  1  0.040390  0.723700  0.612100  1.0
  C  C438  1  0.040390  0.276300  0.387900  1.0
  C  C439  1  0.459610  0.887900  0.223700  1.0
  C  C440  1  0.459610  0.112100  0.776300  1.0
  C  C441  1  0.540390  0.223700  0.112100  1.0
  C  C442  1  0.540390  0.776300  0.887900  1.0
  C  C443  1  0.995300  0.341500  0.700700  1.0
  C  C444  1  0.995300  0.658500  0.299300  1.0
  C  C445  1  0.004700  0.700700  0.658500  1.0
  C  C446  1  0.004700  0.299300  0.341500  1.0
  C  C447  1  0.495300  0.841500  0.200700  1.0
  C  C448  1  0.495300  0.158500  0.799300  1.0
  C  C449  1  0.504700  0.200700  0.158500  1.0
  C  C450  1  0.504700  0.799300  0.841500  1.0
  C  C451  1  0.068000  0.336400  0.707940  1.0
  C  C452  1  0.068000  0.663600  0.292060  1.0
  C  C453  1  0.932000  0.707940  0.663600  1.0
  C  C454  1  0.932000  0.292060  0.336400  1.0
  C  C455  1  0.568000  0.836400  0.207940  1.0
  C  C456  1  0.568000  0.163600  0.792060  1.0
  C  C457  1  0.432000  0.207940  0.163600  1.0
  C  C458  1  0.432000  0.792060  0.836400  1.0
  C  C459  1  0.104940  0.377660  0.738290  1.0
  C  C460  1  0.104940  0.622340  0.261710  1.0
  C  C461  1  0.895060  0.738290  0.622340  1.0
  C  C462  1  0.895060  0.261710  0.377660  1.0
  C  C463  1  0.604940  0.877660  0.238290  1.0
  C  C464  1  0.604940  0.122340  0.761710  1.0
  C  C465  1  0.395060  0.238290  0.122340  1.0
  C  C466  1  0.395060  0.761710  0.877660  1.0
  C  C467  1  0.069260  0.424050  0.761360  1.0
  C  C468  1  0.069260  0.575950  0.238640  1.0
  C  C469  1  0.930740  0.761360  0.575950  1.0
  C  C470  1  0.930740  0.238640  0.424050  1.0
  C  C471  1  0.569260  0.924050  0.261360  1.0
  C  C472  1  0.569260  0.075950  0.738640  1.0
  C  C473  1  0.430740  0.261360  0.075950  1.0
  C  C474  1  0.430740  0.738640  0.924050  1.0
  C  C475  1  0.106200  0.465300  0.791700  1.0
  C  C476  1  0.106200  0.534700  0.208300  1.0
  C  C477  1  0.893800  0.791700  0.534700  1.0
  C  C478  1  0.893800  0.208300  0.465300  1.0
  C  C479  1  0.606200  0.965300  0.291700  1.0
  C  C480  1  0.606200  0.034700  0.708300  1.0
  C  C481  1  0.393800  0.291700  0.034700  1.0
  C  C482  1  0.393800  0.708300  0.965300  1.0
  C  C483  1  0.821100  0.201010  0.460180  1.0
  C  C484  1  0.821100  0.798990  0.539820  1.0
  C  C485  1  0.178900  0.460180  0.798990  1.0
  C  C486  1  0.178900  0.539820  0.201010  1.0
  C  C487  1  0.321100  0.701010  0.960180  1.0
  C  C488  1  0.321100  0.298990  0.039820  1.0
  C  C489  1  0.678900  0.960180  0.298990  1.0
  C  C490  1  0.678900  0.039820  0.701010  1.0
  C  C491  1  0.785410  0.224100  0.413790  1.0
  C  C492  1  0.785410  0.775900  0.586210  1.0
  C  C493  1  0.214590  0.413790  0.775900  1.0
  C  C494  1  0.214590  0.586210  0.224100  1.0
  C  C495  1  0.285410  0.724100  0.913790  1.0
  C  C496  1  0.285410  0.275900  0.086210  1.0
  C  C497  1  0.714590  0.913790  0.275900  1.0
  C  C498  1  0.714590  0.086210  0.724100  1.0
  C  C499  1  0.177610  0.372530  0.745570  1.0
  C  C500  1  0.177610  0.627470  0.254430  1.0
  C  C501  1  0.822390  0.745570  0.627470  1.0
  C  C502  1  0.822390  0.254430  0.372530  1.0
  C  C503  1  0.677610  0.872530  0.245570  1.0
  C  C504  1  0.677610  0.127470  0.754430  1.0
  C  C505  1  0.322390  0.245570  0.127470  1.0
  C  C506  1  0.322390  0.754430  0.872530  1.0
  C  C507  1  0.632000  0.199400  0.621300  1.0
  C  C508  1  0.632000  0.800600  0.378700  1.0
  C  C509  1  0.368000  0.621300  0.800600  1.0
  C  C510  1  0.368000  0.378700  0.199400  1.0
  C  C511  1  0.132000  0.699400  0.121300  1.0
  C  C512  1  0.132000  0.300600  0.878700  1.0
  C  C513  1  0.868000  0.121300  0.300600  1.0
  C  C514  1  0.868000  0.878700  0.699400  1.0
  C  C515  1  0.562500  0.186700  0.635700  1.0
  C  C516  1  0.562500  0.813300  0.364300  1.0
  C  C517  1  0.437500  0.635700  0.813300  1.0
  C  C518  1  0.437500  0.364300  0.186700  1.0
  C  C519  1  0.062500  0.686700  0.135700  1.0
  C  C520  1  0.062500  0.313300  0.864300  1.0
  C  C521  1  0.937500  0.135700  0.313300  1.0
  C  C522  1  0.937500  0.864300  0.686700  1.0
  C  C523  1  0.521300  0.226900  0.663800  1.0
  C  C524  1  0.521300  0.773100  0.336200  1.0
  C  C525  1  0.478700  0.663800  0.773100  1.0
  C  C526  1  0.478700  0.336200  0.226900  1.0
  C  C527  1  0.021300  0.726900  0.163800  1.0
  C  C528  1  0.021300  0.273100  0.836200  1.0
  C  C529  1  0.978700  0.163800  0.273100  1.0
  C  C530  1  0.978700  0.836200  0.726900  1.0
  C  C531  1  0.549600  0.279900  0.677500  1.0
  C  C532  1  0.549600  0.720100  0.322500  1.0
  C  C533  1  0.450400  0.677500  0.720100  1.0
  C  C534  1  0.450400  0.322500  0.279900  1.0
  C  C535  1  0.049600  0.779900  0.177500  1.0
  C  C536  1  0.049600  0.220100  0.822500  1.0
  C  C537  1  0.950400  0.177500  0.220100  1.0
  C  C538  1  0.950400  0.822500  0.779900  1.0
  C  C539  1  0.619100  0.292600  0.663100  1.0
  C  C540  1  0.619100  0.707400  0.336900  1.0
  C  C541  1  0.380900  0.663100  0.707400  1.0
  C  C542  1  0.380900  0.336900  0.292600  1.0
  C  C543  1  0.119100  0.792600  0.163100  1.0
  C  C544  1  0.119100  0.207400  0.836900  1.0
  C  C545  1  0.880900  0.163100  0.207400  1.0
  C  C546  1  0.880900  0.836900  0.792600  1.0
  C  C547  1  0.685600  0.438600  0.696100  1.0
  C  C548  1  0.685600  0.561400  0.303900  1.0
  C  C549  1  0.314400  0.696100  0.561400  1.0
  C  C550  1  0.314400  0.303900  0.438600  1.0
  C  C551  1  0.185600  0.938600  0.196100  1.0
  C  C552  1  0.185600  0.061400  0.803900  1.0
  C  C553  1  0.814400  0.196100  0.061400  1.0
  C  C554  1  0.814400  0.803900  0.938600  1.0
  C  C555  1  0.630100  0.398100  0.701000  1.0
  C  C556  1  0.630100  0.601900  0.299000  1.0
  C  C557  1  0.369900  0.701000  0.601900  1.0
  C  C558  1  0.369900  0.299000  0.398100  1.0
  C  C559  1  0.130100  0.898100  0.201000  1.0
  C  C560  1  0.130100  0.101900  0.799000  1.0
  C  C561  1  0.869900  0.201000  0.101900  1.0
  C  C562  1  0.869900  0.799000  0.898100  1.0
  C  C563  1  0.653100  0.346500  0.675300  1.0
  C  C564  1  0.653100  0.653500  0.324700  1.0
  C  C565  1  0.346900  0.675300  0.653500  1.0
  C  C566  1  0.346900  0.324700  0.346500  1.0
  C  C567  1  0.153100  0.846500  0.175300  1.0
  C  C568  1  0.153100  0.153500  0.824700  1.0
  C  C569  1  0.846900  0.175300  0.153500  1.0
  C  C570  1  0.846900  0.824700  0.846500  1.0
  C  C571  1  0.807100  0.463500  0.586300  1.0
  C  C572  1  0.807100  0.536500  0.413700  1.0
  C  C573  1  0.192900  0.586300  0.536500  1.0
  C  C574  1  0.192900  0.413700  0.463500  1.0
  C  C575  1  0.307100  0.963500  0.086300  1.0
  C  C576  1  0.307100  0.036500  0.913700  1.0
  C  C577  1  0.692900  0.086300  0.036500  1.0
  C  C578  1  0.692900  0.913700  0.963500  1.0
  C  C579  1  0.873600  0.476200  0.564500  1.0
  C  C580  1  0.873600  0.523800  0.435500  1.0
  C  C581  1  0.126400  0.564500  0.523800  1.0
  C  C582  1  0.126400  0.435500  0.476200  1.0
  C  C583  1  0.373600  0.976200  0.064500  1.0
  C  C584  1  0.373600  0.023800  0.935500  1.0
  C  C585  1  0.626400  0.064500  0.023800  1.0
  C  C586  1  0.626400  0.935500  0.976200  1.0
  C  C587  1  0.819000  0.490000  0.521400  1.0
  C  C588  1  0.819000  0.510000  0.478600  1.0
  C  C589  1  0.181000  0.521400  0.510000  1.0
  C  C590  1  0.181000  0.478600  0.490000  1.0
  C  C591  1  0.319000  0.990000  0.021400  1.0
  C  C592  1  0.319000  0.010000  0.978600  1.0
  C  C593  1  0.681000  0.021400  0.010000  1.0
  C  C594  1  0.681000  0.978600  0.990000  1.0
  C  C595  1  0.692100  0.538100  0.425800  1.0
  C  C596  1  0.692100  0.461900  0.574200  1.0
  C  C597  1  0.307900  0.425800  0.461900  1.0
  C  C598  1  0.307900  0.574200  0.538100  1.0
  C  C599  1  0.192100  0.038100  0.925800  1.0
  C  C600  1  0.192100  0.961900  0.074200  1.0
  C  C601  1  0.807900  0.925800  0.961900  1.0
  C  C602  1  0.807900  0.074200  0.038100  1.0
  C  C603  1  0.691800  0.513100  0.479500  1.0
  C  C604  1  0.691800  0.486900  0.520500  1.0
  C  C605  1  0.308200  0.479500  0.486900  1.0
  C  C606  1  0.308200  0.520500  0.513100  1.0
  C  C607  1  0.191800  0.013100  0.979500  1.0
  C  C608  1  0.191800  0.986900  0.020500  1.0
  C  C609  1  0.808200  0.979500  0.986900  1.0
  C  C610  1  0.808200  0.020500  0.013100  1.0
  C  C611  1  0.750800  0.475400  0.561100  1.0
  C  C612  1  0.750800  0.524600  0.438900  1.0
  C  C613  1  0.249200  0.561100  0.524600  1.0
  C  C614  1  0.249200  0.438900  0.475400  1.0
  C  C615  1  0.250800  0.975400  0.061100  1.0
  C  C616  1  0.250800  0.024600  0.938900  1.0
  C  C617  1  0.749200  0.061100  0.024600  1.0
  C  C618  1  0.749200  0.938900  0.975400  1.0
  C  C619  1  0.813700  0.436100  0.639600  1.0
  C  C620  1  0.813700  0.563900  0.360400  1.0
  C  C621  1  0.186300  0.639600  0.563900  1.0
  C  C622  1  0.186300  0.360400  0.436100  1.0
  C  C623  1  0.313700  0.936100  0.139600  1.0
  C  C624  1  0.313700  0.063900  0.860400  1.0
  C  C625  1  0.686300  0.139600  0.063900  1.0
  C  C626  1  0.686300  0.860400  0.936100  1.0
  N  N627  1  0.794000  0.246700  0.700630  1.0
  N  N628  1  0.794000  0.753300  0.299370  1.0
  N  N629  1  0.206000  0.700630  0.753300  1.0
  N  N630  1  0.206000  0.299370  0.246700  1.0
  N  N631  1  0.294000  0.746700  0.200630  1.0
  N  N632  1  0.294000  0.253300  0.799370  1.0
  N  N633  1  0.706000  0.200630  0.253300  1.0
  N  N634  1  0.706000  0.799370  0.746700  1.0
  N  N635  1  0.801400  0.195570  0.601130  1.0
  N  N636  1  0.801400  0.804430  0.398870  1.0
  N  N637  1  0.198600  0.601130  0.804430  1.0
  N  N638  1  0.198600  0.398870  0.195570  1.0
  N  N639  1  0.301400  0.695570  0.101130  1.0
  N  N640  1  0.301400  0.304430  0.898870  1.0
  N  N641  1  0.698600  0.101130  0.304430  1.0
  N  N642  1  0.698600  0.898870  0.695570  1.0
  N  N643  1  0.806000  0.157100  0.554540  1.0
  N  N644  1  0.806000  0.842900  0.445460  1.0
  N  N645  1  0.194000  0.554540  0.842900  1.0
  N  N646  1  0.194000  0.445460  0.157100  1.0
  N  N647  1  0.306000  0.657100  0.054540  1.0
  N  N648  1  0.306000  0.342900  0.945460  1.0
  N  N649  1  0.694000  0.054540  0.342900  1.0
  N  N650  1  0.694000  0.945460  0.657100  1.0
  N  N651  1  0.745400  0.311400  0.535300  1.0
  N  N652  1  0.745400  0.688600  0.464700  1.0
  N  N653  1  0.254600  0.535300  0.688600  1.0
  N  N654  1  0.254600  0.464700  0.311400  1.0
  N  N655  1  0.245400  0.811400  0.035300  1.0
  N  N656  1  0.245400  0.188600  0.964700  1.0
  N  N657  1  0.754600  0.035300  0.188600  1.0
  N  N658  1  0.754600  0.964700  0.811400  1.0
  N  N659  1  0.863700  0.313800  0.594400  1.0
  N  N660  1  0.863700  0.686200  0.405600  1.0
  N  N661  1  0.136300  0.594400  0.686200  1.0
  N  N662  1  0.136300  0.405600  0.313800  1.0
  N  N663  1  0.363700  0.813800  0.094400  1.0
  N  N664  1  0.363700  0.186200  0.905600  1.0
  N  N665  1  0.636300  0.094400  0.186200  1.0
  N  N666  1  0.636300  0.905600  0.813800  1.0
  N  N667  1  0.934500  0.313000  0.614500  1.0
  N  N668  1  0.934500  0.687000  0.385500  1.0
  N  N669  1  0.065500  0.614500  0.687000  1.0
  N  N670  1  0.065500  0.385500  0.313000  1.0
  N  N671  1  0.434500  0.813000  0.114500  1.0
  N  N672  1  0.434500  0.187000  0.885500  1.0
  N  N673  1  0.565500  0.114500  0.187000  1.0
  N  N674  1  0.565500  0.885500  0.813000  1.0
  N  N675  1  0.660300  0.252300  0.635000  1.0
  N  N676  1  0.660300  0.747700  0.365000  1.0
  N  N677  1  0.339700  0.635000  0.747700  1.0
  N  N678  1  0.339700  0.365000  0.252300  1.0
  N  N679  1  0.160300  0.752300  0.135000  1.0
  N  N680  1  0.160300  0.247700  0.865000  1.0
  N  N681  1  0.839700  0.135000  0.247700  1.0
  N  N682  1  0.839700  0.865000  0.752300  1.0
  N  N683  1  0.722800  0.355100  0.654500  1.0
  N  N684  1  0.722800  0.644900  0.345500  1.0
  N  N685  1  0.277200  0.654500  0.644900  1.0
  N  N686  1  0.277200  0.345500  0.355100  1.0
  N  N687  1  0.222800  0.855100  0.154500  1.0
  N  N688  1  0.222800  0.144900  0.845500  1.0
  N  N689  1  0.777200  0.154500  0.144900  1.0
  N  N690  1  0.777200  0.845500  0.855100  1.0
  N  N691  1  0.742900  0.412000  0.667400  1.0
  N  N692  1  0.742900  0.588000  0.332600  1.0
  N  N693  1  0.257100  0.667400  0.588000  1.0
  N  N694  1  0.257100  0.332600  0.412000  1.0
  N  N695  1  0.242900  0.912000  0.167400  1.0
  N  N696  1  0.242900  0.088000  0.832600  1.0
  N  N697  1  0.757100  0.167400  0.088000  1.0
  N  N698  1  0.757100  0.832600  0.912000  1.0
  O  O699  1  0.017200  0.185000  0.589500  1
  O  O700  1  0.017200  0.815000  0.410500  1
  O  O701  1  0.982800  0.589500  0.815000  1
  O  O702  1  0.982800  0.410500  0.185000  1
  O  O703  1  0.517200  0.685000  0.089500  1
  O  O704  1  0.517200  0.315000  0.910500  1
  O  O705  1  0.482800  0.089500  0.315000  1
  O  O706  1  0.482800  0.910500  0.685000  1
  F  F707  1  0.508600  0.528500  0.746800  1
  F  F708  1  0.508600  0.471500  0.253200  1
  F  F709  1  0.491400  0.746800  0.471500  1
  F  F710  1  0.491400  0.253200  0.528500  1
  F  F711  1  0.008600  0.028500  0.246800  1
  F  F712  1  0.008600  0.971500  0.753200  1
  F  F713  1  0.991400  0.246800  0.971500  1
  F  F714  1  0.991400  0.753200  0.028500  1
  F  F715  1  0.404400  0.492300  0.786000  1
  F  F716  1  0.404400  0.507700  0.214000  1
  F  F717  1  0.595600  0.786000  0.507700  1
  F  F718  1  0.595600  0.214000  0.492300  1
  F  F719  1  0.904400  0.992300  0.286000  1
  F  F720  1  0.904400  0.007700  0.714000  1
  F  F721  1  0.095600  0.286000  0.007700  1
  F  F722  1  0.095600  0.714000  0.992300  1
  F  F723  1  0.513300  0.452800  0.811200  1
  F  F724  1  0.513300  0.547200  0.188800  1
  F  F725  1  0.486700  0.811200  0.547200  1
  F  F726  1  0.486700  0.188800  0.452800  1
  F  F727  1  0.013300  0.952800  0.311200  1
  F  F728  1  0.013300  0.047200  0.688800  1
  F  F729  1  0.986700  0.311200  0.047200  1
  F  F730  1  0.986700  0.688800  0.952800  1
  F  F731  1  0.468000  0.438500  0.719800  1
  F  F732  1  0.468000  0.561500  0.280200  1
  F  F733  1  0.532000  0.719800  0.561500  1
  F  F734  1  0.532000  0.280200  0.438500  1
  F  F735  1  0.968000  0.938500  0.219800  1
  F  F736  1  0.968000  0.061500  0.780200  1
  F  F737  1  0.032000  0.219800  0.061500  1
  F  F738  1  0.032000  0.780200  0.938500  1
  F  F739  1  0.144300  0.339000  0.580100  1
  F  F740  1  0.144300  0.661000  0.419900  1
  F  F741  1  0.855700  0.580100  0.661000  1
  F  F742  1  0.855700  0.419900  0.339000  1
  F  F743  1  0.644300  0.839000  0.080100  1
  F  F744  1  0.644300  0.161000  0.919900  1
  F  F745  1  0.355700  0.080100  0.161000  1
  F  F746  1  0.355700  0.919900  0.839000  1
  F  F747  1  0.172600  0.253900  0.626300  1
  F  F748  1  0.172600  0.746100  0.373700  1
  F  F749  1  0.827400  0.626300  0.746100  1
  F  F750  1  0.827400  0.373700  0.253900  1
  F  F751  1  0.672600  0.753900  0.126300  1
  F  F752  1  0.672600  0.246100  0.873700  1
  F  F753  1  0.327400  0.126300  0.246100  1
  F  F754  1  0.327400  0.873700  0.753900  1
  F  F755  1  0.257200  0.300200  0.570600  1
  F  F756  1  0.257200  0.699800  0.429400  1
  F  F757  1  0.742800  0.570600  0.699800  1
  F  F758  1  0.742800  0.429400  0.300200  1
  F  F759  1  0.757200  0.800200  0.070600  1
  F  F760  1  0.757200  0.199800  0.929400  1
  F  F761  1  0.242800  0.070600  0.199800  1
  F  F762  1  0.242800  0.929400  0.800200  1
  F  F763  1  0.160600  0.255800  0.527300  1
  F  F764  1  0.160600  0.744200  0.472700  1
  F  F765  1  0.839400  0.527300  0.744200  1
  F  F766  1  0.839400  0.472700  0.255800  1
  F  F767  1  0.660600  0.755800  0.027300  1
  F  F768  1  0.660600  0.244200  0.972700  1
  F  F769  1  0.339400  0.027300  0.244200  1
  F  F770  1  0.339400  0.972700  0.755800  1
  F  F771  1  0.476300  0.521500  0.723300  1
  F  F772  1  0.476300  0.478500  0.276700  1
  F  F773  1  0.523700  0.723300  0.478500  1
  F  F774  1  0.523700  0.276700  0.521500  1
  F  F775  1  0.976300  0.021500  0.223300  1
  F  F776  1  0.976300  0.978500  0.776700  1
  F  F777  1  0.023700  0.223300  0.978500  1
  F  F778  1  0.023700  0.776700  0.021500  1
  F  F779  1  0.412700  0.486500  0.801100  1
  F  F780  1  0.412700  0.513500  0.198900  1
  F  F781  1  0.587300  0.801100  0.513500  1
  F  F782  1  0.587300  0.198900  0.486500  1
  F  F783  1  0.912700  0.986500  0.301100  1
  F  F784  1  0.912700  0.013500  0.698900  1
  F  F785  1  0.087300  0.301100  0.013500  1
  F  F786  1  0.087300  0.698900  0.986500  1
  F  F787  1  0.535900  0.481000  0.800400  1
  F  F788  1  0.535900  0.519000  0.199600  1
  F  F789  1  0.464100  0.800400  0.519000  1
  F  F790  1  0.464100  0.199600  0.481000  1
  F  F791  1  0.035900  0.981000  0.300400  1
  F  F792  1  0.035900  0.019000  0.699600  1
  F  F793  1  0.964100  0.300400  0.019000  1
  F  F794  1  0.964100  0.699600  0.981000  1
  F  F795  1  0.469600  0.423400  0.739300  1
  F  F796  1  0.469600  0.576600  0.260700  1
  F  F797  1  0.530400  0.739300  0.576600  1
  F  F798  1  0.530400  0.260700  0.423400  1
  F  F799  1  0.969600  0.923400  0.239300  1
  F  F800  1  0.969600  0.076600  0.760700  1
  F  F801  1  0.030400  0.239300  0.076600  1
  F  F802  1  0.030400  0.760700  0.923400  1
  F  F803  1  0.708100  0.039000  0.528500  1.0
  F  F804  1  0.708100  0.961000  0.471500  1.0
  F  F805  1  0.291900  0.528500  0.961000  1.0
  F  F806  1  0.291900  0.471500  0.039000  1.0
  F  F807  1  0.208100  0.539000  0.028500  1.0
  F  F808  1  0.208100  0.461000  0.971500  1.0
  F  F809  1  0.791900  0.028500  0.461000  1.0
  F  F810  1  0.791900  0.971500  0.539000  1.0
