# generated using pymatgen
data_H76Ru4C77S4N8(O3F2)7
_symmetry_space_group_name_H-M   'P 1'
_cell_length_a   10.47200000
_cell_length_b   19.44300000
_cell_length_c   24.87600000
_cell_angle_alpha   97.98000000
_cell_angle_beta   94.22000000
_cell_angle_gamma   91.94000000
_symmetry_Int_Tables_number   1
_chemical_formula_structural   H76Ru4C77S4N8(O3F2)7
_chemical_formula_sum   'H152 Ru8 C154 S8 N16 O42 F28'
_cell_volume   4997.30326184
_cell_formula_units_Z   2
loop_
 _symmetry_equiv_pos_site_id
 _symmetry_equiv_pos_as_xyz
  1  'x, y, z'
loop_
 _atom_site_type_symbol
 _atom_site_label
 _atom_site_symmetry_multiplicity
 _atom_site_fract_x
 _atom_site_fract_y
 _atom_site_fract_z
 _atom_site_occupancy
  H  H1  1  0.735000  0.412500  0.222900  1.0
  H  H2  1  0.265000  0.587500  0.777100  1.0
  H  H3  1  0.194100  0.408000  0.232100  1.0
  H  H4  1  0.805900  0.592000  0.767900  1.0
  H  H5  1  0.125800  0.548900  0.405800  1.0
  H  H6  1  0.874200  0.451100  0.594200  1.0
  H  H7  1  0.904200  0.544600  0.409600  1.0
  H  H8  1  0.095800  0.455400  0.590400  1.0
  H  H9  1  0.878300  0.724600  0.339100  1.0
  H  H10  1  0.121700  0.275400  0.660900  1.0
  H  H11  1  0.106400  0.730700  0.335500  1.0
  H  H12  1  0.893600  0.269300  0.664500  1.0
  H  H13  1  0.330300  0.656600  0.406800  1.0
  H  H14  1  0.669700  0.343400  0.593200  1.0
  H  H15  1  0.307600  0.678100  0.347100  1.0
  H  H16  1  0.692400  0.321900  0.652900  1.0
  H  H17  1  0.306000  0.597700  0.354900  1.0
  H  H18  1  0.694000  0.402300  0.645100  1.0
  H  H19  1  0.690800  0.658900  0.351500  1.0
  H  H20  1  0.309200  0.341100  0.648500  1.0
  H  H21  1  0.694600  0.534000  0.347500  1.0
  H  H22  1  0.305400  0.466000  0.652500  1.0
  H  H23  1  0.569900  0.567800  0.371700  1.0
  H  H24  1  0.430100  0.432200  0.628300  1.0
  H  H25  1  0.682200  0.545100  0.411900  1.0
  H  H26  1  0.317800  0.454900  0.588100  1.0
  H  H27  1  0.750900  0.668200  0.466300  1.0
  H  H28  1  0.249100  0.331800  0.533700  1.0
  H  H29  1  0.606600  0.673800  0.441800  1.0
  H  H30  1  0.393400  0.326200  0.558200  1.0
  H  H31  1  0.714600  0.730400  0.432900  1.0
  H  H32  1  0.285400  0.269600  0.567100  1.0
  H  H33  1  0.695500  0.138300  0.163100  1.0
  H  H34  1  0.304500  0.861700  0.836900  1.0
  H  H35  1  0.785200  0.185900  0.253200  1.0
  H  H36  1  0.214800  0.814100  0.746800  1.0
  H  H37  1  0.148100  0.146900  0.204200  1.0
  H  H38  1  0.851900  0.853100  0.795800  1.0
  H  H39  1  0.060500  0.097000  0.115700  1.0
  H  H40  1  0.939500  0.903000  0.884300  1.0
  H  H41  1  0.971400  0.222700  0.313600  1.0
  H  H42  1  0.028600  0.777300  0.686400  1.0
  H  H43  1  0.109400  0.222400  0.289800  1.0
  H  H44  1  0.890600  0.777600  0.710200  1.0
  H  H45  1  0.058900  0.157100  0.316300  1.0
  H  H46  1  0.941100  0.842900  0.683700  1.0
  H  H47  1  0.732200  0.101300  0.069000  1.0
  H  H48  1  0.267800  0.898700  0.931000  1.0
  H  H49  1  0.816400  0.970600  0.098700  1.0
  H  H50  1  0.183600  0.029400  0.901300  1.0
  H  H51  1  0.710200  0.975100  0.049800  1.0
  H  H52  1  0.289800  0.024900  0.950200  1.0
  H  H53  1  0.681700  0.003200  0.111100  1.0
  H  H54  1  0.318300  0.996800  0.888900  1.0
  H  H55  1  0.929900  0.113500  0.029400  1.0
  H  H56  1  0.070100  0.886500  0.970600  1.0
  H  H57  1  0.849000  0.046400  0.998400  1.0
  H  H58  1  0.151000  0.953600  0.001600  1.0
  H  H59  1  0.966600  0.037600  0.041400  1.0
  H  H60  1  0.033400  0.962400  0.958600  1.0
  H  H61  1  0.124600  0.233800  0.085400  1.0
  H  H62  1  0.875400  0.766200  0.914600  1.0
  H  H63  1  0.137600  0.269800  0.999100  1.0
  H  H64  1  0.862400  0.730200  0.000900  1.0
  H  H65  1  0.754100  0.297600  0.995600  1.0
  H  H66  1  0.245900  0.702400  0.004400  1.0
  H  H67  1  0.753700  0.262400  0.082200  1.0
  H  H68  1  0.246300  0.737600  0.917800  1.0
  H  H69  1  0.831400  0.375900  0.768000  1.0
  H  H70  1  0.168600  0.624100  0.232000  1.0
  H  H71  1  0.834900  0.348700  0.855400  1.0
  H  H72  1  0.165100  0.651300  0.144600  1.0
  H  H73  1  0.221100  0.339100  0.855800  1.0
  H  H74  1  0.778900  0.660900  0.144200  1.0
  H  H75  1  0.207600  0.366700  0.767400  1.0
  H  H76  1  0.792400  0.633300  0.232600  1.0
  H  H77  1  0.213900  0.063100  0.273800  1.0
  H  H78  1  0.786100  0.936900  0.726200  1.0
  H  H79  1  0.666667  0.057900  0.254600  1.0
  H  H80  1  0.333333  0.942100  0.745400  1.0
  H  H81  1  0.327700  0.940000  0.077100  1.0
  H  H82  1  0.672300  0.060000  0.922900  1.0
  H  H83  1  0.531000  0.890200  0.081500  1.0
  H  H84  1  0.469000  0.109800  0.918500  1.0
  H  H85  1  0.377200  0.732800  0.156000  1.0
  H  H86  1  0.622800  0.267200  0.844000  1.0
  H  H87  1  0.173300  0.783700  0.153200  1.0
  H  H88  1  0.826700  0.216300  0.846800  1.0
  H  H89  1  0.113500  0.947700  0.111500  1.0
  H  H90  1  0.886500  0.052300  0.888500  1.0
  H  H91  1  0.060500  0.888400  0.143800  1.0
  H  H92  1  0.939500  0.111600  0.856200  1.0
  H  H93  1  0.042400  0.878700  0.078700  1.0
  H  H94  1  0.957600  0.121300  0.921300  1.0
  H  H95  1  0.602700  0.742300  0.146400  1.0
  H  H96  1  0.397300  0.257700  0.853600  1.0
  H  H97  1  0.720300  0.837300  0.085500  1.0
  H  H98  1  0.279700  0.162700  0.914500  1.0
  H  H99  1  0.790800  0.794100  0.128400  1.0
  H  H100  1  0.209200  0.205900  0.871600  1.0
  H  H101  1  0.701900  0.856100  0.149100  1.0
  H  H102  1  0.298100  0.143900  0.850900  1.0
  H  H103  1  0.533500  0.672200  0.068300  1.0
  H  H104  1  0.466500  0.327800  0.931700  1.0
  H  H105  1  0.681800  0.690600  0.063200  1.0
  H  H106  1  0.318200  0.309400  0.936800  1.0
  H  H107  1  0.573900  0.728900  0.031000  1.0
  H  H108  1  0.426100  0.271100  0.969000  1.0
  H  H109  1  0.295400  0.287400  0.245000  1.0
  H  H110  1  0.704600  0.712600  0.755000  1.0
  H  H111  1  0.247600  0.329500  0.333900  1.0
  H  H112  1  0.752400  0.670500  0.666100  1.0
  H  H113  1  0.635700  0.372000  0.379300  1.0
  H  H114  1  0.364300  0.628000  0.620700  1.0
  H  H115  1  0.682300  0.325900  0.289800  1.0
  H  H116  1  0.317700  0.674100  0.710200  1.0
  H  H117  1  0.451900  0.245900  0.183200  1.0
  H  H118  1  0.548100  0.754100  0.816800  1.0
  H  H119  1  0.601900  0.257400  0.201200  1.0
  H  H120  1  0.398100  0.742600  0.798800  1.0
  H  H121  1  0.526400  0.316500  0.175100  1.0
  H  H122  1  0.473600  0.683500  0.824900  1.0
  H  H123  1  0.330100  0.359000  0.430100  1.0
  H  H124  1  0.669900  0.641000  0.569900  1.0
  H  H125  1  0.395600  0.496100  0.410000  1.0
  H  H126  1  0.604400  0.503900  0.590000  1.0
  H  H127  1  0.299600  0.477300  0.453600  1.0
  H  H128  1  0.700400  0.522700  0.546400  1.0
  H  H129  1  0.261500  0.455400  0.389800  1.0
  H  H130  1  0.738500  0.544600  0.610200  1.0
  H  H131  1  0.573300  0.435000  0.456700  1.0
  H  H132  1  0.426700  0.565000  0.543300  1.0
  H  H133  1  0.546500  0.356800  0.467400  1.0
  H  H134  1  0.453500  0.643200  0.532600  1.0
  H  H135  1  0.476300  0.419000  0.500600  1.0
  H  H136  1  0.523700  0.581000  0.499400  1.0
  H  H137  1  0.338600  0.201200  0.414900  1.0
  H  H138  1  0.661400  0.798800  0.585100  1.0
  H  H139  1  0.375200  0.174900  0.502300  1.0
  H  H140  1  0.624800  0.825100  0.497700  1.0
  H  H141  1  0.753500  0.217900  0.494900  1.0
  H  H142  1  0.246500  0.782100  0.505100  1.0
  H  H143  1  0.708100  0.242800  0.406300  1.0
  H  H144  1  0.291900  0.757200  0.593700  1.0
  H  H145  1  0.764600  0.148400  0.736000  1.0
  H  H146  1  0.235400  0.851600  0.264000  1.0
  H  H147  1  0.736400  0.166300  0.646100  1.0
  H  H148  1  0.263600  0.833700  0.353900  1.0
  H  H149  1  0.358200  0.187000  0.665100  1.0
  H  H150  1  0.641800  0.813000  0.334900  1.0
  H  H151  1  0.396200  0.166100  0.755200  1.0
  H  H152  1  0.603800  0.833900  0.244800  1.0
  Ru  Ru153  1  0.991780  0.596370  0.318470  1.0
  Ru  Ru154  1  0.008220  0.403630  0.681530  1.0
  Ru  Ru155  1  0.933880  0.210730  0.167020  1.0
  Ru  Ru156  1  0.066120  0.789270  0.832980  1.0
  Ru  Ru157  1  0.385590  0.877200  0.169970  1.0
  Ru  Ru158  1  0.614410  0.122800  0.830030  1.0
  Ru  Ru159  1  0.475230  0.259490  0.327150  1.0
  Ru  Ru160  1  0.524770  0.740510  0.672850  1.0
  C  C161  1  0.424400  0.140500  0.054200  1
  C  C162  1  0.575600  0.859500  0.945800  1
  C  C163  1  0.446000  0.531200  0.224200  1
  C  C164  1  0.554000  0.468800  0.775800  1
  C  C165  1  0.912000  0.933600  0.265800  1
  C  C166  1  0.088000  0.066400  0.734200  1
  C  C167  1  0.017000  0.338700  0.442800  1
  C  C168  1  0.983000  0.661300  0.557200  1
  C  C169  1  0.940000  0.389000  0.456600  1
  C  C170  1  0.060000  0.611000  0.543400  1
  C  C171  1  0.046900  0.464500  0.258600  1.0
  C  C172  1  0.953100  0.535500  0.741400  1.0
  C  C173  1  0.901300  0.465100  0.256800  1.0
  C  C174  1  0.098700  0.534900  0.743200  1.0
  C  C175  1  0.825400  0.409800  0.227900  1.0
  C  C176  1  0.174600  0.590200  0.772100  1.0
  C  C177  1  0.885100  0.351700  0.206900  1.0
  C  C178  1  0.114900  0.648300  0.793100  1.0
  C  C179  1  0.031000  0.349200  0.210800  1.0
  C  C180  1  0.969000  0.650800  0.789200  1.0
  C  C181  1  0.103700  0.407300  0.233600  1.0
  C  C182  1  0.896300  0.592700  0.766400  1.0
  C  C183  1  0.141700  0.645200  0.376800  1.0
  C  C184  1  0.858300  0.354800  0.623200  1.0
  C  C185  1  0.077600  0.590900  0.399300  1.0
  C  C186  1  0.922400  0.409100  0.600700  1.0
  C  C187  1  0.947000  0.588600  0.402000  1.0
  C  C188  1  0.053000  0.411400  0.598000  1.0
  C  C189  1  0.869800  0.639000  0.381000  1.0
  C  C190  1  0.130200  0.361000  0.619000  1.0
  C  C191  1  0.931500  0.694400  0.360400  1.0
  C  C192  1  0.068500  0.305600  0.639600  1.0
  C  C193  1  0.067000  0.697700  0.357700  1.0
  C  C194  1  0.933000  0.302300  0.642300  1.0
  C  C195  1  0.283800  0.644300  0.370900  1.0
  C  C196  1  0.716200  0.355700  0.629100  1.0
  C  C197  1  0.727500  0.636300  0.382500  1.0
  C  C198  1  0.272500  0.363700  0.617500  1.0
  C  C199  1  0.662800  0.564400  0.378000  1.0
  C  C200  1  0.337200  0.435600  0.622000  1.0
  C  C201  1  0.697100  0.681300  0.435700  1.0
  C  C202  1  0.302900  0.318700  0.564300  1.0
  C  C203  1  0.867300  0.102800  0.132600  1.0
  C  C204  1  0.132700  0.897200  0.867400  1.0
  C  C205  1  0.787100  0.130100  0.173800  1.0
  C  C206  1  0.212900  0.869900  0.826200  1.0
  C  C207  1  0.840500  0.158600  0.227800  1.0
  C  C208  1  0.159500  0.841400  0.772200  1.0
  C  C209  1  0.974600  0.161200  0.240600  1.0
  C  C210  1  0.025400  0.838800  0.759400  1.0
  C  C211  1  0.053600  0.135900  0.198400  1.0
  C  C212  1  0.946400  0.864100  0.801600  1.0
  C  C213  1  0.002000  0.105900  0.145600  1.0
  C  C214  1  0.998000  0.894100  0.854400  1.0
  C  C215  1  0.033600  0.193600  0.294700  1.0
  C  C216  1  0.966400  0.806400  0.705300  1.0
  C  C217  1  0.804500  0.071900  0.078600  1.0
  C  C218  1  0.195500  0.928100  0.921400  1.0
  C  C219  1  0.747900  0.998300  0.085200  1.0
  C  C220  1  0.252100  0.001700  0.914800  1.0
  C  C221  1  0.895700  0.066900  0.032800  1.0
  C  C222  1  0.104300  0.933100  0.967200  1.0
  C  C223  1  0.048800  0.246900  0.066800  1.0
  C  C224  1  0.951200  0.753100  0.933200  1.0
  C  C225  1  0.058100  0.268700  0.015200  1.0
  C  C226  1  0.941900  0.731300  0.984800  1.0
  C  C227  1  0.946700  0.288400  0.989000  1.0
  C  C228  1  0.053300  0.711600  0.011000  1.0
  C  C229  1  0.831500  0.285200  0.013500  1.0
  C  C230  1  0.168500  0.714800  0.986500  1.0
  C  C231  1  0.831400  0.263500  0.064800  1.0
  C  C232  1  0.168600  0.736500  0.935200  1.0
  C  C233  1  0.911300  0.368100  0.786300  1.0
  C  C234  1  0.088700  0.631900  0.213700  1.0
  C  C235  1  0.911900  0.352100  0.837800  1.0
  C  C236  1  0.088100  0.647900  0.162200  1.0
  C  C237  1  0.030600  0.340700  0.863700  1.0
  C  C238  1  0.969400  0.659300  0.136300  1.0
  C  C239  1  0.140300  0.346400  0.838000  1.0
  C  C240  1  0.859700  0.653600  0.162000  1.0
  C  C241  1  0.131700  0.362800  0.785700  1.0
  C  C242  1  0.868300  0.637200  0.214300  1.0
  C  C243  1  0.495200  0.006200  0.228600  1.0
  C  C244  1  0.504800  0.993800  0.771400  1.0
  C  C245  1  0.353700  0.007700  0.236000  1.0
  C  C246  1  0.646300  0.992300  0.764000  1.0
  C  C247  1  0.301900  0.063800  0.266900  1.0
  C  C248  1  0.698100  0.936200  0.733100  1.0
  C  C249  1  0.383300  0.120700  0.287100  1.0
  C  C250  1  0.616700  0.879300  0.712900  1.0
  C  C251  1  0.525500  0.120200  0.279600  1.0
  C  C252  1  0.474500  0.879800  0.720400  1.0
  C  C253  1  0.576400  0.061300  0.254400  1.0
  C  C254  1  0.423600  0.938700  0.745600  1.0
  C  C255  1  0.226800  0.862900  0.107900  1.0
  C  C256  1  0.773200  0.137100  0.892100  1.0
  C  C257  1  0.332400  0.891300  0.085700  1.0
  C  C258  1  0.667600  0.108700  0.914300  1.0
  C  C259  1  0.453800  0.862600  0.089100  1.0
  C  C260  1  0.546200  0.137400  0.910900  1.0
  C  C261  1  0.470000  0.799300  0.113500  1.0
  C  C262  1  0.530000  0.200700  0.886500  1.0
  C  C263  1  0.363000  0.769500  0.132000  1.0
  C  C264  1  0.637000  0.230500  0.868000  1.0
  C  C265  1  0.241800  0.800500  0.131500  1.0
  C  C266  1  0.758200  0.199500  0.868500  1.0
  C  C267  1  0.099600  0.897500  0.110700  1.0
  C  C268  1  0.900400  0.102500  0.889300  1.0
  C  C269  1  0.596000  0.766500  0.113400  1.0
  C  C270  1  0.404000  0.233500  0.886600  1.0
  C  C271  1  0.712900  0.818200  0.119700  1.0
  C  C272  1  0.287100  0.181800  0.880300  1.0
  C  C273  1  0.596300  0.709400  0.064600  1.0
  C  C274  1  0.403700  0.290600  0.935400  1.0
  C  C275  1  0.489500  0.312700  0.254900  1.0
  C  C276  1  0.510500  0.687300  0.745100  1.0
  C  C277  1  0.364100  0.314300  0.270100  1.0
  C  C278  1  0.635900  0.685700  0.729900  1.0
  C  C279  1  0.335900  0.338700  0.322900  1.0
  C  C280  1  0.664100  0.661300  0.677100  1.0
  C  C281  1  0.436400  0.366100  0.364800  1.0
  C  C282  1  0.563600  0.633900  0.635200  1.0
  C  C283  1  0.564200  0.364500  0.349900  1.0
  C  C284  1  0.435800  0.635500  0.650100  1.0
  C  C285  1  0.591700  0.336100  0.297100  1.0
  C  C286  1  0.408300  0.663900  0.702900  1.0
  C  C287  1  0.520100  0.280300  0.198600  1.0
  C  C288  1  0.479900  0.719700  0.801400  1.0
  C  C289  1  0.395200  0.393100  0.420400  1.0
  C  C290  1  0.604800  0.606900  0.579600  1.0
  C  C291  1  0.332500  0.461500  0.418300  1.0
  C  C292  1  0.667500  0.538500  0.581700  1.0
  C  C293  1  0.508300  0.401800  0.465400  1.0
  C  C294  1  0.491700  0.598200  0.534600  1.0
  C  C295  1  0.423500  0.205800  0.431700  1.0
  C  C296  1  0.576500  0.794200  0.568300  1.0
  C  C297  1  0.444300  0.190200  0.483700  1.0
  C  C298  1  0.555700  0.809800  0.516300  1.0
  C  C299  1  0.564800  0.197000  0.507800  1.0
  C  C300  1  0.435200  0.803000  0.492200  1.0
  C  C301  1  0.667800  0.215500  0.479100  1.0
  C  C302  1  0.332200  0.784500  0.520900  1.0
  C  C303  1  0.639800  0.230300  0.426700  1.0
  C  C304  1  0.360200  0.769700  0.573300  1.0
  C  C305  1  0.680800  0.155100  0.720800  1.0
  C  C306  1  0.319200  0.844900  0.279200  1.0
  C  C307  1  0.665000  0.165900  0.667500  1.0
  C  C308  1  0.335000  0.834100  0.332500  1.0
  C  C309  1  0.543300  0.176200  0.645400  1.0
  C  C310  1  0.456700  0.823800  0.354600  1.0
  C  C311  1  0.442000  0.177800  0.678800  1.0
  C  C312  1  0.558000  0.822200  0.321200  1.0
  C  C313  1  0.465100  0.165700  0.732400  1.0
  C  C314  1  0.534900  0.834300  0.267600  1.0
  S  S315  1  0.349200  0.106900  0.107470  1
  S  S316  1  0.650800  0.893100  0.892530  1
  S  S317  1  0.493700  0.620700  0.219160  1
  S  S318  1  0.506300  0.379300  0.780840  1
  S  S319  1  0.948100  0.841500  0.266780  1
  S  S320  1  0.051900  0.158500  0.733220  1
  S  S321  1  0.936100  0.371800  0.388630  1.0
  S  S322  1  0.063900  0.628200  0.611370  1.0
  N  N323  1  0.940800  0.243900  0.090200  1.0
  N  N324  1  0.059200  0.756100  0.909800  1.0
  N  N325  1  0.017300  0.373400  0.759900  1.0
  N  N326  1  0.982700  0.626600  0.240100  1.0
  N  N327  1  0.938000  0.312100  0.937300  1.0
  N  N328  1  0.062000  0.687900  0.062700  1.0
  N  N329  1  0.042800  0.319700  0.917800  1.0
  N  N330  1  0.957200  0.680300  0.082200  1.0
  N  N331  1  0.519300  0.227400  0.403800  1.0
  N  N332  1  0.480700  0.772600  0.596200  1.0
  N  N333  1  0.582600  0.153500  0.752100  1.0
  N  N334  1  0.417400  0.846500  0.247900  1.0
  N  N335  1  0.603500  0.186800  0.562500  1.0
  N  N336  1  0.396500  0.813200  0.437500  1.0
  N  N337  1  0.510700  0.187400  0.591000  1.0
  N  N338  1  0.489300  0.812600  0.409000  1.0
  O  O339  1  0.259000  0.054500  0.079400  1
  O  O340  1  0.741000  0.945500  0.920600  1
  O  O341  1  0.454300  0.081400  0.137200  1
  O  O342  1  0.545700  0.918600  0.862800  1
  O  O343  1  0.293100  0.167400  0.133700  1
  O  O344  1  0.706900  0.832600  0.866300  1
  O  O345  1  0.541800  0.614200  0.166300  1
  O  O346  1  0.458200  0.385800  0.833700  1
  O  O347  1  0.378100  0.654700  0.223800  1
  O  O348  1  0.621900  0.345300  0.776200  1
  O  O349  1  0.587600  0.639700  0.263800  1
  O  O350  1  0.412400  0.360300  0.736200  1
  O  O351  1  0.013400  0.824800  0.218000  1
  O  O352  1  0.986600  0.175200  0.782000  1
  O  O353  1  0.823000  0.808100  0.266800  1
  O  O354  1  0.177000  0.191900  0.733200  1
  O  O355  1  0.028700  0.844300  0.317000  1
  O  O356  1  0.971300  0.155700  0.683000  1
  O  O357  1  0.845000  0.424100  0.419600  1
  O  O358  1  0.155000  0.575900  0.580400  1
  O  O359  1  0.088000  0.315000  0.396100  1
  O  O360  1  0.912000  0.685000  0.603900  1
  O  O361  1  0.105200  0.519000  0.284000  1.0
  O  O362  1  0.894800  0.481000  0.716000  1.0
  O  O363  1  0.857200  0.520300  0.282200  1.0
  O  O364  1  0.142800  0.479700  0.717800  1.0
  O  O365  1  0.824900  0.296900  0.183800  1.0
  O  O366  1  0.175100  0.703100  0.816200  1.0
  O  O367  1  0.072300  0.291300  0.190800  1.0
  O  O368  1  0.927700  0.708700  0.809200  1.0
  O  O369  1  0.853800  0.316100  0.362300  1.0
  O  O370  1  0.146200  0.683900  0.637700  1.0
  O  O371  1  0.009800  0.412200  0.362300  1.0
  O  O372  1  0.990200  0.587800  0.637700  1.0
  O  O373  1  0.531400  0.953100  0.200000  1.0
  O  O374  1  0.468600  0.046900  0.800000  1.0
  O  O375  1  0.285200  0.955600  0.211500  1.0
  O  O376  1  0.714800  0.044400  0.788500  1.0
  O  O377  1  0.344800  0.175700  0.313400  1.0
  O  O378  1  0.655200  0.824300  0.686600  1.0
  O  O379  1  0.585800  0.176800  0.298400  1.0
  O  O380  1  0.414200  0.823200  0.701600  1.0
  F  F381  1  0.514300  0.189100  0.071800  1
  F  F382  1  0.485700  0.810900  0.928200  1
  F  F383  1  0.483600  0.088000  0.022400  1
  F  F384  1  0.516400  0.912000  0.977600  1
  F  F385  1  0.340200  0.165500  0.019700  1
  F  F386  1  0.659800  0.834500  0.980300  1
  F  F387  1  0.403700  0.524500  0.273400  1
  F  F388  1  0.596300  0.475500  0.726600  1
  F  F389  1  0.541400  0.489200  0.218700  1
  F  F390  1  0.458600  0.510800  0.781300  1
  F  F391  1  0.354000  0.505300  0.188400  1
  F  F392  1  0.646000  0.494700  0.811600  1
  F  F393  1  0.846900  0.942600  0.221100  1
  F  F394  1  0.153100  0.057400  0.778900  1
  F  F395  1  0.846200  0.957700  0.307200  1
  F  F396  1  0.153800  0.042300  0.692800  1
  F  F397  1  0.019000  0.972700  0.270100  1
  F  F398  1  0.981000  0.027300  0.729900  1
  F  F399  1  0.092000  0.292700  0.425700  1
  F  F400  1  0.908000  0.707300  0.574300  1
  F  F401  1  0.093300  0.388200  0.475500  1
  F  F402  1  0.906700  0.611800  0.524500  1
  F  F403  1  0.830000  0.429000  0.457100  1
  F  F404  1  0.170000  0.571000  0.542900  1
  F  F405  1  0.038000  0.427400  0.481000  1
  F  F406  1  0.962000  0.572600  0.519000  1
  F  F407  1  0.936500  0.317400  0.477600  1.0
  F  F408  1  0.063500  0.682600  0.522400  1.0
