# generated using pymatgen
data_H56Ru2C57S2N4O13F6
_symmetry_space_group_name_H-M   'P 1'
_cell_length_a   15.35600000
_cell_length_b   17.07100000
_cell_length_c   23.89700000
_cell_angle_alpha   90.00000000
_cell_angle_beta   90.00000000
_cell_angle_gamma   108.78000000
_symmetry_Int_Tables_number   1
_chemical_formula_structural   H56Ru2C57S2N4O13F6
_chemical_formula_sum   'H224 Ru8 C228 S8 N16 O52 F24'
_cell_volume   5930.90718419
_cell_formula_units_Z   4
loop_
 _symmetry_equiv_pos_site_id
 _symmetry_equiv_pos_as_xyz
  1  'x, y, z'
loop_
 _atom_site_type_symbol
 _atom_site_label
 _atom_site_symmetry_multiplicity
 _atom_site_fract_x
 _atom_site_fract_y
 _atom_site_fract_z
 _atom_site_occupancy
  H  H1  1  0.406500  0.571600  0.889700  1
  H  H2  1  0.593500  0.928400  0.389700  1
  H  H3  1  0.593500  0.428400  0.110300  1
  H  H4  1  0.406500  0.071600  0.610300  1
  H  H5  1  0.483100  0.654900  0.906900  1
  H  H6  1  0.516900  0.845100  0.406900  1
  H  H7  1  0.516900  0.345100  0.093100  1
  H  H8  1  0.483100  0.154900  0.593100  1
  H  H9  1  0.566200  0.563100  0.935000  1
  H  H10  1  0.433800  0.936900  0.435000  1
  H  H11  1  0.433800  0.436900  0.065000  1
  H  H12  1  0.566200  0.063100  0.565000  1
  H  H13  1  0.464700  0.497500  0.937100  1
  H  H14  1  0.535300  0.002500  0.437100  1
  H  H15  1  0.535300  0.502500  0.062900  1
  H  H16  1  0.464700  0.997500  0.562900  1
  H  H17  1  0.489300  0.580200  0.973800  1
  H  H18  1  0.510700  0.919800  0.473800  1
  H  H19  1  0.510700  0.419800  0.026200  1
  H  H20  1  0.489300  0.080200  0.526200  1
  H  H21  1  0.473000  0.691200  0.804100  1
  H  H22  1  0.527000  0.808800  0.304100  1
  H  H23  1  0.527000  0.308800  0.195900  1
  H  H24  1  0.473000  0.191200  0.695900  1
  H  H25  1  0.413900  0.600300  0.787200  1
  H  H26  1  0.586100  0.899700  0.287200  1
  H  H27  1  0.586100  0.399700  0.212800  1
  H  H28  1  0.413900  0.100300  0.712800  1
  H  H29  1  0.581900  0.683500  0.742300  1
  H  H30  1  0.418100  0.816500  0.242300  1
  H  H31  1  0.418100  0.316500  0.257700  1
  H  H32  1  0.581900  0.183500  0.757700  1
  H  H33  1  0.484100  0.677900  0.716200  1
  H  H34  1  0.515900  0.822100  0.216200  1
  H  H35  1  0.515900  0.322100  0.283800  1
  H  H36  1  0.484100  0.177900  0.783800  1
  H  H37  1  0.512400  0.596000  0.722700  1
  H  H38  1  0.487600  0.904000  0.222700  1
  H  H39  1  0.487600  0.404000  0.277300  1
  H  H40  1  0.512400  0.096000  0.777300  1
  H  H41  1  0.402200  0.711000  0.548700  1.0
  H  H42  1  0.597800  0.789000  0.048700  1.0
  H  H43  1  0.597800  0.289000  0.451300  1.0
  H  H44  1  0.402200  0.211000  0.951300  1.0
  H  H45  1  0.486700  0.782000  0.623200  1.0
  H  H46  1  0.513300  0.718000  0.123200  1.0
  H  H47  1  0.513300  0.218000  0.376800  1.0
  H  H48  1  0.486700  0.282000  0.876800  1.0
  H  H49  1  0.644700  0.841900  0.615300  1.0
  H  H50  1  0.355300  0.658100  0.115300  1.0
  H  H51  1  0.355300  0.158100  0.384700  1.0
  H  H52  1  0.644700  0.341900  0.884700  1.0
  H  H53  1  0.720400  0.828100  0.533200  1.0
  H  H54  1  0.279600  0.671900  0.033200  1.0
  H  H55  1  0.279600  0.171900  0.466800  1.0
  H  H56  1  0.720400  0.328100  0.966800  1.0
  H  H57  1  0.695700  0.676900  0.238500  1.0
  H  H58  1  0.304300  0.823100  0.738500  1.0
  H  H59  1  0.304300  0.323100  0.761500  1.0
  H  H60  1  0.695700  0.176900  0.261500  1.0
  H  H61  1  0.608600  0.609900  0.163300  1.0
  H  H62  1  0.391400  0.890100  0.663300  1.0
  H  H63  1  0.391400  0.390100  0.836700  1.0
  H  H64  1  0.608600  0.109900  0.336700  1.0
  H  H65  1  0.449700  0.551300  0.171200  1.0
  H  H66  1  0.550300  0.948700  0.671200  1.0
  H  H67  1  0.550300  0.448700  0.828800  1.0
  H  H68  1  0.449700  0.051300  0.328800  1.0
  H  H69  1  0.376800  0.562000  0.254800  1.0
  H  H70  1  0.623200  0.938000  0.754800  1.0
  H  H71  1  0.623200  0.438000  0.745200  1.0
  H  H72  1  0.376800  0.062000  0.245200  1.0
  H  H73  1  0.811500  0.934600  0.431800  1.0
  H  H74  1  0.188500  0.565400  0.931800  1.0
  H  H75  1  0.188500  0.065400  0.568200  1.0
  H  H76  1  0.811500  0.434600  0.068200  1.0
  H  H77  1  0.769000  0.081300  0.311500  1.0
  H  H78  1  0.231000  0.418700  0.811500  1.0
  H  H79  1  0.231000  0.918700  0.688500  1.0
  H  H80  1  0.769000  0.581300  0.188500  1.0
  H  H81  1  0.775400  0.981800  0.245300  1.0
  H  H82  1  0.224600  0.518200  0.745300  1.0
  H  H83  1  0.224600  0.018200  0.754700  1.0
  H  H84  1  0.775400  0.481800  0.254700  1.0
  H  H85  1  0.800700  0.863000  0.274800  1.0
  H  H86  1  0.199300  0.637000  0.774800  1.0
  H  H87  1  0.199300  0.137000  0.725200  1.0
  H  H88  1  0.800700  0.363000  0.225200  1.0
  H  H89  1  0.741100  0.322000  0.700700  1.0
  H  H90  1  0.258900  0.178000  0.200700  1.0
  H  H91  1  0.258900  0.678000  0.299300  1.0
  H  H92  1  0.741100  0.822000  0.799300  1.0
  H  H93  1  0.765100  0.202900  0.732000  1.0
  H  H94  1  0.234900  0.297100  0.232000  1.0
  H  H95  1  0.234900  0.797100  0.268000  1.0
  H  H96  1  0.765100  0.702900  0.768000  1.0
  H  H97  1  0.775400  0.104100  0.668700  1.0
  H  H98  1  0.224600  0.395900  0.168700  1.0
  H  H99  1  0.224600  0.895900  0.331300  1.0
  H  H100  1  0.775400  0.604100  0.831300  1.0
  H  H101  1  0.736900  0.247400  0.544000  1.0
  H  H102  1  0.263100  0.252600  0.044000  1.0
  H  H103  1  0.263100  0.752600  0.456000  1.0
  H  H104  1  0.736900  0.747400  0.956000  1.0
  H  H105  1  0.771300  0.126400  0.409600  1.0
  H  H106  1  0.228700  0.373600  0.909600  1.0
  H  H107  1  0.228700  0.873600  0.590400  1.0
  H  H108  1  0.771300  0.626400  0.090400  1.0
  H  H109  1  0.769200  0.053800  0.569700  1.0
  H  H110  1  0.230800  0.446200  0.069700  1.0
  H  H111  1  0.230800  0.946200  0.430300  1.0
  H  H112  1  0.769200  0.553800  0.930300  1.0
  H  H113  1  0.897500  0.755100  0.250500  1.0
  H  H114  1  0.102500  0.744900  0.750500  1.0
  H  H115  1  0.102500  0.244900  0.749500  1.0
  H  H116  1  0.897500  0.255100  0.249500  1.0
  H  H117  1  0.888700  0.661200  0.264500  1.0
  H  H118  1  0.111300  0.838800  0.764500  1.0
  H  H119  1  0.111300  0.338800  0.735500  1.0
  H  H120  1  0.888700  0.161200  0.235500  1.0
  H  H121  1  0.987700  0.727800  0.253600  1.0
  H  H122  1  0.012300  0.772200  0.753600  1.0
  H  H123  1  0.012300  0.272200  0.746400  1.0
  H  H124  1  0.987700  0.227800  0.246400  1.0
  H  H125  1  0.853900  0.625300  0.359900  1.0
  H  H126  1  0.146100  0.874700  0.859900  1.0
  H  H127  1  0.146100  0.374700  0.640100  1.0
  H  H128  1  0.853900  0.125300  0.140100  1.0
  H  H129  1  0.855900  0.657500  0.456300  1.0
  H  H130  1  0.144100  0.842500  0.956300  1.0
  H  H131  1  0.144100  0.342500  0.543700  1.0
  H  H132  1  0.855900  0.157500  0.043700  1.0
  H  H133  1  0.001900  0.902300  0.418500  1.0
  H  H134  1  0.998100  0.597700  0.918500  1.0
  H  H135  1  0.998100  0.097700  0.581500  1.0
  H  H136  1  0.001900  0.402300  0.081500  1.0
  H  H137  1  0.997800  0.866500  0.322700  1.0
  H  H138  1  0.002200  0.633500  0.822700  1.0
  H  H139  1  0.002200  0.133500  0.677300  1.0
  H  H140  1  0.997800  0.366500  0.177300  1.0
  H  H141  1  0.868800  0.778700  0.521400  1.0
  H  H142  1  0.131200  0.721300  0.021400  1.0
  H  H143  1  0.131200  0.221300  0.478600  1.0
  H  H144  1  0.868800  0.278700  0.978600  1.0
  H  H145  1  0.056900  0.784300  0.530900  1.0
  H  H146  1  0.943100  0.715700  0.030900  1.0
  H  H147  1  0.943100  0.215700  0.469100  1.0
  H  H148  1  0.056900  0.284300  0.969100  1.0
  H  H149  1  0.969200  0.703100  0.538200  1.0
  H  H150  1  0.030800  0.796900  0.038200  1.0
  H  H151  1  0.030800  0.296900  0.461800  1.0
  H  H152  1  0.969200  0.203100  0.961800  1.0
  H  H153  1  0.989800  0.776000  0.583300  1.0
  H  H154  1  0.010200  0.724000  0.083300  1.0
  H  H155  1  0.010200  0.224000  0.416700  1.0
  H  H156  1  0.989800  0.276000  0.916700  1.0
  H  H157  1  0.026100  0.919000  0.514400  1.0
  H  H158  1  0.973900  0.581000  0.014400  1.0
  H  H159  1  0.973900  0.081000  0.485600  1.0
  H  H160  1  0.026100  0.419000  0.985600  1.0
  H  H161  1  0.947600  0.900700  0.561200  1.0
  H  H162  1  0.052400  0.599300  0.061200  1.0
  H  H163  1  0.052400  0.099300  0.438800  1.0
  H  H164  1  0.947600  0.400700  0.938800  1.0
  H  H165  1  0.924900  0.918400  0.498000  1.0
  H  H166  1  0.075100  0.581600  0.998000  1.0
  H  H167  1  0.075100  0.081600  0.502000  1.0
  H  H168  1  0.924900  0.418400  0.002000  1.0
  H  H169  1  0.068200  0.646000  0.431900  1.0
  H  H170  1  0.931800  0.854000  0.931900  1.0
  H  H171  1  0.931800  0.354000  0.568100  1.0
  H  H172  1  0.068200  0.146000  0.068100  1.0
  H  H173  1  0.100600  0.637600  0.494600  1.0
  H  H174  1  0.899400  0.862400  0.994600  1.0
  H  H175  1  0.899400  0.362400  0.505400  1.0
  H  H176  1  0.100600  0.137600  0.005400  1.0
  H  H177  1  0.006900  0.573500  0.471400  1.0
  H  H178  1  0.993100  0.926500  0.971400  1.0
  H  H179  1  0.993100  0.426500  0.528600  1.0
  H  H180  1  0.006900  0.073500  0.028600  1.0
  H  H181  1  0.091100  0.555200  0.356700  1.0
  H  H182  1  0.908900  0.944800  0.856700  1.0
  H  H183  1  0.908900  0.444800  0.643300  1.0
  H  H184  1  0.091100  0.055200  0.143300  1.0
  H  H185  1  0.178400  0.472900  0.324500  1.0
  H  H186  1  0.821600  0.027100  0.824500  1.0
  H  H187  1  0.821600  0.527100  0.675500  1.0
  H  H188  1  0.178400  0.972900  0.175500  1.0
  H  H189  1  0.279200  0.465500  0.483100  1.0
  H  H190  1  0.720800  0.034500  0.983100  1.0
  H  H191  1  0.720800  0.534500  0.516900  1.0
  H  H192  1  0.279200  0.965500  0.016900  1.0
  H  H193  1  0.190400  0.550400  0.516300  1.0
  H  H194  1  0.809600  0.949600  0.016300  1.0
  H  H195  1  0.809600  0.449600  0.483700  1.0
  H  H196  1  0.190400  0.050400  0.983700  1.0
  H  H197  1  0.313300  0.432800  0.339200  1.0
  H  H198  1  0.686700  0.067200  0.839200  1.0
  H  H199  1  0.686700  0.567200  0.660800  1.0
  H  H200  1  0.313300  0.932800  0.160800  1.0
  H  H201  1  0.344800  0.378600  0.447900  1.0
  H  H202  1  0.655200  0.121400  0.947900  1.0
  H  H203  1  0.655200  0.621400  0.552100  1.0
  H  H204  1  0.344800  0.878600  0.052100  1.0
  H  H205  1  0.402700  0.466000  0.421600  1.0
  H  H206  1  0.597300  0.034000  0.921600  1.0
  H  H207  1  0.597300  0.534000  0.578400  1.0
  H  H208  1  0.402700  0.966000  0.078400  1.0
  H  H209  1  0.408400  0.382200  0.394300  1.0
  H  H210  1  0.591600  0.117800  0.894300  1.0
  H  H211  1  0.591600  0.617800  0.605700  1.0
  H  H212  1  0.408400  0.882200  0.105700  1.0
  H  H213  1  0.265900  0.289300  0.342100  1.0
  H  H214  1  0.734100  0.210700  0.842100  1.0
  H  H215  1  0.734100  0.710700  0.657900  1.0
  H  H216  1  0.265900  0.789300  0.157900  1.0
  H  H217  1  0.176900  0.318600  0.339400  1.0
  H  H218  1  0.823100  0.181400  0.839400  1.0
  H  H219  1  0.823100  0.681400  0.660600  1.0
  H  H220  1  0.176900  0.818600  0.160600  1.0
  H  H221  1  0.207000  0.288200  0.397500  1.0
  H  H222  1  0.793000  0.211800  0.897500  1.0
  H  H223  1  0.793000  0.711800  0.602500  1.0
  H  H224  1  0.207000  0.788200  0.102500  1.0
  Ru  Ru225  1  0.838520  0.780510  0.383440  1.0
  Ru  Ru226  1  0.161480  0.719490  0.883440  1.0
  Ru  Ru227  1  0.161480  0.219490  0.616560  1.0
  Ru  Ru228  1  0.838520  0.280510  0.116560  1.0
  Ru  Ru229  1  0.262740  0.586100  0.408300  1.0
  Ru  Ru230  1  0.737260  0.913900  0.908300  1.0
  Ru  Ru231  1  0.737260  0.413900  0.591700  1.0
  Ru  Ru232  1  0.262740  0.086100  0.091700  1.0
  C  C233  1  0.070100  0.079000  0.297300  1
  C  C234  1  0.929900  0.421000  0.797300  1
  C  C235  1  0.929900  0.921000  0.702700  1
  C  C236  1  0.070100  0.579000  0.202700  1
  C  C237  1  0.104600  0.106400  0.859600  1
  C  C238  1  0.895400  0.393600  0.359600  1
  C  C239  1  0.895400  0.893600  0.140400  1
  C  C240  1  0.104600  0.606400  0.640400  1
  C  C241  1  0.473800  0.598100  0.893000  1
  C  C242  1  0.526200  0.901900  0.393000  1
  C  C243  1  0.526200  0.401900  0.107000  1
  C  C244  1  0.473800  0.098100  0.607000  1
  C  C245  1  0.500600  0.556500  0.938200  1
  C  C246  1  0.499400  0.943500  0.438200  1
  C  C247  1  0.499400  0.443500  0.061800  1
  C  C248  1  0.500600  0.056500  0.561800  1
  C  C249  1  0.477900  0.636800  0.793300  1
  C  C250  1  0.522100  0.863200  0.293300  1
  C  C251  1  0.522100  0.363200  0.206700  1
  C  C252  1  0.477900  0.136800  0.706700  1
  C  C253  1  0.517000  0.649500  0.739600  1
  C  C254  1  0.483000  0.850500  0.239600  1
  C  C255  1  0.483000  0.350500  0.260400  1
  C  C256  1  0.517000  0.149500  0.760400  1
  C  C257  1  0.371900  0.997100  0.913600  1
  C  C258  1  0.628100  0.502900  0.413600  1
  C  C259  1  0.628100  0.002900  0.086400  1
  C  C260  1  0.371900  0.497100  0.586400  1
  C  C261  1  0.454900  0.680900  0.448000  1.0
  C  C262  1  0.545100  0.819100  0.948000  1.0
  C  C263  1  0.545100  0.319100  0.552000  1.0
  C  C264  1  0.454900  0.180900  0.052000  1.0
  C  C265  1  0.510200  0.724700  0.495200  1.0
  C  C266  1  0.489800  0.775300  0.995200  1.0
  C  C267  1  0.489800  0.275300  0.504800  1.0
  C  C268  1  0.510200  0.224700  0.004800  1.0
  C  C269  1  0.467100  0.734400  0.545400  1.0
  C  C270  1  0.532900  0.765600  0.045400  1.0
  C  C271  1  0.532900  0.265600  0.454600  1.0
  C  C272  1  0.467100  0.234400  0.954600  1.0
  C  C273  1  0.516800  0.776700  0.589300  1.0
  C  C274  1  0.483200  0.723300  0.089300  1.0
  C  C275  1  0.483200  0.223300  0.410700  1.0
  C  C276  1  0.516800  0.276700  0.910700  1.0
  C  C277  1  0.610400  0.811700  0.584700  1.0
  C  C278  1  0.389600  0.688300  0.084700  1.0
  C  C279  1  0.389600  0.188300  0.415300  1.0
  C  C280  1  0.610400  0.311700  0.915300  1.0
  C  C281  1  0.655600  0.803500  0.535900  1.0
  C  C282  1  0.344400  0.696500  0.035900  1.0
  C  C283  1  0.344400  0.196500  0.464100  1.0
  C  C284  1  0.655600  0.303500  0.964100  1.0
  C  C285  1  0.605500  0.759200  0.490900  1.0
  C  C286  1  0.394500  0.740800  0.990900  1.0
  C  C287  1  0.394500  0.240800  0.509100  1.0
  C  C288  1  0.605500  0.259200  0.009100  1.0
  C  C289  1  0.652100  0.747800  0.439400  1.0
  C  C290  1  0.347900  0.752200  0.939400  1.0
  C  C291  1  0.347900  0.252200  0.560600  1.0
  C  C292  1  0.652100  0.247800  0.060600  1.0
  C  C293  1  0.600700  0.708200  0.392700  1.0
  C  C294  1  0.399300  0.791800  0.892700  1.0
  C  C295  1  0.399300  0.291800  0.607300  1.0
  C  C296  1  0.600700  0.208200  0.107300  1.0
  C  C297  1  0.644700  0.698900  0.341300  1.0
  C  C298  1  0.355300  0.801100  0.841300  1.0
  C  C299  1  0.355300  0.301100  0.658700  1.0
  C  C300  1  0.644700  0.198900  0.158700  1.0
  C  C301  1  0.589200  0.657800  0.293900  1.0
  C  C302  1  0.410800  0.842200  0.793900  1.0
  C  C303  1  0.410800  0.342200  0.706100  1.0
  C  C304  1  0.589200  0.157800  0.206100  1.0
  C  C305  1  0.631000  0.652800  0.242400  1.0
  C  C306  1  0.369000  0.847200  0.742400  1.0
  C  C307  1  0.369000  0.347200  0.757600  1.0
  C  C308  1  0.631000  0.152800  0.257600  1.0
  C  C309  1  0.579300  0.613500  0.197700  1.0
  C  C310  1  0.420700  0.886500  0.697700  1.0
  C  C311  1  0.420700  0.386500  0.802300  1.0
  C  C312  1  0.579300  0.113500  0.302300  1.0
  C  C313  1  0.484900  0.579100  0.202300  1.0
  C  C314  1  0.515100  0.920900  0.702300  1.0
  C  C315  1  0.515100  0.420900  0.797700  1.0
  C  C316  1  0.484900  0.079100  0.297700  1.0
  C  C317  1  0.441700  0.585000  0.251800  1.0
  C  C318  1  0.558300  0.915000  0.751800  1.0
  C  C319  1  0.558300  0.415000  0.748200  1.0
  C  C320  1  0.441700  0.085000  0.248200  1.0
  C  C321  1  0.493800  0.625000  0.297900  1.0
  C  C322  1  0.506200  0.875000  0.797900  1.0
  C  C323  1  0.506200  0.375000  0.702100  1.0
  C  C324  1  0.493800  0.125000  0.202100  1.0
  C  C325  1  0.447200  0.633300  0.350700  1.0
  C  C326  1  0.552800  0.866700  0.850700  1.0
  C  C327  1  0.552800  0.366700  0.649300  1.0
  C  C328  1  0.447200  0.133300  0.149300  1.0
  C  C329  1  0.499400  0.673200  0.396800  1.0
  C  C330  1  0.500600  0.826800  0.896800  1.0
  C  C331  1  0.500600  0.326800  0.603200  1.0
  C  C332  1  0.499400  0.173200  0.103200  1.0
  C  C333  1  0.804400  0.944600  0.393200  1.0
  C  C334  1  0.195600  0.555400  0.893200  1.0
  C  C335  1  0.195600  0.055400  0.606800  1.0
  C  C336  1  0.804400  0.444600  0.106800  1.0
  C  C337  1  0.787400  0.017100  0.378300  1.0
  C  C338  1  0.212600  0.482900  0.878300  1.0
  C  C339  1  0.212600  0.982900  0.621700  1.0
  C  C340  1  0.787400  0.517100  0.121700  1.0
  C  C341  1  0.778400  0.031400  0.323200  1.0
  C  C342  1  0.221600  0.468600  0.823200  1.0
  C  C343  1  0.221600  0.968600  0.676800  1.0
  C  C344  1  0.778400  0.531400  0.176800  1.0
  C  C345  1  0.783000  0.973100  0.284000  1.0
  C  C346  1  0.217000  0.526900  0.784000  1.0
  C  C347  1  0.217000  0.026900  0.716000  1.0
  C  C348  1  0.783000  0.473100  0.216000  1.0
  C  C349  1  0.798500  0.903300  0.301700  1.0
  C  C350  1  0.201500  0.596700  0.801700  1.0
  C  C351  1  0.201500  0.096700  0.698300  1.0
  C  C352  1  0.798500  0.403300  0.198300  1.0
  C  C353  1  0.746400  0.282200  0.674200  1.0
  C  C354  1  0.253600  0.217800  0.174200  1.0
  C  C355  1  0.253600  0.717800  0.325800  1.0
  C  C356  1  0.746400  0.782200  0.825800  1.0
  C  C357  1  0.760000  0.211400  0.693100  1.0
  C  C358  1  0.240000  0.288600  0.193100  1.0
  C  C359  1  0.240000  0.788600  0.306900  1.0
  C  C360  1  0.760000  0.711400  0.806900  1.0
  C  C361  1  0.766000  0.153500  0.655900  1.0
  C  C362  1  0.234000  0.346500  0.155900  1.0
  C  C363  1  0.234000  0.846500  0.344100  1.0
  C  C364  1  0.766000  0.653500  0.844100  1.0
  C  C365  1  0.758500  0.166800  0.599200  1.0
  C  C366  1  0.241500  0.333200  0.099200  1.0
  C  C367  1  0.241500  0.833200  0.400800  1.0
  C  C368  1  0.758500  0.666800  0.900800  1.0
  C  C369  1  0.744300  0.238800  0.582800  1.0
  C  C370  1  0.255700  0.261200  0.082800  1.0
  C  C371  1  0.255700  0.761200  0.417200  1.0
  C  C372  1  0.744300  0.738800  0.917200  1.0
  C  C373  1  0.777400  0.075000  0.420700  1.0
  C  C374  1  0.222600  0.425000  0.920700  1.0
  C  C375  1  0.222600  0.925000  0.579300  1.0
  C  C376  1  0.777400  0.575000  0.079300  1.0
  C  C377  1  0.765500  0.105700  0.557600  1.0
  C  C378  1  0.234500  0.394300  0.057600  1.0
  C  C379  1  0.234500  0.894300  0.442400  1.0
  C  C380  1  0.765500  0.605700  0.942400  1.0
  C  C381  1  0.926600  0.719200  0.269600  1.0
  C  C382  1  0.073400  0.780800  0.769600  1.0
  C  C383  1  0.073400  0.280800  0.730400  1.0
  C  C384  1  0.926600  0.219200  0.230400  1.0
  C  C385  1  0.935600  0.740100  0.332200  1.0
  C  C386  1  0.064400  0.759900  0.832200  1.0
  C  C387  1  0.064400  0.259900  0.667800  1.0
  C  C388  1  0.935600  0.240100  0.167800  1.0
  C  C389  1  0.896000  0.680100  0.372800  1.0
  C  C390  1  0.104000  0.819900  0.872800  1.0
  C  C391  1  0.104000  0.319900  0.627200  1.0
  C  C392  1  0.896000  0.180100  0.127200  1.0
  C  C393  1  0.895900  0.699200  0.429900  1.0
  C  C394  1  0.104100  0.800800  0.929900  1.0
  C  C395  1  0.104100  0.300800  0.570100  1.0
  C  C396  1  0.895900  0.199200  0.070100  1.0
  C  C397  1  0.939500  0.784000  0.448500  1.0
  C  C398  1  0.060500  0.716000  0.948500  1.0
  C  C399  1  0.060500  0.216000  0.551500  1.0
  C  C400  1  0.939500  0.284000  0.051500  1.0
  C  C401  1  0.982600  0.842300  0.408200  1.0
  C  C402  1  0.017400  0.657700  0.908200  1.0
  C  C403  1  0.017400  0.157700  0.591800  1.0
  C  C404  1  0.982600  0.342300  0.091800  1.0
  C  C405  1  0.980200  0.820900  0.350900  1.0
  C  C406  1  0.019800  0.679100  0.850900  1.0
  C  C407  1  0.019800  0.179100  0.649100  1.0
  C  C408  1  0.980200  0.320900  0.149100  1.0
  C  C409  1  0.934200  0.804500  0.509400  1.0
  C  C410  1  0.065800  0.695500  0.009400  1.0
  C  C411  1  0.065800  0.195500  0.490600  1.0
  C  C412  1  0.934200  0.304500  0.990600  1.0
  C  C413  1  0.992900  0.763200  0.543600  1.0
  C  C414  1  0.007100  0.736800  0.043600  1.0
  C  C415  1  0.007100  0.236800  0.456400  1.0
  C  C416  1  0.992900  0.263200  0.956400  1.0
  C  C417  1  0.960300  0.893000  0.521700  1.0
  C  C418  1  0.039700  0.607000  0.021700  1.0
  C  C419  1  0.039700  0.107000  0.478300  1.0
  C  C420  1  0.960300  0.393000  0.978300  1.0
  C  C421  1  0.069900  0.607000  0.461600  1.0
  C  C422  1  0.930100  0.893000  0.961600  1.0
  C  C423  1  0.930100  0.393000  0.538400  1.0
  C  C424  1  0.069900  0.107000  0.038400  1.0
  C  C425  1  0.121700  0.551500  0.441400  1.0
  C  C426  1  0.878300  0.948500  0.941400  1.0
  C  C427  1  0.878300  0.448500  0.558600  1.0
  C  C428  1  0.121700  0.051500  0.058600  1.0
  C  C429  1  0.119200  0.527100  0.384800  1.0
  C  C430  1  0.880800  0.972900  0.884800  1.0
  C  C431  1  0.880800  0.472900  0.615200  1.0
  C  C432  1  0.119200  0.027100  0.115200  1.0
  C  C433  1  0.171200  0.478900  0.365700  1.0
  C  C434  1  0.828800  0.021100  0.865700  1.0
  C  C435  1  0.828800  0.521100  0.634300  1.0
  C  C436  1  0.171200  0.978900  0.134300  1.0
  C  C437  1  0.226600  0.452300  0.402300  1.0
  C  C438  1  0.773400  0.047700  0.902300  1.0
  C  C439  1  0.773400  0.547700  0.597700  1.0
  C  C440  1  0.226600  0.952300  0.097700  1.0
  C  C441  1  0.230800  0.474700  0.458400  1.0
  C  C442  1  0.769200  0.025300  0.958400  1.0
  C  C443  1  0.769200  0.525300  0.541600  1.0
  C  C444  1  0.230800  0.974700  0.041600  1.0
  C  C445  1  0.177500  0.524900  0.478200  1.0
  C  C446  1  0.822500  0.975100  0.978200  1.0
  C  C447  1  0.822500  0.475100  0.521800  1.0
  C  C448  1  0.177500  0.024900  0.021800  1.0
  C  C449  1  0.288200  0.404900  0.375300  1.0
  C  C450  1  0.711800  0.095100  0.875300  1.0
  C  C451  1  0.711800  0.595100  0.624700  1.0
  C  C452  1  0.288200  0.904900  0.124700  1.0
  C  C453  1  0.368000  0.408200  0.413100  1.0
  C  C454  1  0.632000  0.091800  0.913100  1.0
  C  C455  1  0.632000  0.591800  0.586900  1.0
  C  C456  1  0.368000  0.908200  0.086900  1.0
  C  C457  1  0.229400  0.317700  0.362400  1.0
  C  C458  1  0.770600  0.182300  0.862400  1.0
  C  C459  1  0.770600  0.682300  0.637600  1.0
  C  C460  1  0.229400  0.817700  0.137600  1.0
  S  S461  1  0.171080  0.052850  0.309810  1
  S  S462  1  0.828920  0.447150  0.809810  1
  S  S463  1  0.828920  0.947150  0.690190  1
  S  S464  1  0.171080  0.552850  0.190190  1
  S  S465  1  0.216480  0.181040  0.866570  1
  S  S466  1  0.783520  0.318960  0.366570  1
  S  S467  1  0.783520  0.818960  0.133430  1
  S  S468  1  0.216480  0.681040  0.633430  1
  N  N469  1  0.811200  0.889000  0.356600  1.0
  N  N470  1  0.188800  0.611000  0.856600  1.0
  N  N471  1  0.188800  0.111000  0.643400  1.0
  N  N472  1  0.811200  0.389000  0.143400  1.0
  N  N473  1  0.740300  0.297600  0.619000  1.0
  N  N474  1  0.259700  0.202400  0.119000  1.0
  N  N475  1  0.259700  0.702400  0.381000  1.0
  N  N476  1  0.740300  0.797600  0.881000  1.0
  N  N477  1  0.776700  0.057000  0.472500  1.0
  N  N478  1  0.223300  0.443000  0.972500  1.0
  N  N479  1  0.223300  0.943000  0.527500  1.0
  N  N480  1  0.776700  0.557000  0.027500  1.0
  N  N481  1  0.766700  0.121700  0.505900  1.0
  N  N482  1  0.233300  0.378300  0.005900  1.0
  N  N483  1  0.233300  0.878300  0.494100  1.0
  N  N484  1  0.766700  0.621700  0.994100  1.0
  O  O485  1  0.243800  0.127200  0.294900  1
  O  O486  1  0.756200  0.372800  0.794900  1
  O  O487  1  0.756200  0.872800  0.705100  1
  O  O488  1  0.243800  0.627200  0.205100  1
  O  O489  1  0.164500  0.033000  0.368400  1
  O  O490  1  0.835500  0.467000  0.868400  1
  O  O491  1  0.835500  0.967000  0.631600  1
  O  O492  1  0.164500  0.533000  0.131600  1
  O  O493  1  0.159600  0.984600  0.274100  1
  O  O494  1  0.840400  0.515400  0.774100  1
  O  O495  1  0.840400  0.015400  0.725900  1
  O  O496  1  0.159600  0.484600  0.225900  1
  O  O497  1  0.206000  0.255300  0.844400  1
  O  O498  1  0.794000  0.244700  0.344400  1
  O  O499  1  0.794000  0.744700  0.155600  1
  O  O500  1  0.206000  0.755300  0.655600  1
  O  O501  1  0.231300  0.183200  0.925900  1
  O  O502  1  0.768700  0.316800  0.425900  1
  O  O503  1  0.768700  0.816800  0.074100  1
  O  O504  1  0.231300  0.683200  0.574100  1
  O  O505  1  0.271600  0.145300  0.833400  1
  O  O506  1  0.728400  0.354700  0.333400  1
  O  O507  1  0.728400  0.854700  0.166600  1
  O  O508  1  0.271600  0.645300  0.666600  1
  O  O509  1  0.505100  0.607600  0.840700  1
  O  O510  1  0.494900  0.892400  0.340700  1
  O  O511  1  0.494900  0.392400  0.159300  1
  O  O512  1  0.505100  0.107600  0.659300  1
  O  O513  1  0.282500  0.989500  0.897900  1
  O  O514  1  0.717500  0.510500  0.397900  1
  O  O515  1  0.717500  0.010500  0.102100  1
  O  O516  1  0.282500  0.489500  0.602100  1
  O  O517  1  0.384000  0.026000  0.865600  1
  O  O518  1  0.616000  0.474000  0.365600  1
  O  O519  1  0.616000  0.974000  0.134400  1
  O  O520  1  0.384000  0.526000  0.634400  1
  O  O521  1  0.740700  0.778100  0.442340  1.0
  O  O522  1  0.259300  0.721900  0.942340  1.0
  O  O523  1  0.259300  0.221900  0.557660  1.0
  O  O524  1  0.740700  0.278100  0.057660  1.0
  O  O525  1  0.731600  0.724900  0.332040  1.0
  O  O526  1  0.268400  0.775100  0.832040  1.0
  O  O527  1  0.268400  0.275100  0.667960  1.0
  O  O528  1  0.731600  0.224900  0.167960  1.0
  O  O529  1  0.359400  0.601100  0.348270  1.0
  O  O530  1  0.640600  0.898900  0.848270  1.0
  O  O531  1  0.640600  0.398900  0.651730  1.0
  O  O532  1  0.359400  0.101100  0.151730  1.0
  O  O533  1  0.368100  0.652600  0.457750  1.0
  O  O534  1  0.631900  0.847400  0.957750  1.0
  O  O535  1  0.631900  0.347400  0.542250  1.0
  O  O536  1  0.368100  0.152600  0.042250  1.0
  F  F537  1  0.995800  0.020600  0.313300  1
  F  F538  1  0.004200  0.479400  0.813300  1
  F  F539  1  0.004200  0.979400  0.686700  1
  F  F540  1  0.995800  0.520600  0.186700  1
  F  F541  1  0.061100  0.093800  0.243100  1
  F  F542  1  0.938900  0.406200  0.743100  1
  F  F543  1  0.938900  0.906200  0.756900  1
  F  F544  1  0.061100  0.593800  0.256900  1
  F  F545  1  0.068000  0.145400  0.325100  1
  F  F546  1  0.932000  0.354600  0.825100  1
  F  F547  1  0.932000  0.854600  0.674900  1
  F  F548  1  0.068000  0.645400  0.174900  1
  F  F549  1  0.099600  0.033600  0.878700  1
  F  F550  1  0.900400  0.466400  0.378700  1
  F  F551  1  0.900400  0.966400  0.121300  1
  F  F552  1  0.099600  0.533600  0.621300  1
  F  F553  1  0.074700  0.096300  0.807700  1
  F  F554  1  0.925300  0.403700  0.307700  1
  F  F555  1  0.925300  0.903700  0.192300  1
  F  F556  1  0.074700  0.596300  0.692300  1
  F  F557  1  0.041300  0.130900  0.886800  1
  F  F558  1  0.958700  0.369100  0.386800  1
  F  F559  1  0.958700  0.869100  0.113200  1
  F  F560  1  0.041300  0.630900  0.613200  1
