# generated using pymatgen
data_Fe2H54C72N12ClO3
_symmetry_space_group_name_H-M   'P 1'
_cell_length_a   22.28780000
_cell_length_b   23.24825181
_cell_length_c   23.24825181
_cell_angle_alpha   109.52273330
_cell_angle_beta   92.43915899
_cell_angle_gamma   92.43915899
_symmetry_Int_Tables_number   1
_chemical_formula_structural   Fe2H54C72N12ClO3
_chemical_formula_sum   'Fe8 H216 C288 N48 Cl4 O12'
_cell_volume   11322.66508969
_cell_formula_units_Z   4
loop_
 _symmetry_equiv_pos_site_id
 _symmetry_equiv_pos_as_xyz
  1  'x, y, z'
loop_
 _atom_site_type_symbol
 _atom_site_label
 _atom_site_symmetry_multiplicity
 _atom_site_fract_x
 _atom_site_fract_y
 _atom_site_fract_z
 _atom_site_occupancy
  C  C1  1  0.780700  0.842450  0.606950  1.0
  C  C2  1  0.719300  0.393050  0.157550  1.0
  C  C3  1  0.219300  0.157550  0.393050  1.0
  C  C4  1  0.280700  0.606950  0.842450  1.0
  C  C5  1  0.754800  0.783100  0.586500  1.0
  C  C6  1  0.745200  0.413500  0.216900  1.0
  C  C7  1  0.245200  0.216900  0.413500  1.0
  C  C8  1  0.254800  0.586500  0.783100  1.0
  C  C9  1  0.790800  0.733720  0.565880  1.0
  C  C10  1  0.709200  0.434120  0.266280  1.0
  C  C11  1  0.209200  0.266280  0.434120  1.0
  C  C12  1  0.290800  0.565880  0.733720  1.0
  C  C13  1  0.852700  0.743710  0.565690  1.0
  C  C14  1  0.647300  0.434310  0.256290  1.0
  C  C15  1  0.147300  0.256290  0.434310  1.0
  C  C16  1  0.352700  0.565690  0.743710  1.0
  C  C17  1  0.878600  0.803000  0.586000  1.0
  C  C18  1  0.621400  0.414000  0.197000  1.0
  C  C19  1  0.121400  0.197000  0.414000  1.0
  C  C20  1  0.378600  0.586000  0.803000  1.0
  C  C21  1  0.842700  0.852340  0.606660  1.0
  C  C22  1  0.657300  0.393340  0.147660  1.0
  C  C23  1  0.157300  0.147660  0.393340  1.0
  C  C24  1  0.342700  0.606660  0.852340  1.0
  C  C25  1  0.728500  0.921200  0.592800  1.0
  C  C26  1  0.771500  0.407200  0.078800  1.0
  C  C27  1  0.271500  0.078800  0.407200  1.0
  C  C28  1  0.228500  0.592800  0.921200  1.0
  C  C29  1  0.692200  0.974900  0.621300  1.0
  C  C30  1  0.807800  0.378700  0.025100  1.0
  C  C31  1  0.307800  0.025100  0.378700  1.0
  C  C32  1  0.192200  0.621300  0.974900  1.0
  C  C33  1  0.645400  0.029500  0.707700  1.0
  C  C34  1  0.854600  0.292300  0.970500  1.0
  C  C35  1  0.354600  0.970500  0.292300  1.0
  C  C36  1  0.145400  0.707700  0.029500  1.0
  C  C37  1  0.620000  0.064700  0.676300  1.0
  C  C38  1  0.880000  0.323700  0.935300  1.0
  C  C39  1  0.380000  0.935300  0.323700  1.0
  C  C40  1  0.120000  0.676300  0.064700  1.0
  C  C41  1  0.635300  0.055300  0.616700  1.0
  C  C42  1  0.864700  0.383300  0.944700  1.0
  C  C43  1  0.364700  0.944700  0.383300  1.0
  C  C44  1  0.135300  0.616700  0.055300  1.0
  C  C45  1  0.669500  0.010800  0.586800  1.0
  C  C46  1  0.830500  0.413200  0.989200  1.0
  C  C47  1  0.330500  0.989200  0.413200  1.0
  C  C48  1  0.169500  0.586800  0.010800  1.0
  C  C49  1  0.575000  0.110300  0.706100  1.0
  C  C50  1  0.925000  0.293900  0.889700  1.0
  C  C51  1  0.425000  0.889700  0.293900  1.0
  C  C52  1  0.075000  0.706100  0.110300  1.0
  C  C53  1  0.580000  0.165100  0.702900  1.0
  C  C54  1  0.920000  0.297100  0.834900  1.0
  C  C55  1  0.420000  0.834900  0.297100  1.0
  C  C56  1  0.080000  0.702900  0.165100  1.0
  C  C57  1  0.489200  0.189900  0.746900  1.0
  C  C58  1  0.010800  0.253100  0.810100  1.0
  C  C59  1  0.510800  0.810100  0.253100  1.0
  C  C60  1  0.989200  0.746900  0.189900  1.0
  C  C61  1  0.484100  0.135900  0.756300  1.0
  C  C62  1  0.015900  0.243700  0.864100  1.0
  C  C63  1  0.515900  0.864100  0.243700  1.0
  C  C64  1  0.984100  0.756300  0.135900  1.0
  C  C65  1  0.528300  0.093100  0.732900  1.0
  C  C66  1  0.971700  0.267100  0.906900  1.0
  C  C67  1  0.471700  0.906900  0.267100  1.0
  C  C68  1  0.028300  0.732900  0.093100  1.0
  C  C69  1  0.446800  0.242200  0.762600  1.0
  C  C70  1  0.053200  0.237400  0.757800  1.0
  C  C71  1  0.553200  0.757800  0.237400  1.0
  C  C72  1  0.946800  0.762600  0.242200  1.0
  C  C73  1  0.416990  0.333510  0.767070  1.0
  C  C74  1  0.083010  0.232930  0.666490  1.0
  C  C75  1  0.583010  0.666490  0.232930  1.0
  C  C76  1  0.916990  0.767070  0.333510  1.0
  C  C77  1  0.431260  0.388120  0.814600  1.0
  C  C78  1  0.068740  0.185400  0.611880  1.0
  C  C79  1  0.568740  0.611880  0.185400  1.0
  C  C80  1  0.931260  0.814600  0.388120  1.0
  C  C81  1  0.391810  0.434900  0.827000  1.0
  C  C82  1  0.108190  0.173000  0.565100  1.0
  C  C83  1  0.608190  0.565100  0.173000  1.0
  C  C84  1  0.891810  0.827000  0.434900  1.0
  C  C85  1  0.338090  0.427060  0.791880  1.0
  C  C86  1  0.161910  0.208120  0.572940  1.0
  C  C87  1  0.661910  0.572940  0.208120  1.0
  C  C88  1  0.838090  0.791880  0.427060  1.0
  C  C89  1  0.323820  0.372440  0.744360  1.0
  C  C90  1  0.176180  0.255640  0.627560  1.0
  C  C91  1  0.676180  0.627560  0.255640  1.0
  C  C92  1  0.823820  0.744360  0.372440  1.0
  C  C93  1  0.363270  0.325670  0.731950  1.0
  C  C94  1  0.136730  0.268050  0.674330  1.0
  C  C95  1  0.636730  0.674330  0.268050  1.0
  C  C96  1  0.863270  0.731950  0.325670  1.0
  C  C97  1  0.768200  0.838250  0.767150  1.0
  C  C98  1  0.731800  0.232850  0.161750  1.0
  C  C99  1  0.231800  0.161750  0.232850  1.0
  C  C100  1  0.268200  0.767150  0.838250  1.0
  C  C101  1  0.741600  0.849800  0.822600  1.0
  C  C102  1  0.758400  0.177400  0.150200  1.0
  C  C103  1  0.258400  0.150200  0.177400  1.0
  C  C104  1  0.241600  0.822600  0.849800  1.0
  C  C105  1  0.725900  0.801800  0.843000  1.0
  C  C106  1  0.774100  0.157000  0.198200  1.0
  C  C107  1  0.274100  0.198200  0.157000  1.0
  C  C108  1  0.225900  0.843000  0.801800  1.0
  C  C109  1  0.736700  0.742250  0.808150  1.0
  C  C110  1  0.763300  0.191850  0.257750  1.0
  C  C111  1  0.263300  0.257750  0.191850  1.0
  C  C112  1  0.236700  0.808150  0.742250  1.0
  C  C113  1  0.763400  0.730700  0.752700  1.0
  C  C114  1  0.736600  0.247300  0.269300  1.0
  C  C115  1  0.236600  0.269300  0.247300  1.0
  C  C116  1  0.263400  0.752700  0.730700  1.0
  C  C117  1  0.779100  0.778600  0.732200  1.0
  C  C118  1  0.720900  0.267800  0.221400  1.0
  C  C119  1  0.220900  0.221400  0.267800  1.0
  C  C120  1  0.279100  0.732200  0.778600  1.0
  C  C121  1  0.839700  0.914600  0.762400  1.0
  C  C122  1  0.660300  0.237600  0.085400  1.0
  C  C123  1  0.160300  0.085400  0.237600  1.0
  C  C124  1  0.339700  0.762400  0.914600  1.0
  C  C125  1  0.854500  0.964400  0.744800  1.0
  C  C126  1  0.645500  0.255200  0.035600  1.0
  C  C127  1  0.145500  0.035600  0.255200  1.0
  C  C128  1  0.354500  0.744800  0.964400  1.0
  C  C129  1  0.812600  0.032400  0.698000  1.0
  C  C130  1  0.687400  0.302000  0.967600  1.0
  C  C131  1  0.187400  0.967600  0.302000  1.0
  C  C132  1  0.312600  0.698000  0.032400  1.0
  C  C133  1  0.870800  0.057600  0.699000  1.0
  C  C134  1  0.629200  0.301000  0.942400  1.0
  C  C135  1  0.129200  0.942400  0.301000  1.0
  C  C136  1  0.370800  0.699000  0.057600  1.0
  C  C137  1  0.919300  0.039000  0.719600  1.0
  C  C138  1  0.580700  0.280400  0.961000  1.0
  C  C139  1  0.080700  0.961000  0.280400  1.0
  C  C140  1  0.419300  0.719600  0.039000  1.0
  C  C141  1  0.910700  0.992400  0.748000  1.0
  C  C142  1  0.589300  0.252000  0.007600  1.0
  C  C143  1  0.089300  0.007600  0.252000  1.0
  C  C144  1  0.410700  0.748000  0.992400  1.0
  C  C145  1  0.879100  0.103200  0.666800  1.0
  C  C146  1  0.620900  0.333200  0.896800  1.0
  C  C147  1  0.120900  0.896800  0.333200  1.0
  C  C148  1  0.379100  0.666800  0.103200  1.0
  C  C149  1  0.910100  0.160600  0.696600  1.0
  C  C150  1  0.589900  0.303400  0.839400  1.0
  C  C151  1  0.089900  0.839400  0.303400  1.0
  C  C152  1  0.410100  0.696600  0.160600  1.0
  C  C153  1  0.908300  0.187700  0.610700  1.0
  C  C154  1  0.591700  0.389300  0.812300  1.0
  C  C155  1  0.091700  0.812300  0.389300  1.0
  C  C156  1  0.408300  0.610700  0.187700  1.0
  C  C157  1  0.871700  0.134700  0.577500  1.0
  C  C158  1  0.628300  0.422500  0.865300  1.0
  C  C159  1  0.128300  0.865300  0.422500  1.0
  C  C160  1  0.371700  0.577500  0.134700  1.0
  C  C161  1  0.858300  0.093500  0.607100  1.0
  C  C162  1  0.641700  0.392900  0.906500  1.0
  C  C163  1  0.141700  0.906500  0.392900  1.0
  C  C164  1  0.358300  0.607100  0.093500  1.0
  C  C165  1  0.928900  0.232500  0.585700  1.0
  C  C166  1  0.571100  0.414300  0.767500  1.0
  C  C167  1  0.071100  0.767500  0.414300  1.0
  C  C168  1  0.428900  0.585700  0.232500  1.0
  C  C169  1  0.982200  0.326220  0.599980  1.0
  C  C170  1  0.517800  0.400020  0.673780  1.0
  C  C171  1  0.017800  0.673780  0.400020  1.0
  C  C172  1  0.482200  0.599980  0.326220  1.0
  C  C173  1  0.037700  0.320300  0.574100  1.0
  C  C174  1  0.462300  0.425900  0.679700  1.0
  C  C175  1  0.962300  0.679700  0.425900  1.0
  C  C176  1  0.537700  0.574100  0.320300  1.0
  C  C177  1  0.062600  0.367200  0.556400  1.0
  C  C178  1  0.437400  0.443600  0.632800  1.0
  C  C179  1  0.937400  0.632800  0.443600  1.0
  C  C180  1  0.562600  0.556400  0.367200  1.0
  C  C181  1  0.032000  0.419970  0.564630  1.0
  C  C182  1  0.468000  0.435370  0.580030  1.0
  C  C183  1  0.968000  0.580030  0.435370  1.0
  C  C184  1  0.532000  0.564630  0.419970  1.0
  C  C185  1  0.976600  0.425880  0.590520  1.0
  C  C186  1  0.523400  0.409480  0.574120  1.0
  C  C187  1  0.023400  0.574120  0.409480  1.0
  C  C188  1  0.476600  0.590520  0.425880  1.0
  C  C189  1  0.951700  0.379000  0.608200  1.0
  C  C190  1  0.548300  0.391800  0.621000  1.0
  C  C191  1  0.048300  0.621000  0.391800  1.0
  C  C192  1  0.451700  0.608200  0.379000  1.0
  C  C193  1  0.626700  0.838620  0.672920  1.0
  C  C194  1  0.873300  0.327080  0.161380  1.0
  C  C195  1  0.373300  0.161380  0.327080  1.0
  C  C196  1  0.126700  0.672920  0.838620  1.0
  C  C197  1  0.626300  0.780270  0.676930  1.0
  C  C198  1  0.873700  0.323070  0.219730  1.0
  C  C199  1  0.373700  0.219730  0.323070  1.0
  C  C200  1  0.126300  0.676930  0.780270  1.0
  C  C201  1  0.598800  0.730920  0.629920  1.0
  C  C202  1  0.901200  0.370080  0.269080  1.0
  C  C203  1  0.401200  0.269080  0.370080  1.0
  C  C204  1  0.098800  0.629920  0.730920  1.0
  C  C205  1  0.571800  0.739900  0.578860  1.0
  C  C206  1  0.928200  0.421140  0.260100  1.0
  C  C207  1  0.428200  0.260100  0.421140  1.0
  C  C208  1  0.071800  0.578860  0.739900  1.0
  C  C209  1  0.572200  0.798200  0.574800  1.0
  C  C210  1  0.927800  0.425200  0.201800  1.0
  C  C211  1  0.427800  0.201800  0.425200  1.0
  C  C212  1  0.072200  0.574800  0.798200  1.0
  C  C213  1  0.599700  0.847600  0.621860  1.0
  C  C214  1  0.900300  0.378140  0.152400  1.0
  C  C215  1  0.400300  0.152400  0.378140  1.0
  C  C216  1  0.099700  0.621860  0.847600  1.0
  C  C217  1  0.626700  0.908100  0.771500  1.0
  C  C218  1  0.873300  0.228500  0.091900  1.0
  C  C219  1  0.373300  0.091900  0.228500  1.0
  C  C220  1  0.126700  0.771500  0.908100  1.0
  C  C221  1  0.658200  0.959000  0.820000  1.0
  C  C222  1  0.841800  0.180000  0.041000  1.0
  C  C223  1  0.341800  0.041000  0.180000  1.0
  C  C224  1  0.158200  0.820000  0.959000  1.0
  C  C225  1  0.744200  0.025500  0.844900  1.0
  C  C226  1  0.755800  0.155100  0.974500  1.0
  C  C227  1  0.255800  0.974500  0.155100  1.0
  C  C228  1  0.244200  0.844900  0.025500  1.0
  C  C229  1  0.727900  0.048200  0.903000  1.0
  C  C230  1  0.772100  0.097000  0.951800  1.0
  C  C231  1  0.272100  0.951800  0.097000  1.0
  C  C232  1  0.227900  0.903000  0.048200  1.0
  C  C233  1  0.676000  0.027800  0.921000  1.0
  C  C234  1  0.824000  0.079000  0.972200  1.0
  C  C235  1  0.324000  0.972200  0.079000  1.0
  C  C236  1  0.176000  0.921000  0.027800  1.0
  C  C237  1  0.646200  0.979400  0.880800  1.0
  C  C238  1  0.853800  0.119200  0.020600  1.0
  C  C239  1  0.353800  0.020600  0.119200  1.0
  C  C240  1  0.146200  0.880800  0.979400  1.0
  C  C241  1  0.446750  0.234690  0.608910  1.0
  C  C242  1  0.053250  0.391090  0.765310  1.0
  C  C243  1  0.553250  0.765310  0.391090  1.0
  C  C244  1  0.946750  0.608910  0.234690  1.0
  C  C245  1  0.411800  0.272580  0.587920  1.0
  C  C246  1  0.088200  0.412080  0.727420  1.0
  C  C247  1  0.588200  0.727420  0.412080  1.0
  C  C248  1  0.911800  0.587920  0.272580  1.0
  C  C249  1  0.352400  0.254480  0.566920  1.0
  C  C250  1  0.147600  0.433080  0.745520  1.0
  C  C251  1  0.647600  0.745520  0.433080  1.0
  C  C252  1  0.852400  0.566920  0.254480  1.0
  C  C253  1  0.327790  0.198590  0.567010  1.0
  C  C254  1  0.172210  0.432990  0.801410  1.0
  C  C255  1  0.672210  0.801410  0.432990  1.0
  C  C256  1  0.827790  0.567010  0.198590  1.0
  C  C257  1  0.362700  0.160650  0.587930  1.0
  C  C258  1  0.137300  0.412070  0.839350  1.0
  C  C259  1  0.637300  0.839350  0.412070  1.0
  C  C260  1  0.862700  0.587930  0.160650  1.0
  C  C261  1  0.422200  0.178710  0.608890  1.0
  C  C262  1  0.077800  0.391110  0.821290  1.0
  C  C263  1  0.577800  0.821290  0.391110  1.0
  C  C264  1  0.922200  0.608890  0.178710  1.0
  C  C265  1  0.546500  0.236400  0.594200  1.0
  C  C266  1  0.953500  0.405800  0.763600  1.0
  C  C267  1  0.453500  0.763600  0.405800  1.0
  C  C268  1  0.046500  0.594200  0.236400  1.0
  C  C269  1  0.609400  0.254700  0.616700  1.0
  C  C270  1  0.890600  0.383300  0.745300  1.0
  C  C271  1  0.390600  0.745300  0.383300  1.0
  C  C272  1  0.109400  0.616700  0.254700  1.0
  C  C273  1  0.669800  0.307400  0.702800  1.0
  C  C274  1  0.830200  0.297200  0.692600  1.0
  C  C275  1  0.330200  0.692600  0.297200  1.0
  C  C276  1  0.169800  0.702800  0.307400  1.0
  C  C277  1  0.720100  0.299400  0.671200  1.0
  C  C278  1  0.779900  0.328800  0.700600  1.0
  C  C279  1  0.279900  0.700600  0.328800  1.0
  C  C280  1  0.220100  0.671200  0.299400  1.0
  C  C281  1  0.715400  0.261900  0.608700  1.0
  C  C282  1  0.784600  0.391300  0.738100  1.0
  C  C283  1  0.284600  0.738100  0.391300  1.0
  C  C284  1  0.215400  0.608700  0.261900  1.0
  C  C285  1  0.660000  0.241500  0.581100  1.0
  C  C286  1  0.840000  0.418900  0.758500  1.0
  C  C287  1  0.340000  0.758500  0.418900  1.0
  C  C288  1  0.160000  0.581100  0.241500  1.0
  Cl  Cl289  1  0.752400  0.231590  0.810090  1.0
  Cl  Cl290  1  0.747600  0.189910  0.768410  1.0
  Cl  Cl291  1  0.247600  0.768410  0.189910  1.0
  Cl  Cl292  1  0.252400  0.810090  0.231590  1.0
  Fe  Fe293  1  0.729840  0.935860  0.716960  1.0
  Fe  Fe294  1  0.770160  0.283040  0.064140  1.0
  Fe  Fe295  1  0.270160  0.064140  0.283040  1.0
  Fe  Fe296  1  0.229840  0.716960  0.935860  1.0
  Fe  Fe297  1  0.537300  0.290960  0.716940  1.0
  Fe  Fe298  1  0.962700  0.283060  0.709040  1.0
  Fe  Fe299  1  0.462700  0.709040  0.283060  1.0
  Fe  Fe300  1  0.037300  0.716940  0.290960  1.0
  H  H301  1  0.712500  0.776300  0.586700  1.0
  H  H302  1  0.787500  0.413300  0.223700  1.0
  H  H303  1  0.287500  0.223700  0.413300  1.0
  H  H304  1  0.212500  0.586700  0.776300  1.0
  H  H305  1  0.773000  0.693200  0.552000  1.0
  H  H306  1  0.727000  0.448000  0.306800  1.0
  H  H307  1  0.227000  0.306800  0.448000  1.0
  H  H308  1  0.273000  0.552000  0.693200  1.0
  H  H309  1  0.877300  0.710000  0.551600  1.0
  H  H310  1  0.622700  0.448400  0.290000  1.0
  H  H311  1  0.122700  0.290000  0.448400  1.0
  H  H312  1  0.377300  0.551600  0.710000  1.0
  H  H313  1  0.920900  0.809800  0.586000  1.0
  H  H314  1  0.579100  0.414000  0.190200  1.0
  H  H315  1  0.079100  0.190200  0.414000  1.0
  H  H316  1  0.420900  0.586000  0.809800  1.0
  H  H317  1  0.860400  0.892900  0.620700  1.0
  H  H318  1  0.639600  0.379300  0.107100  1.0
  H  H319  1  0.139600  0.107100  0.379300  1.0
  H  H320  1  0.360400  0.620700  0.892900  1.0
  H  H321  1  0.737800  0.907800  0.551000  1.0
  H  H322  1  0.762200  0.449000  0.092200  1.0
  H  H323  1  0.262200  0.092200  0.449000  1.0
  H  H324  1  0.237800  0.551000  0.907800  1.0
  H  H325  1  0.635800  0.035600  0.748600  1.0
  H  H326  1  0.864200  0.251400  0.964400  1.0
  H  H327  1  0.364200  0.964400  0.251400  1.0
  H  H328  1  0.135800  0.748600  0.035600  1.0
  H  H329  1  0.620700  0.081800  0.596400  1.0
  H  H330  1  0.879300  0.403600  0.918200  1.0
  H  H331  1  0.379300  0.918200  0.403600  1.0
  H  H332  1  0.120700  0.596400  0.081800  1.0
  H  H333  1  0.678300  0.003200  0.545400  1.0
  H  H334  1  0.821700  0.454600  0.996800  1.0
  H  H335  1  0.321700  0.996800  0.454600  1.0
  H  H336  1  0.178300  0.545400  0.003200  1.0
  H  H337  1  0.615000  0.176100  0.686100  1.0
  H  H338  1  0.885000  0.313900  0.823900  1.0
  H  H339  1  0.385000  0.823900  0.313900  1.0
  H  H340  1  0.115000  0.686100  0.176100  1.0
  H  H341  1  0.451900  0.126500  0.777900  1.0
  H  H342  1  0.048100  0.222100  0.873500  1.0
  H  H343  1  0.548100  0.873500  0.222100  1.0
  H  H344  1  0.951900  0.777900  0.126500  1.0
  H  H345  1  0.525100  0.053300  0.736100  1.0
  H  H346  1  0.974900  0.263900  0.946700  1.0
  H  H347  1  0.474900  0.946700  0.263900  1.0
  H  H348  1  0.025100  0.736100  0.053300  1.0
  H  H349  1  0.410300  0.238600  0.781200  1.0
  H  H350  1  0.089700  0.218800  0.761400  1.0
  H  H351  1  0.589700  0.761400  0.218800  1.0
  H  H352  1  0.910300  0.781200  0.238600  1.0
  H  H353  1  0.468000  0.393400  0.838600  1.0
  H  H354  1  0.032000  0.161400  0.606600  1.0
  H  H355  1  0.532000  0.606600  0.161400  1.0
  H  H356  1  0.968000  0.838600  0.393400  1.0
  H  H357  1  0.401600  0.472300  0.859500  1.0
  H  H358  1  0.098400  0.140500  0.527700  1.0
  H  H359  1  0.598400  0.527700  0.140500  1.0
  H  H360  1  0.901600  0.859500  0.472300  1.0
  H  H361  1  0.311100  0.459000  0.800400  1.0
  H  H362  1  0.188900  0.199600  0.541000  1.0
  H  H363  1  0.688900  0.541000  0.199600  1.0
  H  H364  1  0.811100  0.800400  0.459000  1.0
  H  H365  1  0.287100  0.367100  0.720300  1.0
  H  H366  1  0.212900  0.279700  0.632900  1.0
  H  H367  1  0.712900  0.632900  0.279700  1.0
  H  H368  1  0.787100  0.720300  0.367100  1.0
  H  H369  1  0.353500  0.288300  0.699500  1.0
  H  H370  1  0.146500  0.300500  0.711700  1.0
  H  H371  1  0.646500  0.711700  0.300500  1.0
  H  H372  1  0.853500  0.699500  0.288300  1.0
  H  H373  1  0.734100  0.890500  0.846500  1.0
  H  H374  1  0.765900  0.153500  0.109500  1.0
  H  H375  1  0.265900  0.109500  0.153500  1.0
  H  H376  1  0.234100  0.846500  0.890500  1.0
  H  H377  1  0.707700  0.809700  0.880900  1.0
  H  H378  1  0.792300  0.119100  0.190300  1.0
  H  H379  1  0.292300  0.190300  0.119100  1.0
  H  H380  1  0.207700  0.880900  0.809700  1.0
  H  H381  1  0.726000  0.709300  0.822100  1.0
  H  H382  1  0.774000  0.177900  0.290700  1.0
  H  H383  1  0.274000  0.290700  0.177900  1.0
  H  H384  1  0.226000  0.822100  0.709300  1.0
  H  H385  1  0.770800  0.689900  0.728700  1.0
  H  H386  1  0.729200  0.271300  0.310100  1.0
  H  H387  1  0.229200  0.310100  0.271300  1.0
  H  H388  1  0.270800  0.728700  0.689900  1.0
  H  H389  1  0.797300  0.770700  0.694300  1.0
  H  H390  1  0.702700  0.305700  0.229300  1.0
  H  H391  1  0.202700  0.229300  0.305700  1.0
  H  H392  1  0.297300  0.694300  0.770700  1.0
  H  H393  1  0.869200  0.898000  0.782000  1.0
  H  H394  1  0.630800  0.218000  0.102000  1.0
  H  H395  1  0.130800  0.102000  0.218000  1.0
  H  H396  1  0.369200  0.782000  0.898000  1.0
  H  H397  1  0.779200  0.046600  0.681200  1.0
  H  H398  1  0.720800  0.318800  0.953400  1.0
  H  H399  1  0.220800  0.953400  0.318800  1.0
  H  H400  1  0.279200  0.681200  0.046600  1.0
  H  H401  1  0.958300  0.055300  0.716100  1.0
  H  H402  1  0.541700  0.283900  0.944700  1.0
  H  H403  1  0.041700  0.944700  0.283900  1.0
  H  H404  1  0.458300  0.716100  0.055300  1.0
  H  H405  1  0.943700  0.981500  0.768700  1.0
  H  H406  1  0.556300  0.231300  0.018500  1.0
  H  H407  1  0.056300  0.018500  0.231300  1.0
  H  H408  1  0.443700  0.768700  0.981500  1.0
  H  H409  1  0.921400  0.170700  0.738900  1.0
  H  H410  1  0.578600  0.261100  0.829300  1.0
  H  H411  1  0.078600  0.829300  0.261100  1.0
  H  H412  1  0.421400  0.738900  0.170700  1.0
  H  H413  1  0.856900  0.127700  0.536700  1.0
  H  H414  1  0.643100  0.463300  0.872300  1.0
  H  H415  1  0.143100  0.872300  0.463300  1.0
  H  H416  1  0.356900  0.536700  0.127700  1.0
  H  H417  1  0.834000  0.057400  0.585600  1.0
  H  H418  1  0.666000  0.414400  0.942600  1.0
  H  H419  1  0.166000  0.942600  0.414400  1.0
  H  H420  1  0.334000  0.585600  0.057400  1.0
  H  H421  1  0.920700  0.227900  0.543900  1.0
  H  H422  1  0.579300  0.456100  0.772100  1.0
  H  H423  1  0.079300  0.772100  0.456100  1.0
  H  H424  1  0.420700  0.543900  0.227900  1.0
  H  H425  1  0.058500  0.284200  0.568400  1.0
  H  H426  1  0.441500  0.431600  0.715800  1.0
  H  H427  1  0.941500  0.715800  0.431600  1.0
  H  H428  1  0.558500  0.568400  0.284200  1.0
  H  H429  1  0.100500  0.363100  0.538700  1.0
  H  H430  1  0.399500  0.461300  0.636900  1.0
  H  H431  1  0.899500  0.636900  0.461300  1.0
  H  H432  1  0.600500  0.538700  0.363100  1.0
  H  H433  1  0.049100  0.452000  0.552600  1.0
  H  H434  1  0.450900  0.447400  0.548000  1.0
  H  H435  1  0.950900  0.548000  0.447400  1.0
  H  H436  1  0.549100  0.552600  0.452000  1.0
  H  H437  1  0.955700  0.462000  0.596200  1.0
  H  H438  1  0.544300  0.403800  0.538000  1.0
  H  H439  1  0.044300  0.538000  0.403800  1.0
  H  H440  1  0.455700  0.596200  0.462000  1.0
  H  H441  1  0.913800  0.383100  0.625900  1.0
  H  H442  1  0.586200  0.374100  0.616900  1.0
  H  H443  1  0.086200  0.616900  0.374100  1.0
  H  H444  1  0.413800  0.625900  0.383100  1.0
  H  H445  1  0.644800  0.774200  0.711800  1.0
  H  H446  1  0.855200  0.288200  0.225800  1.0
  H  H447  1  0.355200  0.225800  0.288200  1.0
  H  H448  1  0.144800  0.711800  0.774200  1.0
  H  H449  1  0.598600  0.691100  0.632700  1.0
  H  H450  1  0.901400  0.367300  0.308900  1.0
  H  H451  1  0.401400  0.308900  0.367300  1.0
  H  H452  1  0.098600  0.632700  0.691100  1.0
  H  H453  1  0.553000  0.706100  0.546700  1.0
  H  H454  1  0.947000  0.453300  0.293900  1.0
  H  H455  1  0.447000  0.293900  0.453300  1.0
  H  H456  1  0.053000  0.546700  0.706100  1.0
  H  H457  1  0.553700  0.804300  0.539900  1.0
  H  H458  1  0.946300  0.460100  0.195700  1.0
  H  H459  1  0.446300  0.195700  0.460100  1.0
  H  H460  1  0.053700  0.539900  0.804300  1.0
  H  H461  1  0.599900  0.887500  0.619100  1.0
  H  H462  1  0.900100  0.380900  0.112500  1.0
  H  H463  1  0.400100  0.112500  0.380900  1.0
  H  H464  1  0.099900  0.619100  0.887500  1.0
  H  H465  1  0.588800  0.890433  0.776233  1.0
  H  H466  1  0.911200  0.223767  0.109567  1.0
  H  H467  1  0.411200  0.109567  0.223767  1.0
  H  H468  1  0.088800  0.776233  0.890433  1.0
  H  H469  1  0.780600  0.041100  0.834100  1.0
  H  H470  1  0.719400  0.165900  0.958900  1.0
  H  H471  1  0.219400  0.958900  0.165900  1.0
  H  H472  1  0.280600  0.834100  0.041100  1.0
  H  H473  1  0.662000  0.047300  0.960500  1.0
  H  H474  1  0.838000  0.039500  0.952700  1.0
  H  H475  1  0.338000  0.952700  0.039500  1.0
  H  H476  1  0.162000  0.960500  0.047300  1.0
  H  H477  1  0.615700  0.958300  0.894500  1.0
  H  H478  1  0.884300  0.105500  0.041700  1.0
  H  H479  1  0.384300  0.041700  0.105500  1.0
  H  H480  1  0.115700  0.894500  0.958300  1.0
  H  H481  1  0.428600  0.310900  0.587900  1.0
  H  H482  1  0.071400  0.412100  0.689100  1.0
  H  H483  1  0.571400  0.689100  0.412100  1.0
  H  H484  1  0.928600  0.587900  0.310900  1.0
  H  H485  1  0.328500  0.280400  0.552600  1.0
  H  H486  1  0.171500  0.447400  0.719600  1.0
  H  H487  1  0.671500  0.719600  0.447400  1.0
  H  H488  1  0.828500  0.552600  0.280400  1.0
  H  H489  1  0.287100  0.186200  0.552600  1.0
  H  H490  1  0.212900  0.447400  0.813800  1.0
  H  H491  1  0.712900  0.813800  0.447400  1.0
  H  H492  1  0.787100  0.552600  0.186200  1.0
  H  H493  1  0.345900  0.122400  0.588000  1.0
  H  H494  1  0.154100  0.412000  0.877600  1.0
  H  H495  1  0.654100  0.877600  0.412000  1.0
  H  H496  1  0.845900  0.588000  0.122400  1.0
  H  H497  1  0.446000  0.152800  0.623200  1.0
  H  H498  1  0.054000  0.376800  0.847200  1.0
  H  H499  1  0.554000  0.847200  0.376800  1.0
  H  H500  1  0.946000  0.623200  0.152800  1.0
  H  H501  1  0.536800  0.212300  0.552700  1.0
  H  H502  1  0.963200  0.447300  0.787700  1.0
  H  H503  1  0.463200  0.787700  0.447300  1.0
  H  H504  1  0.036800  0.552700  0.212300  1.0
  H  H505  1  0.673500  0.330100  0.745300  1.0
  H  H506  1  0.826500  0.254700  0.669900  1.0
  H  H507  1  0.326500  0.669900  0.254700  1.0
  H  H508  1  0.173500  0.745300  0.330100  1.0
  H  H509  1  0.750500  0.251200  0.586600  1.0
  H  H510  1  0.749500  0.413400  0.748800  1.0
  H  H511  1  0.249500  0.748800  0.413400  1.0
  H  H512  1  0.250500  0.586600  0.251200  1.0
  H  H513  1  0.655300  0.218800  0.538600  1.0
  H  H514  1  0.844700  0.461400  0.781200  1.0
  H  H515  1  0.344700  0.781200  0.461400  1.0
  H  H516  1  0.155300  0.538600  0.218800  1.0
  N  N517  1  0.745500  0.895230  0.630490  1.0
  N  N518  1  0.754500  0.369510  0.104770  1.0
  N  N519  1  0.254500  0.104770  0.369510  1.0
  N  N520  1  0.245500  0.630490  0.895230  1.0
  N  N521  1  0.683400  0.986530  0.680470  1.0
  N  N522  1  0.816600  0.319530  0.013470  1.0
  N  N523  1  0.316600  0.013470  0.319530  1.0
  N  N524  1  0.183400  0.680470  0.986530  1.0
  N  N525  1  0.537900  0.208280  0.722300  1.0
  N  N526  1  0.962100  0.277700  0.791720  1.0
  N  N527  1  0.462100  0.791720  0.277700  1.0
  N  N528  1  0.037900  0.722300  0.208280  1.0
  N  N529  1  0.459600  0.287200  0.751400  1.0
  N  N530  1  0.040400  0.248600  0.712800  1.0
  N  N531  1  0.540400  0.712800  0.248600  1.0
  N  N532  1  0.959600  0.751400  0.287200  1.0
  N  N533  1  0.784900  0.890980  0.751820  1.0
  N  N534  1  0.715100  0.248180  0.109020  1.0
  N  N535  1  0.215100  0.109020  0.248180  1.0
  N  N536  1  0.284900  0.751820  0.890980  1.0
  N  N537  1  0.805200  0.985680  0.722680  1.0
  N  N538  1  0.694800  0.277320  0.014320  1.0
  N  N539  1  0.194800  0.014320  0.277320  1.0
  N  N540  1  0.305200  0.722680  0.985680  1.0
  N  N541  1  0.924600  0.201410  0.670550  1.0
  N  N542  1  0.575400  0.329450  0.798590  1.0
  N  N543  1  0.075400  0.798590  0.329450  1.0
  N  N544  1  0.424600  0.670550  0.201410  1.0
  N  N545  1  0.960200  0.280970  0.623710  1.0
  N  N546  1  0.539800  0.376290  0.719030  1.0
  N  N547  1  0.039800  0.719030  0.376290  1.0
  N  N548  1  0.460200  0.623710  0.280970  1.0
  N  N549  1  0.655400  0.888530  0.720270  1.0
  N  N550  1  0.844600  0.279730  0.111470  1.0
  N  N551  1  0.344600  0.111470  0.279730  1.0
  N  N552  1  0.155400  0.720270  0.888530  1.0
  N  N553  1  0.709800  0.980560  0.801040  1.0
  N  N554  1  0.790200  0.198960  0.019440  1.0
  N  N555  1  0.290200  0.019440  0.198960  1.0
  N  N556  1  0.209800  0.801040  0.980560  1.0
  N  N557  1  0.507300  0.252720  0.629580  1.0
  N  N558  1  0.992700  0.370420  0.747280  1.0
  N  N559  1  0.492700  0.747280  0.370420  1.0
  N  N560  1  0.007300  0.629580  0.252720  1.0
  N  N561  1  0.614600  0.284690  0.676910  1.0
  N  N562  1  0.885400  0.323090  0.715310  1.0
  N  N563  1  0.385400  0.715310  0.323090  1.0
  N  N564  1  0.114600  0.676910  0.284690  1.0
  O  O565  1  0.765000  0.294000  0.827800  1.0
  O  O566  1  0.735000  0.172200  0.706000  1.0
  O  O567  1  0.235000  0.706000  0.172200  1.0
  O  O568  1  0.265000  0.827800  0.294000  1.0
  O  O569  1  0.760900  0.215500  0.861300  1.0
  O  O570  1  0.739100  0.138700  0.784500  1.0
  O  O571  1  0.239100  0.784500  0.138700  1.0
  O  O572  1  0.260900  0.861300  0.215500  1.0
  O  O573  1  0.698600  0.221080  0.787320  1.0
  O  O574  1  0.801400  0.212680  0.778920  1.0
  O  O575  1  0.301400  0.778920  0.212680  1.0
  O  O576  1  0.198600  0.787320  0.221080  1.0
