# generated using pymatgen
data_Fe2BH54C72(N4F)3
_symmetry_space_group_name_H-M   'P 1'
_cell_length_a   22.29330000
_cell_length_b   23.24918306
_cell_length_c   23.24918306
_cell_angle_alpha   109.41550614
_cell_angle_beta   92.34722903
_cell_angle_gamma   92.34722903
_symmetry_Int_Tables_number   1
_chemical_formula_structural   Fe2BH54C72(N4F)3
_chemical_formula_sum   'Fe8 B4 H216 C288 N48 F12'
_cell_volume   11336.22944888
_cell_formula_units_Z   4
loop_
 _symmetry_equiv_pos_site_id
 _symmetry_equiv_pos_as_xyz
  1  'x, y, z'
loop_
 _atom_site_type_symbol
 _atom_site_label
 _atom_site_symmetry_multiplicity
 _atom_site_fract_x
 _atom_site_fract_y
 _atom_site_fract_z
 _atom_site_occupancy
  B  B1  1  0.255200  0.244300  0.811700  1.0
  B  B2  1  0.244800  0.188300  0.755700  1.0
  B  B3  1  0.744800  0.755700  0.188300  1.0
  B  B4  1  0.755200  0.811700  0.244300  1.0
  C  C5  1  0.242900  0.740400  0.805600  1.0
  C  C6  1  0.257100  0.194400  0.259600  1.0
  C  C7  1  0.757100  0.259600  0.194400  1.0
  C  C8  1  0.742900  0.805600  0.740400  1.0
  C  C9  1  0.270900  0.731800  0.751200  1.0
  C  C10  1  0.229100  0.248800  0.268200  1.0
  C  C11  1  0.729100  0.268200  0.248800  1.0
  C  C12  1  0.770900  0.751200  0.731800  1.0
  C  C13  1  0.286000  0.781700  0.733300  1.0
  C  C14  1  0.214000  0.266700  0.218300  1.0
  C  C15  1  0.714000  0.218300  0.266700  1.0
  C  C16  1  0.786000  0.733300  0.781700  1.0
  C  C17  1  0.273100  0.840100  0.769700  1.0
  C  C18  1  0.226900  0.230300  0.159900  1.0
  C  C19  1  0.726900  0.159900  0.230300  1.0
  C  C20  1  0.773100  0.769700  0.840100  1.0
  C  C21  1  0.245100  0.848700  0.824100  1.0
  C  C22  1  0.254900  0.175900  0.151300  1.0
  C  C23  1  0.754900  0.151300  0.175900  1.0
  C  C24  1  0.745100  0.824100  0.848700  1.0
  C  C25  1  0.230000  0.798800  0.842000  1.0
  C  C26  1  0.270000  0.158000  0.201200  1.0
  C  C27  1  0.770000  0.201200  0.158000  1.0
  C  C28  1  0.730000  0.842000  0.798800  1.0
  C  C29  1  0.341000  0.914700  0.760700  1.0
  C  C30  1  0.159000  0.239300  0.085300  1.0
  C  C31  1  0.659000  0.085300  0.239300  1.0
  C  C32  1  0.841000  0.760700  0.914700  1.0
  C  C33  1  0.355500  0.964600  0.744600  1.0
  C  C34  1  0.144500  0.255400  0.035400  1.0
  C  C35  1  0.644500  0.035400  0.255400  1.0
  C  C36  1  0.855500  0.744600  0.964600  1.0
  C  C37  1  0.314900  0.032900  0.696700  1.0
  C  C38  1  0.185100  0.303300  0.967100  1.0
  C  C39  1  0.685100  0.967100  0.303300  1.0
  C  C40  1  0.814900  0.696700  0.032900  1.0
  C  C41  1  0.372100  0.056800  0.697000  1.0
  C  C42  1  0.127900  0.303000  0.943200  1.0
  C  C43  1  0.627900  0.943200  0.303000  1.0
  C  C44  1  0.872100  0.697000  0.056800  1.0
  C  C45  1  0.421700  0.037500  0.719500  1.0
  C  C46  1  0.078300  0.280500  0.962500  1.0
  C  C47  1  0.578300  0.962500  0.280500  1.0
  C  C48  1  0.921700  0.719500  0.037500  1.0
  C  C49  1  0.412500  0.991400  0.745000  1.0
  C  C50  1  0.087500  0.255000  0.008600  1.0
  C  C51  1  0.587500  0.008600  0.255000  1.0
  C  C52  1  0.912500  0.745000  0.991400  1.0
  C  C53  1  0.381900  0.103600  0.666600  1.0
  C  C54  1  0.118100  0.333400  0.896400  1.0
  C  C55  1  0.618100  0.896400  0.333400  1.0
  C  C56  1  0.881900  0.666600  0.103600  1.0
  C  C57  1  0.411500  0.158100  0.697300  1.0
  C  C58  1  0.088500  0.302700  0.841900  1.0
  C  C59  1  0.588500  0.841900  0.302700  1.0
  C  C60  1  0.911500  0.697300  0.158100  1.0
  C  C61  1  0.409800  0.187600  0.612600  1.0
  C  C62  1  0.090200  0.387400  0.812400  1.0
  C  C63  1  0.590200  0.812400  0.387400  1.0
  C  C64  1  0.909800  0.612600  0.187600  1.0
  C  C65  1  0.374500  0.136900  0.576300  1.0
  C  C66  1  0.125500  0.423700  0.863100  1.0
  C  C67  1  0.625500  0.863100  0.423700  1.0
  C  C68  1  0.874500  0.576300  0.136900  1.0
  C  C69  1  0.360200  0.095200  0.603400  1.0
  C  C70  1  0.139800  0.396600  0.904800  1.0
  C  C71  1  0.639800  0.904800  0.396600  1.0
  C  C72  1  0.860200  0.603400  0.095200  1.0
  C  C73  1  0.430800  0.233600  0.586400  1.0
  C  C74  1  0.069200  0.413600  0.766400  1.0
  C  C75  1  0.569200  0.766400  0.413600  1.0
  C  C76  1  0.930800  0.586400  0.233600  1.0
  C  C77  1  0.482900  0.327600  0.600200  1.0
  C  C78  1  0.017100  0.399800  0.672400  1.0
  C  C79  1  0.517100  0.672400  0.399800  1.0
  C  C80  1  0.982900  0.600200  0.327600  1.0
  C  C81  1  0.538300  0.322000  0.574000  1.0
  C  C82  1  0.961700  0.426000  0.678000  1.0
  C  C83  1  0.461700  0.678000  0.426000  1.0
  C  C84  1  0.038300  0.574000  0.322000  1.0
  C  C85  1  0.562600  0.368900  0.556100  1.0
  C  C86  1  0.937400  0.443900  0.631100  1.0
  C  C87  1  0.437400  0.631100  0.443900  1.0
  C  C88  1  0.062600  0.556100  0.368900  1.0
  C  C89  1  0.531600  0.421400  0.564200  1.0
  C  C90  1  0.968400  0.435800  0.578600  1.0
  C  C91  1  0.468400  0.578600  0.435800  1.0
  C  C92  1  0.031600  0.564200  0.421400  1.0
  C  C93  1  0.476200  0.427000  0.590400  1.0
  C  C94  1  0.023800  0.409600  0.573000  1.0
  C  C95  1  0.523800  0.573000  0.409600  1.0
  C  C96  1  0.976200  0.590400  0.427000  1.0
  C  C97  1  0.451800  0.380100  0.608300  1.0
  C  C98  1  0.048200  0.391700  0.619900  1.0
  C  C99  1  0.548200  0.619900  0.391700  1.0
  C  C100  1  0.951800  0.608300  0.380100  1.0
  C  C101  1  0.355200  0.743500  0.566500  1.0
  C  C102  1  0.144800  0.433500  0.256500  1.0
  C  C103  1  0.644800  0.256500  0.433500  1.0
  C  C104  1  0.855200  0.566500  0.743500  1.0
  C  C105  1  0.381200  0.802600  0.587000  1.0
  C  C106  1  0.118800  0.413000  0.197400  1.0
  C  C107  1  0.618800  0.197400  0.413000  1.0
  C  C108  1  0.881200  0.587000  0.802600  1.0
  C  C109  1  0.345200  0.852100  0.607300  1.0
  C  C110  1  0.154800  0.392700  0.147900  1.0
  C  C111  1  0.654800  0.147900  0.392700  1.0
  C  C112  1  0.845200  0.607300  0.852100  1.0
  C  C113  1  0.283300  0.842300  0.607300  1.0
  C  C114  1  0.216700  0.392700  0.157700  1.0
  C  C115  1  0.716700  0.157700  0.392700  1.0
  C  C116  1  0.783300  0.607300  0.842300  1.0
  C  C117  1  0.257300  0.783100  0.586900  1.0
  C  C118  1  0.242700  0.413100  0.216900  1.0
  C  C119  1  0.742700  0.216900  0.413100  1.0
  C  C120  1  0.757300  0.586900  0.783100  1.0
  C  C121  1  0.293200  0.733700  0.566500  1.0
  C  C122  1  0.206800  0.433500  0.266300  1.0
  C  C123  1  0.706800  0.266300  0.433500  1.0
  C  C124  1  0.793200  0.566500  0.733700  1.0
  C  C125  1  0.228900  0.919100  0.592500  1.0
  C  C126  1  0.271100  0.407500  0.080900  1.0
  C  C127  1  0.771100  0.080900  0.407500  1.0
  C  C128  1  0.728900  0.592500  0.919100  1.0
  C  C129  1  0.193300  0.974000  0.621600  1.0
  C  C130  1  0.306700  0.378400  0.026000  1.0
  C  C131  1  0.806700  0.026000  0.378400  1.0
  C  C132  1  0.693300  0.621600  0.974000  1.0
  C  C133  1  0.145500  0.029300  0.705700  1.0
  C  C134  1  0.354500  0.294300  0.970700  1.0
  C  C135  1  0.854500  0.970700  0.294300  1.0
  C  C136  1  0.645500  0.705700  0.029300  1.0
  C  C137  1  0.119000  0.065000  0.674400  1.0
  C  C138  1  0.381000  0.325600  0.935000  1.0
  C  C139  1  0.881000  0.935000  0.325600  1.0
  C  C140  1  0.619000  0.674400  0.065000  1.0
  C  C141  1  0.132000  0.054100  0.615100  1.0
  C  C142  1  0.368000  0.384900  0.945900  1.0
  C  C143  1  0.868000  0.945900  0.384900  1.0
  C  C144  1  0.632000  0.615100  0.054100  1.0
  C  C145  1  0.170400  0.007200  0.585400  1.0
  C  C146  1  0.329600  0.414600  0.992800  1.0
  C  C147  1  0.829600  0.992800  0.414600  1.0
  C  C148  1  0.670400  0.585400  0.007200  1.0
  C  C149  1  0.075200  0.108300  0.704300  1.0
  C  C150  1  0.424800  0.295700  0.891700  1.0
  C  C151  1  0.924800  0.891700  0.295700  1.0
  C  C152  1  0.575200  0.704300  0.108300  1.0
  C  C153  1  0.079100  0.164900  0.700500  1.0
  C  C154  1  0.420900  0.299500  0.835100  1.0
  C  C155  1  0.920900  0.835100  0.299500  1.0
  C  C156  1  0.579100  0.700500  0.164900  1.0
  C  C157  1  0.989200  0.189800  0.747400  1.0
  C  C158  1  0.510800  0.252600  0.810200  1.0
  C  C159  1  0.010800  0.810200  0.252600  1.0
  C  C160  1  0.489200  0.747400  0.189800  1.0
  C  C161  1  0.985100  0.133800  0.753200  1.0
  C  C162  1  0.514900  0.246800  0.866200  1.0
  C  C163  1  0.014900  0.866200  0.246800  1.0
  C  C164  1  0.485100  0.753200  0.133800  1.0
  C  C165  1  0.026300  0.092400  0.731600  1.0
  C  C166  1  0.473700  0.268400  0.907600  1.0
  C  C167  1  0.973700  0.907600  0.268400  1.0
  C  C168  1  0.526300  0.731600  0.092400  1.0
  C  C169  1  0.946500  0.240600  0.763400  1.0
  C  C170  1  0.553500  0.236600  0.759400  1.0
  C  C171  1  0.053500  0.759400  0.236600  1.0
  C  C172  1  0.446500  0.763400  0.240600  1.0
  C  C173  1  0.915700  0.336600  0.765800  1.0
  C  C174  1  0.584300  0.234200  0.663400  1.0
  C  C175  1  0.084300  0.663400  0.234200  1.0
  C  C176  1  0.415700  0.765800  0.336600  1.0
  C  C177  1  0.929900  0.390200  0.814800  1.0
  C  C178  1  0.570100  0.185200  0.609800  1.0
  C  C179  1  0.070100  0.609800  0.185200  1.0
  C  C180  1  0.429900  0.814800  0.390200  1.0
  C  C181  1  0.893100  0.435100  0.828100  1.0
  C  C182  1  0.606900  0.171900  0.564900  1.0
  C  C183  1  0.106900  0.564900  0.171900  1.0
  C  C184  1  0.393100  0.828100  0.435100  1.0
  C  C185  1  0.836800  0.428300  0.793100  1.0
  C  C186  1  0.663200  0.206900  0.571700  1.0
  C  C187  1  0.163200  0.571700  0.206900  1.0
  C  C188  1  0.336800  0.793100  0.428300  1.0
  C  C189  1  0.822900  0.374100  0.746100  1.0
  C  C190  1  0.677100  0.253900  0.625900  1.0
  C  C191  1  0.177100  0.625900  0.253900  1.0
  C  C192  1  0.322900  0.746100  0.374100  1.0
  C  C193  1  0.863300  0.324500  0.733100  1.0
  C  C194  1  0.636700  0.266900  0.675500  1.0
  C  C195  1  0.136700  0.675500  0.266900  1.0
  C  C196  1  0.363300  0.733100  0.324500  1.0
  C  C197  1  0.076400  0.737300  0.579500  1.0
  C  C198  1  0.423600  0.420500  0.262700  1.0
  C  C199  1  0.923600  0.262700  0.420500  1.0
  C  C200  1  0.576400  0.579500  0.737300  1.0
  C  C201  1  0.072700  0.793300  0.577300  1.0
  C  C202  1  0.427300  0.422700  0.206700  1.0
  C  C203  1  0.927300  0.206700  0.422700  1.0
  C  C204  1  0.572700  0.577300  0.793300  1.0
  C  C205  1  0.102300  0.847400  0.622400  1.0
  C  C206  1  0.397700  0.377600  0.152600  1.0
  C  C207  1  0.897700  0.152600  0.377600  1.0
  C  C208  1  0.602300  0.622400  0.847400  1.0
  C  C209  1  0.127900  0.837800  0.671400  1.0
  C  C210  1  0.372100  0.328600  0.162200  1.0
  C  C211  1  0.872100  0.162200  0.328600  1.0
  C  C212  1  0.627900  0.671400  0.837800  1.0
  C  C213  1  0.123100  0.780100  0.674900  1.0
  C  C214  1  0.376900  0.325100  0.219900  1.0
  C  C215  1  0.876900  0.219900  0.325100  1.0
  C  C216  1  0.623100  0.674900  0.780100  1.0
  C  C217  1  0.095700  0.734200  0.626400  1.0
  C  C218  1  0.404300  0.373600  0.265800  1.0
  C  C219  1  0.904300  0.265800  0.373600  1.0
  C  C220  1  0.595700  0.626400  0.734200  1.0
  C  C221  1  0.131500  0.908100  0.770900  1.0
  C  C222  1  0.368500  0.229100  0.091900  1.0
  C  C223  1  0.868500  0.091900  0.229100  1.0
  C  C224  1  0.631500  0.770900  0.908100  1.0
  C  C225  1  0.161100  0.958500  0.818500  1.0
  C  C226  1  0.338900  0.181500  0.041500  1.0
  C  C227  1  0.838900  0.041500  0.181500  1.0
  C  C228  1  0.661100  0.818500  0.958500  1.0
  C  C229  1  0.245200  0.025300  0.844500  1.0
  C  C230  1  0.254800  0.155500  0.974700  1.0
  C  C231  1  0.754800  0.974700  0.155500  1.0
  C  C232  1  0.745200  0.844500  0.025300  1.0
  C  C233  1  0.223600  0.048700  0.902900  1.0
  C  C234  1  0.276400  0.097100  0.951300  1.0
  C  C235  1  0.776400  0.951300  0.097100  1.0
  C  C236  1  0.723600  0.902900  0.048700  1.0
  C  C237  1  0.173400  0.030800  0.918800  1.0
  C  C238  1  0.326600  0.081200  0.969200  1.0
  C  C239  1  0.826600  0.969200  0.081200  1.0
  C  C240  1  0.673400  0.918800  0.030800  1.0
  C  C241  1  0.143700  0.981700  0.879100  1.0
  C  C242  1  0.356300  0.120900  0.018300  1.0
  C  C243  1  0.856300  0.018300  0.120900  1.0
  C  C244  1  0.643700  0.879100  0.981700  1.0
  C  C245  1  0.278100  0.330000  0.700000  1.0
  C  C246  1  0.221900  0.300000  0.670000  1.0
  C  C247  1  0.721900  0.670000  0.300000  1.0
  C  C248  1  0.778100  0.700000  0.330000  1.0
  C  C249  1  0.331300  0.297000  0.691800  1.0
  C  C250  1  0.168700  0.308200  0.703000  1.0
  C  C251  1  0.668700  0.703000  0.308200  1.0
  C  C252  1  0.831300  0.691800  0.297000  1.0
  C  C253  1  0.391100  0.385200  0.746400  1.0
  C  C254  1  0.108900  0.253600  0.614800  1.0
  C  C255  1  0.608900  0.614800  0.253600  1.0
  C  C256  1  0.891100  0.746400  0.385200  1.0
  C  C257  1  0.338400  0.419900  0.755900  1.0
  C  C258  1  0.161600  0.244100  0.580100  1.0
  C  C259  1  0.661600  0.580100  0.244100  1.0
  C  C260  1  0.838400  0.755900  0.419900  1.0
  C  C261  1  0.284600  0.392400  0.737000  1.0
  C  C262  1  0.215400  0.263000  0.607600  1.0
  C  C263  1  0.715400  0.607600  0.263000  1.0
  C  C264  1  0.784600  0.737000  0.392400  1.0
  C  C265  1  0.450500  0.404000  0.766000  1.0
  C  C266  1  0.049500  0.234000  0.596000  1.0
  C  C267  1  0.549500  0.596000  0.234000  1.0
  C  C268  1  0.950500  0.766000  0.404000  1.0
  C  C269  1  0.553000  0.393100  0.764700  1.0
  C  C270  1  0.947000  0.235300  0.606900  1.0
  C  C271  1  0.447000  0.606900  0.235300  1.0
  C  C272  1  0.053000  0.764700  0.393100  1.0
  C  C273  1  0.586500  0.412900  0.727300  1.0
  C  C274  1  0.913500  0.272700  0.587100  1.0
  C  C275  1  0.413500  0.587100  0.272700  1.0
  C  C276  1  0.086500  0.727300  0.412900  1.0
  C  C277  1  0.648700  0.435900  0.749300  1.0
  C  C278  1  0.851300  0.250700  0.564100  1.0
  C  C279  1  0.351300  0.564100  0.250700  1.0
  C  C280  1  0.148700  0.749300  0.435900  1.0
  C  C281  1  0.672000  0.433000  0.801200  1.0
  C  C282  1  0.828000  0.198800  0.567000  1.0
  C  C283  1  0.328000  0.567000  0.198800  1.0
  C  C284  1  0.172000  0.801200  0.433000  1.0
  C  C285  1  0.639300  0.411500  0.836500  1.0
  C  C286  1  0.860700  0.163500  0.588500  1.0
  C  C287  1  0.360700  0.588500  0.163500  1.0
  C  C288  1  0.139300  0.836500  0.411500  1.0
  C  C289  1  0.578800  0.394600  0.817200  1.0
  C  C290  1  0.921200  0.182800  0.605400  1.0
  C  C291  1  0.421200  0.605400  0.182800  1.0
  C  C292  1  0.078800  0.817200  0.394600  1.0
  F  F293  1  0.259200  0.225600  0.861400  1.0
  F  F294  1  0.240800  0.138600  0.774400  1.0
  F  F295  1  0.740800  0.774400  0.138600  1.0
  F  F296  1  0.759200  0.861400  0.225600  1.0
  F  F297  1  0.261800  0.306700  0.829900  1.0
  F  F298  1  0.238200  0.170100  0.693300  1.0
  F  F299  1  0.738200  0.693300  0.170100  1.0
  F  F300  1  0.761800  0.829900  0.306700  1.0
  F  F301  1  0.200100  0.226500  0.780900  1.0
  F  F302  1  0.299900  0.219100  0.773500  1.0
  F  F303  1  0.799900  0.773500  0.219100  1.0
  F  F304  1  0.700100  0.780900  0.226500  1.0
  Fe  Fe305  1  0.230840  0.935870  0.717050  1.0
  Fe  Fe306  1  0.269160  0.282950  0.064130  1.0
  Fe  Fe307  1  0.769160  0.064130  0.282950  1.0
  Fe  Fe308  1  0.730840  0.717050  0.935870  1.0
  Fe  Fe309  1  0.462650  0.283540  0.709100  1.0
  Fe  Fe310  1  0.037350  0.290900  0.716460  1.0
  Fe  Fe311  1  0.537350  0.716460  0.290900  1.0
  Fe  Fe312  1  0.962650  0.709100  0.283540  1.0
  H  H313  1  0.232600  0.706200  0.817800  1.0
  H  H314  1  0.267400  0.182200  0.293800  1.0
  H  H315  1  0.767400  0.293800  0.182200  1.0
  H  H316  1  0.732600  0.817800  0.706200  1.0
  H  H317  1  0.279800  0.691900  0.726300  1.0
  H  H318  1  0.220200  0.273700  0.308100  1.0
  H  H319  1  0.720200  0.308100  0.273700  1.0
  H  H320  1  0.779800  0.726300  0.691900  1.0
  H  H321  1  0.305100  0.775800  0.696200  1.0
  H  H322  1  0.194900  0.303800  0.224200  1.0
  H  H323  1  0.694900  0.224200  0.303800  1.0
  H  H324  1  0.805100  0.696200  0.775800  1.0
  H  H325  1  0.236200  0.888600  0.849000  1.0
  H  H326  1  0.263800  0.151000  0.111400  1.0
  H  H327  1  0.763800  0.111400  0.151000  1.0
  H  H328  1  0.736200  0.849000  0.888600  1.0
  H  H329  1  0.210800  0.804600  0.879000  1.0
  H  H330  1  0.289200  0.121000  0.195400  1.0
  H  H331  1  0.789200  0.195400  0.121000  1.0
  H  H332  1  0.710800  0.879000  0.804600  1.0
  H  H333  1  0.371400  0.896800  0.777800  1.0
  H  H334  1  0.128600  0.222200  0.103200  1.0
  H  H335  1  0.628600  0.103200  0.222200  1.0
  H  H336  1  0.871400  0.777800  0.896800  1.0
  H  H337  1  0.281500  0.047500  0.680100  1.0
  H  H338  1  0.218500  0.319900  0.952500  1.0
  H  H339  1  0.718500  0.952500  0.319900  1.0
  H  H340  1  0.781500  0.680100  0.047500  1.0
  H  H341  1  0.460800  0.054600  0.718000  1.0
  H  H342  1  0.039200  0.282000  0.945400  1.0
  H  H343  1  0.539200  0.945400  0.282000  1.0
  H  H344  1  0.960800  0.718000  0.054600  1.0
  H  H345  1  0.445900  0.978200  0.763000  1.0
  H  H346  1  0.054100  0.237000  0.021800  1.0
  H  H347  1  0.554100  0.021800  0.237000  1.0
  H  H348  1  0.945900  0.763000  0.978200  1.0
  H  H349  1  0.423000  0.167100  0.739300  1.0
  H  H350  1  0.077000  0.260700  0.832900  1.0
  H  H351  1  0.577000  0.832900  0.260700  1.0
  H  H352  1  0.923000  0.739300  0.167100  1.0
  H  H353  1  0.361400  0.131600  0.535400  1.0
  H  H354  1  0.138600  0.464600  0.868400  1.0
  H  H355  1  0.638600  0.868400  0.464600  1.0
  H  H356  1  0.861400  0.535400  0.131600  1.0
  H  H357  1  0.335600  0.059700  0.581300  1.0
  H  H358  1  0.164400  0.418700  0.940300  1.0
  H  H359  1  0.664400  0.940300  0.418700  1.0
  H  H360  1  0.835600  0.581300  0.059700  1.0
  H  H361  1  0.423100  0.228700  0.544500  1.0
  H  H362  1  0.076900  0.455500  0.771300  1.0
  H  H363  1  0.576900  0.771300  0.455500  1.0
  H  H364  1  0.923100  0.544500  0.228700  1.0
  H  H365  1  0.559500  0.286100  0.568500  1.0
  H  H366  1  0.940500  0.431500  0.713900  1.0
  H  H367  1  0.440500  0.713900  0.431500  1.0
  H  H368  1  0.059500  0.568500  0.286100  1.0
  H  H369  1  0.600500  0.365100  0.538300  1.0
  H  H370  1  0.899500  0.461700  0.634900  1.0
  H  H371  1  0.399500  0.634900  0.461700  1.0
  H  H372  1  0.100500  0.538300  0.365100  1.0
  H  H373  1  0.548200  0.453500  0.551900  1.0
  H  H374  1  0.951800  0.448100  0.546500  1.0
  H  H375  1  0.451800  0.546500  0.448100  1.0
  H  H376  1  0.048200  0.551900  0.453500  1.0
  H  H377  1  0.454900  0.462900  0.595900  1.0
  H  H378  1  0.045100  0.404100  0.537100  1.0
  H  H379  1  0.545100  0.537100  0.404100  1.0
  H  H380  1  0.954900  0.595900  0.462900  1.0
  H  H381  1  0.414000  0.383900  0.626100  1.0
  H  H382  1  0.086000  0.373900  0.616100  1.0
  H  H383  1  0.586000  0.616100  0.373900  1.0
  H  H384  1  0.914000  0.626100  0.383900  1.0
  H  H385  1  0.379700  0.709600  0.552600  1.0
  H  H386  1  0.120300  0.447400  0.290400  1.0
  H  H387  1  0.620300  0.290400  0.447400  1.0
  H  H388  1  0.879700  0.552600  0.709600  1.0
  H  H389  1  0.423500  0.809300  0.586900  1.0
  H  H390  1  0.076500  0.413100  0.190700  1.0
  H  H391  1  0.576500  0.190700  0.413100  1.0
  H  H392  1  0.923500  0.586900  0.809300  1.0
  H  H393  1  0.363000  0.892500  0.621300  1.0
  H  H394  1  0.137000  0.378700  0.107500  1.0
  H  H395  1  0.637000  0.107500  0.378700  1.0
  H  H396  1  0.863000  0.621300  0.892500  1.0
  H  H397  1  0.215000  0.776400  0.587000  1.0
  H  H398  1  0.285000  0.413000  0.223600  1.0
  H  H399  1  0.785000  0.223600  0.413000  1.0
  H  H400  1  0.715000  0.587000  0.776400  1.0
  H  H401  1  0.275500  0.693200  0.552600  1.0
  H  H402  1  0.224500  0.447400  0.306800  1.0
  H  H403  1  0.724500  0.306800  0.447400  1.0
  H  H404  1  0.775500  0.552600  0.693200  1.0
  H  H405  1  0.236700  0.904400  0.550400  1.0
  H  H406  1  0.263300  0.449600  0.095600  1.0
  H  H407  1  0.763300  0.095600  0.449600  1.0
  H  H408  1  0.736700  0.550400  0.904400  1.0
  H  H409  1  0.136300  0.036200  0.746800  1.0
  H  H410  1  0.363700  0.253200  0.963800  1.0
  H  H411  1  0.863700  0.963800  0.253200  1.0
  H  H412  1  0.636300  0.746800  0.036200  1.0
  H  H413  1  0.115200  0.078200  0.593200  1.0
  H  H414  1  0.384800  0.406800  0.921800  1.0
  H  H415  1  0.884800  0.921800  0.406800  1.0
  H  H416  1  0.615200  0.593200  0.078200  1.0
  H  H417  1  0.179900  0.998800  0.544000  1.0
  H  H418  1  0.320100  0.456000  0.001200  1.0
  H  H419  1  0.820100  0.001200  0.456000  1.0
  H  H420  1  0.679900  0.544000  0.998800  1.0
  H  H421  1  0.113500  0.175700  0.682700  1.0
  H  H422  1  0.386500  0.317300  0.824300  1.0
  H  H423  1  0.886500  0.824300  0.317300  1.0
  H  H424  1  0.613500  0.682700  0.175700  1.0
  H  H425  1  0.952000  0.123400  0.773000  1.0
  H  H426  1  0.548000  0.227000  0.876600  1.0
  H  H427  1  0.048000  0.876600  0.227000  1.0
  H  H428  1  0.452000  0.773000  0.123400  1.0
  H  H429  1  0.021900  0.052800  0.735200  1.0
  H  H430  1  0.478100  0.264800  0.947200  1.0
  H  H431  1  0.978100  0.947200  0.264800  1.0
  H  H432  1  0.521900  0.735200  0.052800  1.0
  H  H433  1  0.910300  0.236500  0.782100  1.0
  H  H434  1  0.589700  0.217900  0.763500  1.0
  H  H435  1  0.089700  0.763500  0.217900  1.0
  H  H436  1  0.410300  0.782100  0.236500  1.0
  H  H437  1  0.966500  0.394500  0.838700  1.0
  H  H438  1  0.533500  0.161300  0.605500  1.0
  H  H439  1  0.033500  0.605500  0.161300  1.0
  H  H440  1  0.466500  0.838700  0.394500  1.0
  H  H441  1  0.903600  0.471900  0.860700  1.0
  H  H442  1  0.596400  0.139300  0.528100  1.0
  H  H443  1  0.096400  0.528100  0.139300  1.0
  H  H444  1  0.403600  0.860700  0.471900  1.0
  H  H445  1  0.809900  0.460300  0.802300  1.0
  H  H446  1  0.690100  0.197700  0.539700  1.0
  H  H447  1  0.190100  0.539700  0.197700  1.0
  H  H448  1  0.309900  0.802300  0.460300  1.0
  H  H449  1  0.786300  0.369100  0.722100  1.0
  H  H450  1  0.713700  0.277900  0.630900  1.0
  H  H451  1  0.213700  0.630900  0.277900  1.0
  H  H452  1  0.286300  0.722100  0.369100  1.0
  H  H453  1  0.853100  0.285800  0.703000  1.0
  H  H454  1  0.646900  0.297000  0.714200  1.0
  H  H455  1  0.146900  0.714200  0.297000  1.0
  H  H456  1  0.353100  0.703000  0.285800  1.0
  H  H457  1  0.064300  0.702100  0.545500  1.0
  H  H458  1  0.435700  0.454500  0.297900  1.0
  H  H459  1  0.935700  0.297900  0.454500  1.0
  H  H460  1  0.564300  0.545500  0.702100  1.0
  H  H461  1  0.049300  0.798500  0.544500  1.0
  H  H462  1  0.450700  0.455500  0.201500  1.0
  H  H463  1  0.950700  0.201500  0.455500  1.0
  H  H464  1  0.549300  0.544500  0.798500  1.0
  H  H465  1  0.103400  0.886400  0.617600  1.0
  H  H466  1  0.396600  0.382400  0.113600  1.0
  H  H467  1  0.896600  0.113600  0.382400  1.0
  H  H468  1  0.603400  0.617600  0.886400  1.0
  H  H469  1  0.138400  0.772100  0.710100  1.0
  H  H470  1  0.361600  0.289900  0.227900  1.0
  H  H471  1  0.861600  0.227900  0.289900  1.0
  H  H472  1  0.638400  0.710100  0.772100  1.0
  H  H473  1  0.091800  0.695100  0.630900  1.0
  H  H474  1  0.408200  0.369100  0.304900  1.0
  H  H475  1  0.908200  0.304900  0.369100  1.0
  H  H476  1  0.591800  0.630900  0.695100  1.0
  H  H477  1  0.094300  0.890033  0.776633  1.0
  H  H478  1  0.405700  0.223367  0.109967  1.0
  H  H479  1  0.905700  0.109967  0.223367  1.0
  H  H480  1  0.594300  0.776633  0.890033  1.0
  H  H481  1  0.282600  0.040500  0.835500  1.0
  H  H482  1  0.217400  0.164500  0.959500  1.0
  H  H483  1  0.717400  0.959500  0.164500  1.0
  H  H484  1  0.782600  0.835500  0.040500  1.0
  H  H485  1  0.158200  0.051800  0.957400  1.0
  H  H486  1  0.341800  0.042600  0.948200  1.0
  H  H487  1  0.841800  0.948200  0.042600  1.0
  H  H488  1  0.658200  0.957400  0.051800  1.0
  H  H489  1  0.110800  0.962400  0.891600  1.0
  H  H490  1  0.389200  0.108400  0.037600  1.0
  H  H491  1  0.889200  0.037600  0.108400  1.0
  H  H492  1  0.610800  0.891600  0.962400  1.0
  H  H493  1  0.328100  0.254800  0.668000  1.0
  H  H494  1  0.171900  0.332000  0.745200  1.0
  H  H495  1  0.671900  0.745200  0.332000  1.0
  H  H496  1  0.828100  0.668000  0.254800  1.0
  H  H497  1  0.342200  0.462900  0.775900  1.0
  H  H498  1  0.157800  0.224100  0.537100  1.0
  H  H499  1  0.657800  0.537100  0.224100  1.0
  H  H500  1  0.842200  0.775900  0.462900  1.0
  H  H501  1  0.249700  0.414800  0.748400  1.0
  H  H502  1  0.250300  0.251600  0.585200  1.0
  H  H503  1  0.750300  0.585200  0.251600  1.0
  H  H504  1  0.749700  0.748400  0.414800  1.0
  H  H505  1  0.459300  0.443900  0.794300  1.0
  H  H506  1  0.040700  0.205700  0.556100  1.0
  H  H507  1  0.540700  0.556100  0.205700  1.0
  H  H508  1  0.959300  0.794300  0.443900  1.0
  H  H509  1  0.570700  0.412100  0.688500  1.0
  H  H510  1  0.929300  0.311500  0.587900  1.0
  H  H511  1  0.429300  0.587900  0.311500  1.0
  H  H512  1  0.070700  0.688500  0.412100  1.0
  H  H513  1  0.672500  0.453100  0.725500  1.0
  H  H514  1  0.827500  0.274500  0.546900  1.0
  H  H515  1  0.327500  0.546900  0.274500  1.0
  H  H516  1  0.172500  0.725500  0.453100  1.0
  H  H517  1  0.712800  0.446500  0.813300  1.0
  H  H518  1  0.787200  0.186700  0.553500  1.0
  H  H519  1  0.287200  0.553500  0.186700  1.0
  H  H520  1  0.212800  0.813300  0.446500  1.0
  H  H521  1  0.656000  0.407700  0.873100  1.0
  H  H522  1  0.844000  0.126900  0.592300  1.0
  H  H523  1  0.344000  0.592300  0.126900  1.0
  H  H524  1  0.156000  0.873100  0.407700  1.0
  H  H525  1  0.554200  0.383300  0.844500  1.0
  H  H526  1  0.945800  0.155500  0.616700  1.0
  H  H527  1  0.445800  0.616700  0.155500  1.0
  H  H528  1  0.054200  0.844500  0.383300  1.0
  N  N529  1  0.285900  0.890970  0.752830  1.0
  N  N530  1  0.214100  0.247170  0.109030  1.0
  N  N531  1  0.714100  0.109030  0.247170  1.0
  N  N532  1  0.785900  0.752830  0.890970  1.0
  N  N533  1  0.307500  0.985900  0.722100  1.0
  N  N534  1  0.192500  0.277900  0.014100  1.0
  N  N535  1  0.692500  0.014100  0.277900  1.0
  N  N536  1  0.807500  0.722100  0.985900  1.0
  N  N537  1  0.425300  0.200200  0.670200  1.0
  N  N538  1  0.074700  0.329800  0.799800  1.0
  N  N539  1  0.574700  0.799800  0.329800  1.0
  N  N540  1  0.925300  0.670200  0.200200  1.0
  N  N541  1  0.459800  0.280300  0.622900  1.0
  N  N542  1  0.040200  0.377100  0.719700  1.0
  N  N543  1  0.540200  0.719700  0.377100  1.0
  N  N544  1  0.959800  0.622900  0.280300  1.0
  N  N545  1  0.246800  0.895500  0.630700  1.0
  N  N546  1  0.253200  0.369300  0.104500  1.0
  N  N547  1  0.753200  0.104500  0.369300  1.0
  N  N548  1  0.746800  0.630700  0.895500  1.0
  N  N549  1  0.183000  0.986110  0.679890  1.0
  N  N550  1  0.317000  0.320110  0.013890  1.0
  N  N551  1  0.817000  0.013890  0.320110  1.0
  N  N552  1  0.683000  0.679890  0.986110  1.0
  N  N553  1  0.037900  0.208400  0.720400  1.0
  N  N554  1  0.462100  0.279600  0.791600  1.0
  N  N555  1  0.962100  0.791600  0.279600  1.0
  N  N556  1  0.537900  0.720400  0.208400  1.0
  N  N557  1  0.959400  0.287700  0.751700  1.0
  N  N558  1  0.540600  0.248300  0.712300  1.0
  N  N559  1  0.040600  0.712300  0.248300  1.0
  N  N560  1  0.459400  0.751700  0.287700  1.0
  N  N561  1  0.157500  0.888000  0.719400  1.0
  N  N562  1  0.342500  0.280600  0.112000  1.0
  N  N563  1  0.842500  0.112000  0.280600  1.0
  N  N564  1  0.657500  0.719400  0.888000  1.0
  N  N565  1  0.211000  0.980200  0.800400  1.0
  N  N566  1  0.289000  0.199600  0.019800  1.0
  N  N567  1  0.789000  0.019800  0.199600  1.0
  N  N568  1  0.711000  0.800400  0.980200  1.0
  N  N569  1  0.385500  0.322500  0.715900  1.0
  N  N570  1  0.114500  0.284100  0.677500  1.0
  N  N571  1  0.614500  0.677500  0.284100  1.0
  N  N572  1  0.885500  0.715900  0.322500  1.0
  N  N573  1  0.492100  0.370400  0.748000  1.0
  N  N574  1  0.007900  0.252000  0.629600  1.0
  N  N575  1  0.507900  0.629600  0.252000  1.0
  N  N576  1  0.992100  0.748000  0.370400  1.0
