# generated using pymatgen
data_CoH81C75N3O4
_symmetry_space_group_name_H-M   'P 1'
_cell_length_a   16.93400000
_cell_length_b   20.72000000
_cell_length_c   25.27400000
_cell_angle_alpha   90.00000000
_cell_angle_beta   90.00000000
_cell_angle_gamma   90.00000000
_symmetry_Int_Tables_number   1
_chemical_formula_structural   CoH81C75N3O4
_chemical_formula_sum   'Co4 H324 C300 N12 O16'
_cell_volume   8867.95105952
_cell_formula_units_Z   4
loop_
 _symmetry_equiv_pos_site_id
 _symmetry_equiv_pos_as_xyz
  1  'x, y, z'
loop_
 _atom_site_type_symbol
 _atom_site_label
 _atom_site_symmetry_multiplicity
 _atom_site_fract_x
 _atom_site_fract_y
 _atom_site_fract_z
 _atom_site_occupancy
  Co  Co1  1  0.882240  0.750000  0.000000  1
  Co  Co2  1  0.117760  0.250000  0.000000  1
  Co  Co3  1  0.577800  0.750000  0.000000  1
  Co  Co4  1  0.422200  0.250000  0.000000  1
  H  H5  1  0.809000  0.860500  0.720900  1
  H  H6  1  0.191000  0.360500  0.279100  1
  H  H7  1  0.809000  0.639500  0.279100  1
  H  H8  1  0.191000  0.139500  0.720900  1
  H  H9  1  0.719200  0.841700  0.723700  1
  H  H10  1  0.280800  0.341700  0.276300  1
  H  H11  1  0.719200  0.658300  0.276300  1
  H  H12  1  0.280800  0.158300  0.723700  1
  H  H13  1  0.690500  0.918300  0.676900  1
  H  H14  1  0.309500  0.418300  0.323100  1
  H  H15  1  0.690500  0.581700  0.323100  1
  H  H16  1  0.309500  0.081700  0.676900  1
  H  H17  1  0.783000  0.937200  0.673700  1
  H  H18  1  0.217000  0.437200  0.326300  1
  H  H19  1  0.783000  0.562800  0.326300  1
  H  H20  1  0.217000  0.062800  0.673700  1
  H  H21  1  0.673700  0.980800  0.745400  1
  H  H22  1  0.326300  0.480800  0.254600  1
  H  H23  1  0.673700  0.519200  0.254600  1
  H  H24  1  0.326300  0.019200  0.745400  1
  H  H25  1  0.759400  0.008200  0.736100  1
  H  H26  1  0.240600  0.508200  0.263900  1
  H  H27  1  0.759400  0.491800  0.263900  1
  H  H28  1  0.240600  0.991800  0.736100  1
  H  H29  1  0.808200  0.958900  0.815300  1
  H  H30  1  0.191800  0.458900  0.184700  1
  H  H31  1  0.808200  0.541100  0.184700  1
  H  H32  1  0.191800  0.041100  0.815300  1
  H  H33  1  0.716500  0.950500  0.831200  1
  H  H34  1  0.283500  0.450500  0.168800  1
  H  H35  1  0.716500  0.549500  0.168800  1
  H  H36  1  0.283500  0.049500  0.831200  1
  H  H37  1  0.475100  0.883300  0.937700  1
  H  H38  1  0.524900  0.383300  0.062300  1
  H  H39  1  0.475100  0.616700  0.062300  1
  H  H40  1  0.524900  0.116700  0.937700  1
  H  H41  1  0.420100  0.824700  0.956500  1
  H  H42  1  0.579900  0.324700  0.043500  1
  H  H43  1  0.420100  0.675300  0.043500  1
  H  H44  1  0.579900  0.175300  0.956500  1
  H  H45  1  0.349600  0.832700  0.897200  1
  H  H46  1  0.650400  0.332700  0.102800  1
  H  H47  1  0.349600  0.667300  0.102800  1
  H  H48  1  0.650400  0.167300  0.897200  1
  H  H49  1  0.433100  0.846900  0.871900  1
  H  H50  1  0.566900  0.346900  0.128100  1
  H  H51  1  0.433100  0.653100  0.128100  1
  H  H52  1  0.566900  0.153100  0.871900  1
  H  H53  1  0.399500  0.952100  0.850400  1
  H  H54  1  0.600500  0.452100  0.149600  1
  H  H55  1  0.399500  0.547900  0.149600  1
  H  H56  1  0.600500  0.047900  0.850400  1
  H  H57  1  0.311100  0.924500  0.853100  1
  H  H58  1  0.688900  0.424500  0.146900  1
  H  H59  1  0.311100  0.575500  0.146900  1
  H  H60  1  0.688900  0.075500  0.853100  1
  H  H61  1  0.294800  0.975600  0.921900  1
  H  H62  1  0.705200  0.475600  0.078100  1
  H  H63  1  0.294800  0.524400  0.078100  1
  H  H64  1  0.705200  0.024400  0.921900  1
  H  H65  1  0.384900  0.997800  0.921800  1
  H  H66  1  0.615100  0.497800  0.078200  1
  H  H67  1  0.384900  0.502200  0.078200  1
  H  H68  1  0.615100  0.002200  0.921800  1
  H  H69  1  0.824500  0.837200  0.876300  1.0
  H  H70  1  0.175500  0.337200  0.123700  1.0
  H  H71  1  0.824500  0.662800  0.123700  1.0
  H  H72  1  0.175500  0.162800  0.876300  1.0
  H  H73  1  0.883200  0.807400  0.801700  1.0
  H  H74  1  0.116800  0.307400  0.198300  1.0
  H  H75  1  0.883200  0.692600  0.198300  1.0
  H  H76  1  0.116800  0.192600  0.801700  1.0
  H  H77  1  0.055000  0.680400  0.794400  1.0
  H  H78  1  0.945000  0.180400  0.205600  1.0
  H  H79  1  0.055000  0.819600  0.205600  1.0
  H  H80  1  0.945000  0.319600  0.794400  1.0
  H  H81  1  0.059600  0.555500  0.936700  1.0
  H  H82  1  0.940400  0.055500  0.063300  1.0
  H  H83  1  0.059600  0.944500  0.063300  1.0
  H  H84  1  0.940400  0.444500  0.936700  1.0
  H  H85  1  0.994600  0.564400  0.892200  1.0
  H  H86  1  0.005400  0.064400  0.107800  1.0
  H  H87  1  0.994600  0.935600  0.107800  1.0
  H  H88  1  0.005400  0.435600  0.892200  1.0
  H  H89  1  0.988500  0.603900  0.945700  1.0
  H  H90  1  0.011500  0.103900  0.054300  1.0
  H  H91  1  0.988500  0.896100  0.054300  1.0
  H  H92  1  0.011500  0.396100  0.945700  1.0
  H  H93  1  0.154200  0.646600  0.954800  1.0
  H  H94  1  0.845800  0.146600  0.045200  1.0
  H  H95  1  0.154200  0.853400  0.045200  1.0
  H  H96  1  0.845800  0.353400  0.954800  1.0
  H  H97  1  0.080200  0.692100  0.963800  1.0
  H  H98  1  0.919800  0.192100  0.036200  1.0
  H  H99  1  0.080200  0.807900  0.036200  1.0
  H  H100  1  0.919800  0.307900  0.963800  1.0
  H  H101  1  0.146100  0.711700  0.922400  1.0
  H  H102  1  0.853900  0.211700  0.077600  1.0
  H  H103  1  0.146100  0.788300  0.077600  1.0
  H  H104  1  0.853900  0.288300  0.922400  1.0
  H  H105  1  0.162400  0.578200  0.874300  1.0
  H  H106  1  0.837600  0.078200  0.125700  1.0
  H  H107  1  0.162400  0.921800  0.125700  1.0
  H  H108  1  0.837600  0.421800  0.874300  1.0
  H  H109  1  0.157900  0.639300  0.836800  1.0
  H  H110  1  0.842100  0.139300  0.163200  1.0
  H  H111  1  0.157900  0.860700  0.163200  1.0
  H  H112  1  0.842100  0.360700  0.836800  1.0
  H  H113  1  0.095600  0.582800  0.830600  1.0
  H  H114  1  0.904400  0.082800  0.169400  1.0
  H  H115  1  0.095600  0.917200  0.169400  1.0
  H  H116  1  0.904400  0.417200  0.830600  1.0
  H  H117  1  0.098400  0.780800  0.622600  1.0
  H  H118  1  0.901600  0.280800  0.377400  1.0
  H  H119  1  0.098400  0.719200  0.377400  1.0
  H  H120  1  0.901600  0.219200  0.622600  1.0
  H  H121  1  0.101600  0.821100  0.538300  1.0
  H  H122  1  0.898400  0.321100  0.461700  1.0
  H  H123  1  0.101600  0.678900  0.461700  1.0
  H  H124  1  0.898400  0.178900  0.538300  1.0
  H  H125  1  0.863200  0.790100  0.620500  1.0
  H  H126  1  0.136800  0.290100  0.379500  1.0
  H  H127  1  0.863200  0.709900  0.379500  1.0
  H  H128  1  0.136800  0.209900  0.620500  1.0
  H  H129  1  0.038900  0.842000  0.453200  1.0
  H  H130  1  0.961100  0.342000  0.546800  1.0
  H  H131  1  0.038900  0.658000  0.546800  1.0
  H  H132  1  0.961100  0.158000  0.453200  1.0
  H  H133  1  0.926400  0.871800  0.407700  1.0
  H  H134  1  0.073600  0.371800  0.592300  1.0
  H  H135  1  0.926400  0.628200  0.592300  1.0
  H  H136  1  0.073600  0.128200  0.407700  1.0
  H  H137  1  0.626500  0.881000  0.403400  1.0
  H  H138  1  0.373500  0.381000  0.596600  1.0
  H  H139  1  0.626500  0.619000  0.596600  1.0
  H  H140  1  0.373500  0.119000  0.403400  1.0
  H  H141  1  0.511400  0.855800  0.446100  1.0
  H  H142  1  0.488600  0.355800  0.553900  1.0
  H  H143  1  0.511400  0.644200  0.553900  1.0
  H  H144  1  0.488600  0.144200  0.446100  1.0
  H  H145  1  0.439200  0.828700  0.525100  1.0
  H  H146  1  0.560800  0.328700  0.474900  1.0
  H  H147  1  0.439200  0.671300  0.474900  1.0
  H  H148  1  0.560800  0.171300  0.525100  1.0
  H  H149  1  0.433800  0.794800  0.615900  1.0
  H  H150  1  0.566200  0.294800  0.384100  1.0
  H  H151  1  0.433800  0.705200  0.384100  1.0
  H  H152  1  0.566200  0.205200  0.615900  1.0
  H  H153  1  0.671300  0.799700  0.619600  1.0
  H  H154  1  0.328700  0.299700  0.380400  1.0
  H  H155  1  0.671300  0.700300  0.380400  1.0
  H  H156  1  0.328700  0.200300  0.619600  1.0
  H  H157  1  0.456900  0.696200  0.775300  1.0
  H  H158  1  0.543100  0.196200  0.224700  1.0
  H  H159  1  0.456900  0.803800  0.224700  1.0
  H  H160  1  0.543100  0.303800  0.775300  1.0
  H  H161  1  0.631200  0.818100  0.807600  1.0
  H  H162  1  0.368800  0.318100  0.192400  1.0
  H  H163  1  0.631200  0.681900  0.192400  1.0
  H  H164  1  0.368800  0.181900  0.807600  1.0
  H  H165  1  0.678100  0.838200  0.891300  1.0
  H  H166  1  0.321900  0.338200  0.108700  1.0
  H  H167  1  0.678100  0.661800  0.108700  1.0
  H  H168  1  0.321900  0.161800  0.891300  1.0
  H  H169  1  0.388000  0.691300  0.943400  1.0
  H  H170  1  0.612000  0.191300  0.056600  1.0
  H  H171  1  0.388000  0.808700  0.056600  1.0
  H  H172  1  0.612000  0.308700  0.943400  1.0
  H  H173  1  0.322400  0.643100  0.922600  1.0
  H  H174  1  0.677600  0.143100  0.077400  1.0
  H  H175  1  0.322400  0.856900  0.077400  1.0
  H  H176  1  0.677600  0.356900  0.922600  1.0
  H  H177  1  0.332000  0.711900  0.896200  1.0
  H  H178  1  0.668000  0.211900  0.103800  1.0
  H  H179  1  0.332000  0.788100  0.103800  1.0
  H  H180  1  0.668000  0.288100  0.896200  1.0
  H  H181  1  0.503100  0.574000  0.871000  1.0
  H  H182  1  0.496900  0.074000  0.129000  1.0
  H  H183  1  0.503100  0.926000  0.129000  1.0
  H  H184  1  0.496900  0.426000  0.871000  1.0
  H  H185  1  0.427200  0.557000  0.904900  1.0
  H  H186  1  0.572800  0.057000  0.095100  1.0
  H  H187  1  0.427200  0.943000  0.095100  1.0
  H  H188  1  0.572800  0.443000  0.904900  1.0
  H  H189  1  0.491500  0.605100  0.927700  1.0
  H  H190  1  0.508500  0.105100  0.072300  1.0
  H  H191  1  0.491500  0.894900  0.072300  1.0
  H  H192  1  0.508500  0.394900  0.927700  1.0
  H  H193  1  0.410600  0.602400  0.798200  1.0
  H  H194  1  0.589400  0.102400  0.201800  1.0
  H  H195  1  0.410600  0.897600  0.201800  1.0
  H  H196  1  0.589400  0.397600  0.798200  1.0
  H  H197  1  0.345000  0.655700  0.807500  1.0
  H  H198  1  0.655000  0.155700  0.192500  1.0
  H  H199  1  0.345000  0.844300  0.192500  1.0
  H  H200  1  0.655000  0.344300  0.807500  1.0
  H  H201  1  0.338100  0.587700  0.835800  1.0
  H  H202  1  0.661900  0.087700  0.164200  1.0
  H  H203  1  0.338100  0.912300  0.164200  1.0
  H  H204  1  0.661900  0.412300  0.835800  1.0
  H  H205  1  0.715200  0.820500  0.024200  1.0
  H  H206  1  0.284800  0.320500  0.975800  1.0
  H  H207  1  0.715200  0.679500  0.975800  1.0
  H  H208  1  0.284800  0.179500  0.024200  1.0
  H  H209  1  0.604800  0.890600  0.023900  1.0
  H  H210  1  0.395200  0.390600  0.976100  1.0
  H  H211  1  0.604800  0.609400  0.976100  1.0
  H  H212  1  0.395200  0.109400  0.023900  1.0
  H  H213  1  0.642400  0.930000  0.976100  1.0
  H  H214  1  0.357600  0.430000  0.023900  1.0
  H  H215  1  0.642400  0.570000  0.023900  1.0
  H  H216  1  0.357600  0.070000  0.976100  1.0
  H  H217  1  0.674700  0.983800  0.059900  1.0
  H  H218  1  0.325300  0.483800  0.940100  1.0
  H  H219  1  0.674700  0.516200  0.940100  1.0
  H  H220  1  0.325300  0.016200  0.059900  1.0
  H  H221  1  0.717800  0.920000  0.079800  1.0
  H  H222  1  0.282200  0.420000  0.920200  1.0
  H  H223  1  0.717800  0.580000  0.920200  1.0
  H  H224  1  0.282200  0.080000  0.079800  1.0
  H  H225  1  0.811000  0.994100  0.044900  1.0
  H  H226  1  0.189000  0.494100  0.955100  1.0
  H  H227  1  0.811000  0.505900  0.955100  1.0
  H  H228  1  0.189000  0.005900  0.044900  1.0
  H  H229  1  0.766400  0.992600  0.989700  1.0
  H  H230  1  0.233600  0.492600  0.010300  1.0
  H  H231  1  0.766400  0.507400  0.010300  1.0
  H  H232  1  0.233600  0.007400  0.989700  1.0
  H  H233  1  0.843000  0.881900  0.035200  1.0
  H  H234  1  0.157000  0.381900  0.964800  1.0
  H  H235  1  0.843000  0.618100  0.964800  1.0
  H  H236  1  0.157000  0.118100  0.035200  1.0
  H  H237  1  0.878400  0.922100  0.987300  1.0
  H  H238  1  0.121600  0.422100  0.012700  1.0
  H  H239  1  0.878400  0.577900  0.012700  1.0
  H  H240  1  0.121600  0.077900  0.987300  1.0
  H  H241  1  0.769000  0.892200  0.932900  1.0
  H  H242  1  0.231000  0.392200  0.067100  1.0
  H  H243  1  0.769000  0.607800  0.067100  1.0
  H  H244  1  0.231000  0.107800  0.932900  1.0
  H  H245  1  0.753400  0.826100  0.340100  1.0
  H  H246  1  0.246600  0.326100  0.659900  1.0
  H  H247  1  0.753400  0.673900  0.659900  1.0
  H  H248  1  0.246600  0.173900  0.340100  1.0
  H  H249  1  0.775100  0.992000  0.260900  1.0
  H  H250  1  0.224900  0.492000  0.739100  1.0
  H  H251  1  0.775100  0.508000  0.739100  1.0
  H  H252  1  0.224900  0.008000  0.260900  1.0
  H  H253  1  0.794100  0.988400  0.422800  1.0
  H  H254  1  0.205900  0.488400  0.577200  1.0
  H  H255  1  0.794100  0.511600  0.577200  1.0
  H  H256  1  0.205900  0.011600  0.422800  1.0
  H  H257  1  0.825100  0.934700  0.197400  1.0
  H  H258  1  0.174900  0.434700  0.802600  1.0
  H  H259  1  0.825100  0.565300  0.802600  1.0
  H  H260  1  0.174900  0.065300  0.197400  1.0
  H  H261  1  0.814300  0.868600  0.166800  1.0
  H  H262  1  0.185700  0.368600  0.833200  1.0
  H  H263  1  0.814300  0.631400  0.833200  1.0
  H  H264  1  0.185700  0.131400  0.166800  1.0
  H  H265  1  0.871800  0.872500  0.216100  1.0
  H  H266  1  0.128200  0.372500  0.783900  1.0
  H  H267  1  0.871800  0.627500  0.783900  1.0
  H  H268  1  0.128200  0.127500  0.216100  1.0
  H  H269  1  0.667700  0.938300  0.214900  1.0
  H  H270  1  0.332300  0.438300  0.785100  1.0
  H  H271  1  0.667700  0.561700  0.785100  1.0
  H  H272  1  0.332300  0.061700  0.214900  1.0
  H  H273  1  0.628500  0.878700  0.244000  1.0
  H  H274  1  0.371500  0.378700  0.756000  1.0
  H  H275  1  0.628500  0.621300  0.756000  1.0
  H  H276  1  0.371500  0.121300  0.244000  1.0
  H  H277  1  0.657800  0.871800  0.184800  1.0
  H  H278  1  0.342200  0.371800  0.815200  1.0
  H  H279  1  0.657800  0.628200  0.815200  1.0
  H  H280  1  0.342200  0.128200  0.184800  1.0
  H  H281  1  0.704000  0.782600  0.266600  1.0
  H  H282  1  0.296000  0.282600  0.733400  1.0
  H  H283  1  0.704000  0.717400  0.733400  1.0
  H  H284  1  0.296000  0.217400  0.266600  1.0
  H  H285  1  0.796100  0.777500  0.256500  1.0
  H  H286  1  0.203900  0.277500  0.743500  1.0
  H  H287  1  0.796100  0.722500  0.743500  1.0
  H  H288  1  0.203900  0.222500  0.256500  1.0
  H  H289  1  0.736800  0.776600  0.208100  1.0
  H  H290  1  0.263200  0.276600  0.791900  1.0
  H  H291  1  0.736800  0.723400  0.791900  1.0
  H  H292  1  0.263200  0.223400  0.208100  1.0
  H  H293  1  0.851400  0.098400  0.260700  1.0
  H  H294  1  0.148600  0.598400  0.739300  1.0
  H  H295  1  0.851400  0.401600  0.739300  1.0
  H  H296  1  0.148600  0.901600  0.260700  1.0
  H  H297  1  0.806600  0.148600  0.297200  1.0
  H  H298  1  0.193400  0.648600  0.702800  1.0
  H  H299  1  0.806600  0.351400  0.702800  1.0
  H  H300  1  0.193400  0.851400  0.297200  1.0
  H  H301  1  0.764400  0.083500  0.280300  1.0
  H  H302  1  0.235600  0.583500  0.719700  1.0
  H  H303  1  0.764400  0.416500  0.719700  1.0
  H  H304  1  0.235600  0.916500  0.280300  1.0
  H  H305  1  0.797500  0.150400  0.377300  1.0
  H  H306  1  0.202500  0.650400  0.622700  1.0
  H  H307  1  0.797500  0.349600  0.622700  1.0
  H  H308  1  0.202500  0.849600  0.377300  1.0
  H  H309  1  0.795500  0.087100  0.412300  1.0
  H  H310  1  0.204500  0.587100  0.587700  1.0
  H  H311  1  0.795500  0.412900  0.587700  1.0
  H  H312  1  0.204500  0.912900  0.412300  1.0
  H  H313  1  0.733900  0.096200  0.365700  1.0
  H  H314  1  0.266100  0.596200  0.634300  1.0
  H  H315  1  0.733900  0.403800  0.634300  1.0
  H  H316  1  0.266100  0.903800  0.365700  1.0
  H  H317  1  0.967100  0.044200  0.346700  1.0
  H  H318  1  0.032900  0.544200  0.653300  1.0
  H  H319  1  0.967100  0.455800  0.653300  1.0
  H  H320  1  0.032900  0.955800  0.346700  1.0
  H  H321  1  0.918800  0.035200  0.399900  1.0
  H  H322  1  0.081200  0.535200  0.600100  1.0
  H  H323  1  0.918800  0.464800  0.600100  1.0
  H  H324  1  0.081200  0.964800  0.399900  1.0
  H  H325  1  0.944800  0.105100  0.381500  1.0
  H  H326  1  0.055200  0.605100  0.618500  1.0
  H  H327  1  0.944800  0.394900  0.618500  1.0
  H  H328  1  0.055200  0.894900  0.381500  1.0
  C  C329  1  0.756700  0.876600  0.731000  1
  C  C330  1  0.243300  0.376600  0.269000  1
  C  C331  1  0.756700  0.623400  0.269000  1
  C  C332  1  0.243300  0.123400  0.731000  1
  C  C333  1  0.739000  0.925200  0.697100  1
  C  C334  1  0.261000  0.425200  0.302900  1
  C  C335  1  0.739000  0.574800  0.302900  1
  C  C336  1  0.261000  0.074800  0.697100  1
  C  C337  1  0.730000  0.968700  0.743500  1
  C  C338  1  0.270000  0.468700  0.256500  1
  C  C339  1  0.730000  0.531300  0.256500  1
  C  C340  1  0.270000  0.031300  0.743500  1
  C  C341  1  0.756000  0.942900  0.803900  1
  C  C342  1  0.244000  0.442900  0.196100  1
  C  C343  1  0.756000  0.557100  0.196100  1
  C  C344  1  0.244000  0.057100  0.803900  1
  C  C345  1  0.421000  0.867000  0.938500  1
  C  C346  1  0.579000  0.367000  0.061500  1
  C  C347  1  0.421000  0.633000  0.061500  1
  C  C348  1  0.579000  0.133000  0.938500  1
  C  C349  1  0.393000  0.864000  0.896200  1
  C  C350  1  0.607000  0.364000  0.103800  1
  C  C351  1  0.393000  0.636000  0.103800  1
  C  C352  1  0.607000  0.136000  0.896200  1
  C  C353  1  0.360000  0.930300  0.872700  1
  C  C354  1  0.640000  0.430300  0.127300  1
  C  C355  1  0.360000  0.569700  0.127300  1
  C  C356  1  0.640000  0.069700  0.872700  1
  C  C357  1  0.349000  0.960600  0.918700  1
  C  C358  1  0.651000  0.460600  0.081300  1
  C  C359  1  0.349000  0.539400  0.081300  1
  C  C360  1  0.651000  0.039400  0.918700  1
  C  C361  1  0.850900  0.807900  0.898500  1.0
  C  C362  1  0.149100  0.307900  0.101500  1.0
  C  C363  1  0.850900  0.692100  0.101500  1.0
  C  C364  1  0.149100  0.192100  0.898500  1.0
  C  C365  1  0.906800  0.767800  0.873500  1.0
  C  C366  1  0.093200  0.267800  0.126500  1.0
  C  C367  1  0.906800  0.732200  0.126500  1.0
  C  C368  1  0.093200  0.232200  0.873500  1.0
  C  C369  1  0.916600  0.777600  0.818600  1.0
  C  C370  1  0.083400  0.277600  0.181400  1.0
  C  C371  1  0.916600  0.722400  0.181400  1.0
  C  C372  1  0.083400  0.222400  0.818600  1.0
  C  C373  1  0.971300  0.746600  0.788900  1.0
  C  C374  1  0.028700  0.246600  0.211100  1.0
  C  C375  1  0.971300  0.753400  0.211100  1.0
  C  C376  1  0.028700  0.253400  0.788900  1.0
  C  C377  1  0.017400  0.702900  0.814600  1.0
  C  C378  1  0.982600  0.202900  0.185400  1.0
  C  C379  1  0.017400  0.797100  0.185400  1.0
  C  C380  1  0.982600  0.297100  0.814600  1.0
  C  C381  1  0.013200  0.689100  0.868100  1.0
  C  C382  1  0.986800  0.189100  0.131900  1.0
  C  C383  1  0.013200  0.810900  0.131900  1.0
  C  C384  1  0.986800  0.310900  0.868100  1.0
  C  C385  1  0.954600  0.720900  0.899200  1.0
  C  C386  1  0.045400  0.220900  0.100800  1.0
  C  C387  1  0.954600  0.779100  0.100800  1.0
  C  C388  1  0.045400  0.279100  0.899200  1.0
  C  C389  1  0.073200  0.640600  0.895100  1.0
  C  C390  1  0.926800  0.140600  0.104900  1.0
  C  C391  1  0.073200  0.859400  0.104900  1.0
  C  C392  1  0.926800  0.359400  0.895100  1.0
  C  C393  1  0.024500  0.586100  0.919700  1.0
  C  C394  1  0.975500  0.086100  0.080300  1.0
  C  C395  1  0.024500  0.913900  0.080300  1.0
  C  C396  1  0.975500  0.413900  0.919700  1.0
  C  C397  1  0.117300  0.675900  0.937800  1.0
  C  C398  1  0.882700  0.175900  0.062200  1.0
  C  C399  1  0.117300  0.824100  0.062200  1.0
  C  C400  1  0.882700  0.324100  0.937800  1.0
  C  C401  1  0.127200  0.607200  0.855600  1.0
  C  C402  1  0.872800  0.107200  0.144400  1.0
  C  C403  1  0.127200  0.892800  0.144400  1.0
  C  C404  1  0.872800  0.392800  0.855600  1.0
  C  C405  1  0.973900  0.756600  0.732100  1.0
  C  C406  1  0.026100  0.256600  0.267900  1.0
  C  C407  1  0.973900  0.743400  0.267900  1.0
  C  C408  1  0.026100  0.243400  0.732100  1.0
  C  C409  1  0.974300  0.768800  0.686400  1.0
  C  C410  1  0.025700  0.268800  0.313600  1.0
  C  C411  1  0.974300  0.731200  0.313600  1.0
  C  C412  1  0.025700  0.231200  0.686400  1.0
  C  C413  1  0.977700  0.785800  0.630300  1.0
  C  C414  1  0.022300  0.285800  0.369700  1.0
  C  C415  1  0.977700  0.714200  0.369700  1.0
  C  C416  1  0.022300  0.214200  0.630300  1.0
  C  C417  1  0.051400  0.791900  0.605100  1.0
  C  C418  1  0.948600  0.291900  0.394900  1.0
  C  C419  1  0.051400  0.708100  0.394900  1.0
  C  C420  1  0.948600  0.208100  0.605100  1.0
  C  C421  1  0.052400  0.814100  0.554600  1.0
  C  C422  1  0.947600  0.314100  0.445400  1.0
  C  C423  1  0.052400  0.685900  0.445400  1.0
  C  C424  1  0.947600  0.185900  0.554600  1.0
  C  C425  1  0.983200  0.827200  0.525500  1.0
  C  C426  1  0.016800  0.327200  0.474500  1.0
  C  C427  1  0.983200  0.672800  0.474500  1.0
  C  C428  1  0.016800  0.172800  0.525500  1.0
  C  C429  1  0.911600  0.817300  0.548800  1.0
  C  C430  1  0.088400  0.317300  0.451200  1.0
  C  C431  1  0.911600  0.682700  0.451200  1.0
  C  C432  1  0.088400  0.182700  0.548800  1.0
  C  C433  1  0.911800  0.796400  0.603400  1.0
  C  C434  1  0.088200  0.296400  0.396600  1.0
  C  C435  1  0.911800  0.703600  0.396600  1.0
  C  C436  1  0.088200  0.203600  0.603400  1.0
  C  C437  1  0.989600  0.842400  0.470300  1.0
  C  C438  1  0.010400  0.342400  0.529700  1.0
  C  C439  1  0.989600  0.657600  0.529700  1.0
  C  C440  1  0.010400  0.157600  0.470300  1.0
  C  C441  1  0.921900  0.857500  0.442900  1.0
  C  C442  1  0.078100  0.357500  0.557100  1.0
  C  C443  1  0.921900  0.642500  0.557100  1.0
  C  C444  1  0.078100  0.142500  0.442900  1.0
  C  C445  1  0.848600  0.852500  0.464900  1.0
  C  C446  1  0.151400  0.352500  0.535100  1.0
  C  C447  1  0.848600  0.647500  0.535100  1.0
  C  C448  1  0.151400  0.147500  0.464900  1.0
  C  C449  1  0.840200  0.830700  0.520900  1.0
  C  C450  1  0.159800  0.330700  0.479100  1.0
  C  C451  1  0.840200  0.669300  0.479100  1.0
  C  C452  1  0.159800  0.169300  0.520900  1.0
  C  C453  1  0.775400  0.864500  0.438900  1.0
  C  C454  1  0.224600  0.364500  0.561100  1.0
  C  C455  1  0.775400  0.635500  0.561100  1.0
  C  C456  1  0.224600  0.135500  0.438900  1.0
  C  C457  1  0.706000  0.853900  0.464300  1.0
  C  C458  1  0.294000  0.353900  0.535700  1.0
  C  C459  1  0.706000  0.646100  0.535700  1.0
  C  C460  1  0.294000  0.146100  0.464300  1.0
  C  C461  1  0.704100  0.833700  0.518700  1.0
  C  C462  1  0.295900  0.333700  0.481300  1.0
  C  C463  1  0.704100  0.666300  0.481300  1.0
  C  C464  1  0.295900  0.166300  0.518700  1.0
  C  C465  1  0.628200  0.864800  0.438100  1.0
  C  C466  1  0.371800  0.364800  0.561900  1.0
  C  C467  1  0.628200  0.635200  0.561900  1.0
  C  C468  1  0.371800  0.135200  0.438100  1.0
  C  C469  1  0.559600  0.851200  0.464100  1.0
  C  C470  1  0.440400  0.351200  0.535900  1.0
  C  C471  1  0.559600  0.648800  0.535900  1.0
  C  C472  1  0.440400  0.148800  0.464100  1.0
  C  C473  1  0.558900  0.830500  0.517400  1.0
  C  C474  1  0.441100  0.330500  0.482600  1.0
  C  C475  1  0.558900  0.669500  0.482600  1.0
  C  C476  1  0.441100  0.169500  0.517400  1.0
  C  C477  1  0.629900  0.821100  0.544400  1.0
  C  C478  1  0.370100  0.321100  0.455600  1.0
  C  C479  1  0.629900  0.678900  0.455600  1.0
  C  C480  1  0.370100  0.178900  0.544400  1.0
  C  C481  1  0.486400  0.822000  0.543900  1.0
  C  C482  1  0.513600  0.322000  0.456100  1.0
  C  C483  1  0.486400  0.678000  0.456100  1.0
  C  C484  1  0.513600  0.178000  0.543900  1.0
  C  C485  1  0.482100  0.803400  0.599000  1.0
  C  C486  1  0.517900  0.303400  0.401000  1.0
  C  C487  1  0.482100  0.696600  0.401000  1.0
  C  C488  1  0.517900  0.196600  0.599000  1.0
  C  C489  1  0.556300  0.798800  0.626200  1.0
  C  C490  1  0.443700  0.298800  0.373800  1.0
  C  C491  1  0.556300  0.701200  0.373800  1.0
  C  C492  1  0.443700  0.201200  0.626200  1.0
  C  C493  1  0.624100  0.805400  0.600500  1.0
  C  C494  1  0.375900  0.305400  0.399500  1.0
  C  C495  1  0.624100  0.694600  0.399500  1.0
  C  C496  1  0.375900  0.194600  0.600500  1.0
  C  C497  1  0.553800  0.784000  0.679800  1.0
  C  C498  1  0.446200  0.284000  0.320200  1.0
  C  C499  1  0.553800  0.716000  0.320200  1.0
  C  C500  1  0.446200  0.216000  0.679800  1.0
  C  C501  1  0.550200  0.774500  0.727900  1.0
  C  C502  1  0.449800  0.274500  0.272100  1.0
  C  C503  1  0.550200  0.725500  0.272100  1.0
  C  C504  1  0.449800  0.225500  0.727900  1.0
  C  C505  1  0.543400  0.761000  0.784000  1.0
  C  C506  1  0.456600  0.261000  0.216000  1.0
  C  C507  1  0.543400  0.739000  0.216000  1.0
  C  C508  1  0.456600  0.239000  0.784000  1.0
  C  C509  1  0.489900  0.716200  0.800400  1.0
  C  C510  1  0.510100  0.216200  0.199600  1.0
  C  C511  1  0.489900  0.783800  0.199600  1.0
  C  C512  1  0.510100  0.283800  0.800400  1.0
  C  C513  1  0.482900  0.698900  0.854800  1.0
  C  C514  1  0.517100  0.198900  0.145200  1.0
  C  C515  1  0.482900  0.801100  0.145200  1.0
  C  C516  1  0.517100  0.301100  0.854800  1.0
  C  C517  1  0.530700  0.729200  0.891300  1.0
  C  C518  1  0.469300  0.229200  0.108700  1.0
  C  C519  1  0.530700  0.770800  0.108700  1.0
  C  C520  1  0.469300  0.270800  0.891300  1.0
  C  C521  1  0.588700  0.774600  0.873200  1.0
  C  C522  1  0.411300  0.274600  0.126800  1.0
  C  C523  1  0.588700  0.725400  0.126800  1.0
  C  C524  1  0.411300  0.225400  0.873200  1.0
  C  C525  1  0.593000  0.788700  0.819600  1.0
  C  C526  1  0.407000  0.288700  0.180400  1.0
  C  C527  1  0.593000  0.711300  0.180400  1.0
  C  C528  1  0.407000  0.211300  0.819600  1.0
  C  C529  1  0.642700  0.809700  0.907900  1.0
  C  C530  1  0.357300  0.309700  0.092100  1.0
  C  C531  1  0.642700  0.690300  0.092100  1.0
  C  C532  1  0.357300  0.190300  0.907900  1.0
  C  C533  1  0.421200  0.646900  0.871200  1.0
  C  C534  1  0.578800  0.146900  0.128800  1.0
  C  C535  1  0.421200  0.853100  0.128800  1.0
  C  C536  1  0.578800  0.353100  0.871200  1.0
  C  C537  1  0.359900  0.676200  0.912400  1.0
  C  C538  1  0.640100  0.176200  0.087600  1.0
  C  C539  1  0.359900  0.823800  0.087600  1.0
  C  C540  1  0.640100  0.323800  0.912400  1.0
  C  C541  1  0.464700  0.590700  0.895900  1.0
  C  C542  1  0.535300  0.090700  0.104100  1.0
  C  C543  1  0.464700  0.909300  0.104100  1.0
  C  C544  1  0.535300  0.409300  0.895900  1.0
  C  C545  1  0.374400  0.620800  0.823800  1.0
  C  C546  1  0.625600  0.120800  0.176200  1.0
  C  C547  1  0.374400  0.879200  0.176200  1.0
  C  C548  1  0.625600  0.379200  0.823800  1.0
  C  C549  1  0.702500  0.845500  0.991900  1.0
  C  C550  1  0.297500  0.345500  0.008100  1.0
  C  C551  1  0.702500  0.654500  0.008100  1.0
  C  C552  1  0.297500  0.154500  0.991900  1.0
  C  C553  1  0.654700  0.904100  0.007500  1.0
  C  C554  1  0.345300  0.404100  0.992500  1.0
  C  C555  1  0.654700  0.595900  0.992500  1.0
  C  C556  1  0.345300  0.095900  0.007500  1.0
  C  C557  1  0.705000  0.945900  0.048500  1.0
  C  C558  1  0.295000  0.445900  0.951500  1.0
  C  C559  1  0.705000  0.554100  0.951500  1.0
  C  C560  1  0.295000  0.054100  0.048500  1.0
  C  C561  1  0.779800  0.966900  0.021000  1.0
  C  C562  1  0.220200  0.466900  0.979000  1.0
  C  C563  1  0.779800  0.533100  0.979000  1.0
  C  C564  1  0.220200  0.033100  0.021000  1.0
  C  C565  1  0.829300  0.907700  0.004100  1.0
  C  C566  1  0.170700  0.407700  0.995900  1.0
  C  C567  1  0.829300  0.592300  0.995900  1.0
  C  C568  1  0.170700  0.092300  0.004100  1.0
  C  C569  1  0.781300  0.866100  0.964600  1.0
  C  C570  1  0.218700  0.366100  0.035400  1.0
  C  C571  1  0.781300  0.633900  0.035400  1.0
  C  C572  1  0.218700  0.133900  0.964600  1.0
  C  C573  1  0.782000  0.898700  0.386900  1.0
  C  C574  1  0.218000  0.398700  0.613100  1.0
  C  C575  1  0.782000  0.601300  0.613100  1.0
  C  C576  1  0.218000  0.101300  0.386900  1.0
  C  C577  1  0.766600  0.870200  0.339800  1.0
  C  C578  1  0.233400  0.370200  0.660200  1.0
  C  C579  1  0.766600  0.629800  0.660200  1.0
  C  C580  1  0.233400  0.129800  0.339800  1.0
  C  C581  1  0.768600  0.900500  0.291600  1.0
  C  C582  1  0.231400  0.400500  0.708400  1.0
  C  C583  1  0.768600  0.599500  0.708400  1.0
  C  C584  1  0.231400  0.099500  0.291600  1.0
  C  C585  1  0.780100  0.968900  0.292800  1.0
  C  C586  1  0.219900  0.468900  0.707200  1.0
  C  C587  1  0.780100  0.531100  0.707200  1.0
  C  C588  1  0.219900  0.031100  0.292800  1.0
  C  C589  1  0.798800  0.004100  0.340000  1.0
  C  C590  1  0.201200  0.504100  0.660000  1.0
  C  C591  1  0.798800  0.495900  0.660000  1.0
  C  C592  1  0.201200  0.995900  0.340000  1.0
  C  C593  1  0.792000  0.967300  0.389900  1.0
  C  C594  1  0.208000  0.467300  0.610100  1.0
  C  C595  1  0.792000  0.532700  0.610100  1.0
  C  C596  1  0.208000  0.032700  0.389900  1.0
  C  C597  1  0.752100  0.869800  0.239100  1.0
  C  C598  1  0.247900  0.369800  0.760900  1.0
  C  C599  1  0.752100  0.630200  0.760900  1.0
  C  C600  1  0.247900  0.130200  0.239100  1.0
  C  C601  1  0.822600  0.888200  0.201200  1.0
  C  C602  1  0.177400  0.388200  0.798800  1.0
  C  C603  1  0.822600  0.611800  0.798800  1.0
  C  C604  1  0.177400  0.111800  0.201200  1.0
  C  C605  1  0.668500  0.891800  0.218800  1.0
  C  C606  1  0.331500  0.391800  0.781200  1.0
  C  C607  1  0.668500  0.608200  0.781200  1.0
  C  C608  1  0.331500  0.108200  0.218800  1.0
  C  C609  1  0.746700  0.794500  0.243000  1.0
  C  C610  1  0.253300  0.294500  0.757000  1.0
  C  C611  1  0.746700  0.705500  0.757000  1.0
  C  C612  1  0.253300  0.205500  0.243000  1.0
  C  C613  1  0.846800  0.070600  0.337500  1.0
  C  C614  1  0.153200  0.570600  0.662500  1.0
  C  C615  1  0.846800  0.429400  0.662500  1.0
  C  C616  1  0.153200  0.929400  0.337500  1.0
  C  C617  1  0.814500  0.103100  0.289800  1.0
  C  C618  1  0.185500  0.603100  0.710200  1.0
  C  C619  1  0.814500  0.396900  0.710200  1.0
  C  C620  1  0.185500  0.896900  0.289800  1.0
  C  C621  1  0.788000  0.104300  0.377000  1.0
  C  C622  1  0.212000  0.604300  0.623000  1.0
  C  C623  1  0.788000  0.395700  0.623000  1.0
  C  C624  1  0.212000  0.895700  0.377000  1.0
  C  C625  1  0.927200  0.063000  0.369500  1.0
  C  C626  1  0.072800  0.563000  0.630500  1.0
  C  C627  1  0.927200  0.437000  0.630500  1.0
  C  C628  1  0.072800  0.937000  0.369500  1.0
  N  N629  1  0.830700  0.809800  0.948900  1.0
  N  N630  1  0.169300  0.309800  0.051100  1.0
  N  N631  1  0.830700  0.690200  0.051100  1.0
  N  N632  1  0.169300  0.190200  0.948900  1.0
  N  N633  1  0.647400  0.806100  0.958000  1.0
  N  N634  1  0.352600  0.306100  0.042000  1.0
  N  N635  1  0.647400  0.693900  0.042000  1.0
  N  N636  1  0.352600  0.193900  0.958000  1.0
  N  N637  1  0.771800  0.821600  0.544800  1.0
  N  N638  1  0.228200  0.321600  0.455200  1.0
  N  N639  1  0.771800  0.678400  0.455200  1.0
  N  N640  1  0.228200  0.178400  0.544800  1.0
  O  O641  1  0.757800  0.885300  0.786800  1
  O  O642  1  0.242200  0.385300  0.213200  1
  O  O643  1  0.757800  0.614700  0.213200  1
  O  O644  1  0.242200  0.114700  0.786800  1
  O  O645  1  0.368000  0.910500  0.961000  1
  O  O646  1  0.632000  0.410500  0.039000  1
  O  O647  1  0.368000  0.589500  0.039000  1
  O  O648  1  0.632000  0.089500  0.961000  1
  O  O649  1  0.946900  0.708200  0.948800  1.0
  O  O650  1  0.053100  0.208200  0.051200  1.0
  O  O651  1  0.946900  0.791800  0.051200  1.0
  O  O652  1  0.053100  0.291800  0.948800  1.0
  O  O653  1  0.526300  0.713000  0.941100  1.0
  O  O654  1  0.473700  0.213000  0.058900  1.0
  O  O655  1  0.526300  0.787000  0.058900  1.0
  O  O656  1  0.473700  0.287000  0.941100  1.0
