# generated using pymatgen
data_CoH57C63(NO2)3
_symmetry_space_group_name_H-M   'P 1'
_cell_length_a   16.70290000
_cell_length_b   20.46810000
_cell_length_c   22.14300000
_cell_angle_alpha   90.00000000
_cell_angle_beta   100.15100000
_cell_angle_gamma   90.00000000
_symmetry_Int_Tables_number   1
_chemical_formula_structural   CoH57C63(NO2)3
_chemical_formula_sum   'Co4 H228 C252 N12 O24'
_cell_volume   7451.67590165
_cell_formula_units_Z   4
loop_
 _symmetry_equiv_pos_site_id
 _symmetry_equiv_pos_as_xyz
  1  'x, y, z'
loop_
 _atom_site_type_symbol
 _atom_site_label
 _atom_site_symmetry_multiplicity
 _atom_site_fract_x
 _atom_site_fract_y
 _atom_site_fract_z
 _atom_site_occupancy
  Co  Co1  1  0.743910  0.130490  0.085210  1
  Co  Co2  1  0.743910  0.869510  0.585210  1
  Co  Co3  1  0.524350  0.368070  0.108570  1
  Co  Co4  1  0.524350  0.631930  0.608570  1
  H  H5  1  0.103100  0.315700  0.493700  1
  H  H6  1  0.103100  0.684300  0.993700  1
  H  H7  1  0.865600  0.219100  0.301700  1
  H  H8  1  0.865600  0.780900  0.801700  1
  H  H9  1  0.718700  0.304600  0.257400  1
  H  H10  1  0.718700  0.695400  0.757400  1
  H  H11  1  0.187600  0.386600  0.948200  1
  H  H12  1  0.187600  0.613400  0.448200  1
  H  H13  1  0.128400  0.262100  0.759100  1
  H  H14  1  0.128400  0.737900  0.259100  1
  H  H15  1  0.735500  0.335500  0.364600  1
  H  H16  1  0.735500  0.664500  0.864600  1
  H  H17  1  0.909100  0.245500  0.532300  1
  H  H18  1  0.909100  0.754500  0.032300  1
  H  H19  1  0.562400  0.980200  0.537400  1
  H  H20  1  0.562400  0.019800  0.037400  1
  H  H21  1  0.205800  0.405700  0.683600  1
  H  H22  1  0.205800  0.594300  0.183600  1
  H  H23  1  0.056100  0.098200  0.505500  1
  H  H24  1  0.056100  0.901800  0.005500  1
  H  H25  1  0.469300  0.135800  0.647900  1
  H  H26  1  0.469300  0.864200  0.147900  1
  H  H27  1  0.615400  0.983900  0.638900  1
  H  H28  1  0.615400  0.016100  0.138900  1
  H  H29  1  0.085800  0.115500  0.243700  1
  H  H30  1  0.085800  0.884500  0.743700  1
  H  H31  1  0.920600  0.440800  0.787900  1
  H  H32  1  0.920600  0.559200  0.287900  1
  H  H33  1  0.351100  0.253400  0.668800  1
  H  H34  1  0.351100  0.746600  0.168800  1
  H  H35  1  0.934300  0.099500  0.117900  1
  H  H36  1  0.934300  0.900500  0.617900  1
  H  H37  1  0.966800  0.107000  0.056100  1
  H  H38  1  0.966800  0.893000  0.556100  1
  H  H39  1  0.991800  0.046100  0.098100  1
  H  H40  1  0.991800  0.953900  0.598100  1
  H  H41  1  0.327200  0.056300  0.408100  1
  H  H42  1  0.327200  0.943700  0.908100  1
  H  H43  1  0.795200  0.057100  0.353200  1
  H  H44  1  0.795200  0.942900  0.853200  1
  H  H45  1  0.236400  0.225500  0.354600  1
  H  H46  1  0.236400  0.774500  0.854600  1
  H  H47  1  0.891300  0.332300  0.148200  1
  H  H48  1  0.891300  0.667700  0.648200  1
  H  H49  1  0.802300  0.347700  0.157100  1
  H  H50  1  0.802300  0.652300  0.657100  1
  H  H51  1  0.548200  0.453000  0.334100  1
  H  H52  1  0.548200  0.547000  0.834100  1
  H  H53  1  0.459000  0.452900  0.837000  1
  H  H54  1  0.459000  0.547100  0.337000  1
  H  H55  1  0.721800  0.540200  0.652900  1
  H  H56  1  0.721800  0.459800  0.152900  1
  H  H57  1  0.096900  0.450900  0.779200  1
  H  H58  1  0.096900  0.549100  0.279200  1
  H  H59  1  0.822900  0.507700  0.743400  1
  H  H60  1  0.822900  0.492300  0.243400  1
  H  H61  1  0.810400  0.369200  0.538700  1
  H  H62  1  0.810400  0.630800  0.038700  1
  H  H63  1  0.446200  0.000900  0.446500  1
  H  H64  1  0.446200  0.999100  0.946500  1
  H  H65  1  0.131600  0.114800  0.606000  1
  H  H66  1  0.131600  0.885200  0.106000  1
  H  H67  1  0.137900  0.238400  0.435300  1
  H  H68  1  0.137900  0.761600  0.935300  1
  H  H69  1  0.737500  0.032000  0.257000  1
  H  H70  1  0.737500  0.968000  0.757000  1
  H  H71  1  0.022600  0.273700  0.836300  1
  H  H72  1  0.022600  0.726300  0.336300  1
  H  H73  1  0.131500  0.385000  0.594700  1
  H  H74  1  0.131500  0.615000  0.094700  1
  H  H75  1  0.378500  0.277500  0.900600  1
  H  H76  1  0.378500  0.722500  0.400600  1
  H  H77  1  0.831000  0.244600  0.008300  1
  H  H78  1  0.831000  0.755400  0.508300  1
  H  H79  1  0.910500  0.243800  0.058000  1
  H  H80  1  0.910500  0.756200  0.558000  1
  H  H81  1  0.877500  0.309900  0.027600  1
  H  H82  1  0.877500  0.690100  0.527600  1
  H  H83  1  0.161700  0.178400  0.697100  1
  H  H84  1  0.161700  0.821600  0.197100  1
  H  H85  1  0.342000  0.399900  0.082100  1
  H  H86  1  0.342000  0.600100  0.582100  1
  H  H87  1  0.280100  0.437300  0.115100  1
  H  H88  1  0.280100  0.562700  0.615100  1
  H  H89  1  0.338400  0.384900  0.151000  1
  H  H90  1  0.338400  0.615100  0.651000  1
  H  H91  1  0.718100  0.044100  0.862200  1
  H  H92  1  0.718100  0.955900  0.362200  1
  H  H93  1  0.532600  0.474100  0.932300  1
  H  H94  1  0.532600  0.525900  0.432300  1
  H  H95  1  0.710100  0.276300  0.027900  1
  H  H96  1  0.710100  0.723700  0.527900  1
  H  H97  1  0.734500  0.347400  0.050000  1
  H  H98  1  0.734500  0.652600  0.550000  1
  H  H99  1  0.689900  0.301800  0.090300  1
  H  H100  1  0.689900  0.698200  0.590300  1
  H  H101  1  0.336900  0.475700  0.210500  1
  H  H102  1  0.336900  0.524300  0.710500  1
  H  H103  1  0.373600  0.543400  0.195100  1
  H  H104  1  0.373600  0.456600  0.695100  1
  H  H105  1  0.653300  0.514200  0.555700  1
  H  H106  1  0.653300  0.485800  0.055700  1
  H  H107  1  0.545600  0.185000  0.933600  1
  H  H108  1  0.545600  0.815000  0.433600  1
  H  H109  1  0.459900  0.549400  0.100700  1
  H  H110  1  0.459900  0.450600  0.600700  1
  H  H111  1  0.369500  0.543400  0.066900  1
  H  H112  1  0.369500  0.456600  0.566900  1
  H  H113  1  0.434800  0.493200  0.053000  1
  H  H114  1  0.434800  0.506800  0.553000  1
  H  H115  1  0.353800  0.256500  0.121300  1
  H  H116  1  0.353800  0.743500  0.621300  1
  H  H117  1  0.426000  0.266100  0.176200  1
  H  H118  1  0.426000  0.733900  0.676200  1
  H  H119  1  0.389200  0.196300  0.161000  1
  H  H120  1  0.389200  0.803700  0.661000  1
  H  H121  1  0.528900  0.172300  0.837500  1
  H  H122  1  0.528900  0.827700  0.337500  1
  H  H123  1  0.430800  0.138500  0.045100  1
  H  H124  1  0.430800  0.861500  0.545100  1
  H  H125  1  0.351400  0.177800  0.052500  1
  H  H126  1  0.351400  0.822200  0.552500  1
  H  H127  1  0.576100  0.187700  0.102600  1
  H  H128  1  0.576100  0.812300  0.602600  1
  H  H129  1  0.528400  0.149100  0.146200  1
  H  H130  1  0.528400  0.850900  0.646200  1
  H  H131  1  0.567000  0.217200  0.166400  1
  H  H132  1  0.567000  0.782800  0.666400  1
  H  H133  1  0.938000  0.014500  0.974800  1
  H  H134  1  0.938000  0.985500  0.474800  1
  H  H135  1  0.885000  0.956700  0.993600  1
  H  H136  1  0.885000  0.043300  0.493600  1
  H  H137  1  0.179400  0.051100  0.410900  1
  H  H138  1  0.179400  0.948900  0.910900  1
  H  H139  1  0.820000  0.957000  0.067200  1
  H  H140  1  0.820000  0.043000  0.567200  1
  H  H141  1  0.848300  0.996200  0.128000  1
  H  H142  1  0.848300  0.003800  0.628000  1
  H  H143  1  0.911600  0.955600  0.099100  1
  H  H144  1  0.911600  0.044400  0.599100  1
  H  H145  1  0.232100  0.307600  0.003300  1
  H  H146  1  0.232100  0.692400  0.503300  1
  H  H147  1  0.196700  0.253700  0.041500  1
  H  H148  1  0.196700  0.746300  0.541500  1
  H  H149  1  0.153500  0.321700  0.030700  1
  H  H150  1  0.153500  0.678300  0.530700  1
  H  H151  1  0.194400  0.480200  0.978400  1
  H  H152  1  0.194400  0.519800  0.478400  1
  H  H153  1  0.135000  0.535400  0.949100  1
  H  H154  1  0.135000  0.464600  0.449100  1
  H  H155  1  0.228300  0.549700  0.967200  1
  H  H156  1  0.228300  0.450300  0.467200  1
  H  H157  1  0.137200  0.545600  0.816000  1
  H  H158  1  0.137200  0.454400  0.316000  1
  H  H159  1  0.213400  0.514300  0.795000  1
  H  H160  1  0.213400  0.485700  0.295000  1
  H  H161  1  0.224100  0.574100  0.840000  1
  H  H162  1  0.224100  0.425900  0.340000  1
  H  H163  1  0.240200  0.218800  0.927900  1
  H  H164  1  0.240200  0.781200  0.427900  1
  H  H165  1  0.165700  0.177100  0.896500  1
  H  H166  1  0.165700  0.822900  0.396500  1
  H  H167  1  0.198300  0.169900  0.967100  1
  H  H168  1  0.198300  0.830100  0.467100  1
  H  H169  1  0.013300  0.247700  0.950900  1
  H  H170  1  0.013300  0.752300  0.450900  1
  H  H171  1  0.070600  0.192500  0.982900  1
  H  H172  1  0.070600  0.807500  0.482900  1
  H  H173  1  0.049800  0.196000  0.911100  1
  H  H174  1  0.049800  0.804000  0.411100  1
  H  H175  1  0.029000  0.217900  0.208900  1
  H  H176  1  0.029000  0.782100  0.708900  1
  H  H177  1  0.085200  0.175700  0.174500  1
  H  H178  1  0.085200  0.824300  0.674500  1
  H  H179  1  0.077000  0.251100  0.162400  1
  H  H180  1  0.077000  0.748900  0.662400  1
  H  H181  1  0.993500  0.957000  0.361000  1
  H  H182  1  0.993500  0.043000  0.861000  1
  H  H183  1  0.988300  0.031900  0.374500  1
  H  H184  1  0.988300  0.968100  0.874500  1
  H  H185  1  0.062000  0.990800  0.408300  1
  H  H186  1  0.062000  0.009200  0.908300  1
  H  H187  1  0.063000  0.273500  0.291300  1
  H  H188  1  0.063000  0.726500  0.791300  1
  H  H189  1  0.091700  0.322100  0.244700  1
  H  H190  1  0.091700  0.677900  0.744700  1
  H  H191  1  0.148800  0.306600  0.307200  1
  H  H192  1  0.148800  0.693400  0.807200  1
  H  H193  1  0.203200  0.249300  0.172100  1
  H  H194  1  0.203200  0.750700  0.672100  1
  H  H195  1  0.202700  0.174600  0.187600  1
  H  H196  1  0.202700  0.825400  0.687600  1
  H  H197  1  0.262700  0.221800  0.229100  1
  H  H198  1  0.262700  0.778200  0.729100  1
  H  H199  1  0.970500  0.977600  0.259200  1
  H  H200  1  0.970500  0.022400  0.759200  1
  H  H201  1  0.016000  0.028700  0.224700  1
  H  H202  1  0.016000  0.971300  0.724700  1
  H  H203  1  0.964500  0.052300  0.273300  1
  H  H204  1  0.964500  0.947700  0.773300  1
  H  H205  1  0.300500  0.447100  0.927500  1
  H  H206  1  0.300500  0.552900  0.427500  1
  H  H207  1  0.324800  0.507200  0.890900  1
  H  H208  1  0.324800  0.492800  0.390900  1
  H  H209  1  0.298200  0.441600  0.856600  1
  H  H210  1  0.298200  0.558400  0.356600  1
  H  H211  1  0.093800  0.915000  0.305000  1
  H  H212  1  0.093800  0.085000  0.805000  1
  H  H213  1  0.165000  0.948500  0.349900  1
  H  H214  1  0.165000  0.051500  0.849900  1
  H  H215  1  0.157900  0.957500  0.278800  1
  H  H216  1  0.157900  0.042500  0.778800  1
  H  H217  1  0.011100  0.672100  0.896500  1
  H  H218  1  0.011100  0.327900  0.396500  1
  H  H219  1  0.925700  0.706500  0.881200  1
  H  H220  1  0.925700  0.293500  0.381200  1
  H  H221  1  0.945200  0.528800  0.857500  1
  H  H222  1  0.945200  0.471200  0.357500  1
  H  H223  1  0.853100  0.550000  0.842400  1
  H  H224  1  0.853100  0.450000  0.342400  1
  H  H225  1  0.883300  0.636100  0.803800  1
  H  H226  1  0.883300  0.363900  0.303800  1
  H  H227  1  0.974100  0.610700  0.811900  1
  H  H228  1  0.974100  0.389300  0.311900  1
  H  H229  1  0.856400  0.574500  0.934400  1
  H  H230  1  0.856400  0.425500  0.434400  1
  H  H231  1  0.947100  0.551500  0.949600  1
  H  H232  1  0.947100  0.448500  0.449600  1
  C  C233  1  0.854400  0.140200  0.334900  1
  C  C234  1  0.854400  0.859800  0.834900  1
  C  C235  1  0.615800  0.367400  0.230400  1
  C  C236  1  0.615800  0.632600  0.730400  1
  C  C237  1  0.150200  0.292000  0.508000  1
  C  C238  1  0.150200  0.708000  0.008000  1
  C  C239  1  0.454000  0.330400  0.963900  1
  C  C240  1  0.454000  0.669600  0.463900  1
  C  C241  1  0.242000  0.203300  0.491300  1
  C  C242  1  0.242000  0.796700  0.991300  1
  C  C243  1  0.847200  0.176800  0.292100  1
  C  C244  1  0.847200  0.823200  0.792100  1
  C  C245  1  0.438400  0.087100  0.568900  1
  C  C246  1  0.438400  0.912900  0.068900  1
  C  C247  1  0.684500  0.334800  0.271400  1
  C  C248  1  0.684500  0.665200  0.771400  1
  C  C249  1  0.154800  0.378300  0.910500  1
  C  C250  1  0.154800  0.621700  0.410500  1
  C  C251  1  0.211800  0.137700  0.394400  1
  C  C252  1  0.211800  0.862300  0.894400  1
  C  C253  1  0.982900  0.169400  0.509000  1
  C  C254  1  0.982900  0.830600  0.009000  1
  C  C255  1  0.375100  0.126900  0.542600  1
  C  C256  1  0.375100  0.873100  0.042600  1
  C  C257  1  0.823700  0.407500  0.625300  1
  C  C258  1  0.823700  0.592500  0.125300  1
  C  C259  1  0.097200  0.254900  0.720500  1
  C  C260  1  0.097200  0.745100  0.220500  1
  C  C261  1  0.454400  0.283200  0.017000  1
  C  C262  1  0.454400  0.716800  0.517000  1
  C  C263  1  0.004500  0.230700  0.603000  1
  C  C264  1  0.004500  0.769300  0.103000  1
  C  C265  1  0.568600  0.408900  0.257400  1
  C  C266  1  0.568600  0.591100  0.757400  1
  C  C267  1  0.899400  0.368400  0.652600  1
  C  C268  1  0.899400  0.631600  0.152600  1
  C  C269  1  0.693700  0.355100  0.337300  1
  C  C270  1  0.693700  0.644900  0.837300  1
  C  C271  1  0.286300  0.216700  0.552500  1
  C  C272  1  0.286300  0.783300  0.052500  1
  C  C273  1  0.984400  0.286000  0.641100  1
  C  C274  1  0.984400  0.714000  0.141100  1
  C  C275  1  0.955600  0.220900  0.545900  1
  C  C276  1  0.955600  0.779100  0.045900  1
  C  C277  1  0.030100  0.294400  0.699100  1
  C  C278  1  0.030100  0.705600  0.199100  1
  C  C279  1  0.466400  0.039000  0.536100  1
  C  C280  1  0.466400  0.961000  0.036100  1
  C  C281  1  0.368400  0.350900  0.794400  1
  C  C282  1  0.368400  0.649100  0.294400  1
  C  C283  1  0.537800  0.007100  0.562700  1
  C  C284  1  0.537800  0.992900  0.062700  1
  C  C285  1  0.330400  0.340700  0.744900  1
  C  C286  1  0.330400  0.659300  0.244900  1
  C  C287  1  0.793600  0.460600  0.661200  1
  C  C288  1  0.793600  0.539400  0.161200  1
  C  C289  1  0.197500  0.309200  0.568700  1
  C  C290  1  0.197500  0.690800  0.068700  1
  C  C291  1  0.772500  0.109500  0.215800  1
  C  C292  1  0.772500  0.890500  0.715800  1
  C  C293  1  0.219600  0.370700  0.660700  1
  C  C294  1  0.219600  0.629300  0.160700  1
  C  C295  1  0.604800  0.087700  0.769200  1
  C  C296  1  0.604800  0.912300  0.269200  1
  C  C297  1  0.042400  0.132100  0.529600  1
  C  C298  1  0.042400  0.867900  0.029600  1
  C  C299  1  0.937700  0.381100  0.713600  1
  C  C300  1  0.937700  0.618900  0.213600  1
  C  C301  1  0.332200  0.113400  0.480700  1
  C  C302  1  0.332200  0.886600  0.980700  1
  C  C303  1  0.483200  0.099300  0.627000  1
  C  C304  1  0.483200  0.900700  0.127000  1
  C  C305  1  0.263000  0.155200  0.457100  1
  C  C306  1  0.263000  0.844800  0.957100  1
  C  C307  1  0.051500  0.358000  0.799300  1
  C  C308  1  0.051500  0.642000  0.299300  1
  C  C309  1  0.573900  0.012100  0.621600  1
  C  C310  1  0.573900  0.987900  0.121600  1
  C  C311  1  0.499600  0.390700  0.977000  1
  C  C312  1  0.499600  0.609300  0.477000  1
  C  C313  1  0.119200  0.121400  0.281600  1
  C  C314  1  0.119200  0.878600  0.781600  1
  C  C315  1  0.899400  0.434200  0.746600  1
  C  C316  1  0.899400  0.565800  0.246600  1
  C  C317  1  0.307900  0.280400  0.652500  1
  C  C318  1  0.307900  0.719600  0.152500  1
  C  C319  1  0.948800  0.076400  0.083700  1
  C  C320  1  0.948800  0.923600  0.583700  1
  C  C321  1  0.005600  0.347000  0.736800  1
  C  C322  1  0.005600  0.653000  0.236800  1
  C  C323  1  0.892500  0.151900  0.395200  1
  C  C324  1  0.892500  0.848100  0.895200  1
  C  C325  1  0.356100  0.065800  0.446900  1
  C  C326  1  0.356100  0.934200  0.946900  1
  C  C327  1  0.803600  0.084500  0.321400  1
  C  C328  1  0.803600  0.915500  0.821400  1
  C  C329  1  0.206900  0.187000  0.346300  1
  C  C330  1  0.206900  0.813000  0.846300  1
  C  C331  1  0.545500  0.061900  0.655500  1
  C  C332  1  0.545500  0.938100  0.155500  1
  C  C333  1  0.067300  0.194800  0.625400  1
  C  C334  1  0.067300  0.805200  0.125400  1
  C  C335  1  0.149200  0.426100  0.864800  1
  C  C336  1  0.149200  0.573900  0.364800  1
  C  C337  1  0.670100  0.415600  0.419100  1
  C  C338  1  0.670100  0.584400  0.919100  1
  C  C339  1  0.839000  0.312600  0.151700  1
  C  C340  1  0.839000  0.687400  0.651700  1
  C  C341  1  0.583300  0.424100  0.319500  1
  C  C342  1  0.583300  0.575900  0.819500  1
  C  C343  1  0.122800  0.070100  0.325700  1
  C  C344  1  0.122800  0.929900  0.825700  1
  C  C345  1  0.461300  0.422000  0.867900  1
  C  C346  1  0.461300  0.578000  0.367900  1
  C  C347  1  0.647900  0.398400  0.360700  1
  C  C348  1  0.647900  0.601600  0.860700  1
  C  C349  1  0.770400  0.062400  0.976700  1
  C  C350  1  0.770400  0.937600  0.476700  1
  C  C351  1  0.422800  0.362100  0.855300  1
  C  C352  1  0.422800  0.637900  0.355300  1
  C  C353  1  0.735700  0.503200  0.632700  1
  C  C354  1  0.735700  0.496800  0.132700  1
  C  C355  1  0.100000  0.419000  0.809500  1
  C  C356  1  0.100000  0.581000  0.309500  1
  C  C357  1  0.837500  0.472500  0.721200  1
  C  C358  1  0.837500  0.527500  0.221200  1
  C  C359  1  0.617200  0.102200  0.836200  1
  C  C360  1  0.617200  0.897800  0.336200  1
  C  C361  1  0.790400  0.400100  0.563100  1
  C  C362  1  0.790400  0.599900  0.063100  1
  C  C363  1  0.425100  0.030600  0.471300  1
  C  C364  1  0.425100  0.969400  0.971300  1
  C  C365  1  0.088700  0.142300  0.590400  1
  C  C366  1  0.088700  0.857700  0.090400  1
  C  C367  1  0.291100  0.328700  0.686500  1
  C  C368  1  0.291100  0.671300  0.186500  1
  C  C369  1  0.578800  0.075600  0.715700  1
  C  C370  1  0.578800  0.924400  0.215700  1
  C  C371  1  0.497600  0.437000  0.217300  1
  C  C372  1  0.497600  0.563000  0.717300  1
  C  C373  1  0.162000  0.178700  0.291400  1
  C  C374  1  0.162000  0.821300  0.791400  1
  C  C375  1  0.461100  0.225800  0.102200  1
  C  C376  1  0.461100  0.774200  0.602200  1
  C  C377  1  0.170500  0.245300  0.473300  1
  C  C378  1  0.170500  0.754700  0.973300  1
  C  C379  1  0.767400  0.070500  0.264000  1
  C  C380  1  0.767400  0.929500  0.764000  1
  C  C381  1  0.114300  0.319800  0.902500  1
  C  C382  1  0.114300  0.680200  0.402500  1
  C  C383  1  0.723000  0.442800  0.538100  1
  C  C384  1  0.723000  0.557200  0.038100  1
  C  C385  1  0.055400  0.310600  0.843000  1
  C  C386  1  0.055400  0.689400  0.343000  1
  C  C387  1  0.396700  0.471100  0.140200  1
  C  C388  1  0.396700  0.528900  0.640200  1
  C  C389  1  0.808300  0.278800  0.095400  1
  C  C390  1  0.808300  0.721200  0.595400  1
  C  C391  1  0.815100  0.166100  0.229000  1
  C  C392  1  0.815100  0.833900  0.729000  1
  C  C393  1  0.685400  0.426100  0.471200  1
  C  C394  1  0.685400  0.573900  0.971200  1
  C  C395  1  0.177300  0.359500  0.608000  1
  C  C396  1  0.177300  0.640500  0.108000  1
  C  C397  1  0.411500  0.314300  0.907300  1
  C  C398  1  0.411500  0.685700  0.407300  1
  C  C399  1  0.704400  0.090100  0.940400  1
  C  C400  1  0.704400  0.909900  0.440400  1
  C  C401  1  0.929800  0.160900  0.446000  1
  C  C402  1  0.929800  0.839100  0.946000  1
  C  C403  1  0.125000  0.260100  0.947800  1
  C  C404  1  0.125000  0.739900  0.447800  1
  C  C405  1  0.862400  0.268200  0.041800  1
  C  C406  1  0.862400  0.731800  0.541800  1
  C  C407  1  0.148100  0.229400  0.243100  1
  C  C408  1  0.148100  0.770600  0.743100  1
  C  C409  1  0.116800  0.205000  0.683900  1
  C  C410  1  0.116800  0.795000  0.183900  1
  C  C411  1  0.333500  0.418500  0.120000  1
  C  C412  1  0.333500  0.581500  0.620000  1
  C  C413  1  0.685400  0.074200  0.877800  1
  C  C414  1  0.685400  0.925800  0.377800  1
  C  C415  1  0.502500  0.435800  0.925600  1
  C  C416  1  0.502500  0.564200  0.425600  1
  C  C417  1  0.819500  0.215500  0.187500  1
  C  C418  1  0.819500  0.784500  0.687500  1
  C  C419  1  0.643200  0.135700  0.961300  1
  C  C420  1  0.643200  0.864300  0.461300  1
  C  C421  1  0.728700  0.303200  0.063000  1
  C  C422  1  0.728700  0.696800  0.563000  1
  C  C423  1  0.880500  0.042000  0.052700  1
  C  C424  1  0.880500  0.958000  0.552700  1
  C  C425  1  0.383500  0.496700  0.198100  1
  C  C426  1  0.383500  0.503300  0.698100  1
  C  C427  1  0.698300  0.489400  0.572700  1
  C  C428  1  0.698300  0.510600  0.072700  1
  C  C429  1  0.583000  0.158400  0.918900  1
  C  C430  1  0.583000  0.841600  0.418900  1
  C  C431  1  0.417000  0.519400  0.084300  1
  C  C432  1  0.417000  0.480600  0.584300  1
  C  C433  1  0.402400  0.237200  0.143800  1
  C  C434  1  0.402400  0.762800  0.643800  1
  C  C435  1  0.569700  0.149000  0.862500  1
  C  C436  1  0.569700  0.851000  0.362500  1
  C  C437  1  0.407700  0.181700  0.047600  1
  C  C438  1  0.407700  0.818300  0.547600  1
  C  C439  1  0.202600  0.492800  0.877700  1
  C  C440  1  0.202600  0.507200  0.377700  1
  C  C441  1  0.540600  0.191700  0.132200  1
  C  C442  1  0.540600  0.808300  0.632200  1
  C  C443  1  0.887000  0.003600  0.988300  1
  C  C444  1  0.887000  0.996400  0.488300  1
  C  C445  1  0.173100  0.083600  0.381000  1
  C  C446  1  0.173100  0.916400  0.881000  1
  C  C447  1  0.863000  0.982100  0.090300  1
  C  C448  1  0.863000  0.017900  0.590300  1
  C  C449  1  0.075700  0.012700  0.314200  1
  C  C450  1  0.075700  0.987300  0.814200  1
  C  C451  1  0.264400  0.265100  0.590500  1
  C  C452  1  0.264400  0.734900  0.090500  1
  C  C453  1  0.183000  0.288900  0.012900  1
  C  C454  1  0.183000  0.711100  0.512900  1
  C  C455  1  0.188000  0.517300  0.952000  1
  C  C456  1  0.188000  0.482700  0.452000  1
  C  C457  1  0.194000  0.534900  0.828000  1
  C  C458  1  0.194000  0.465100  0.328000  1
  C  C459  1  0.189000  0.200000  0.933000  1
  C  C460  1  0.189000  0.800000  0.433000  1
  C  C461  1  0.060000  0.221300  0.948200  1
  C  C462  1  0.060000  0.778700  0.448200  1
  C  C463  1  0.078800  0.217500  0.192800  1
  C  C464  1  0.078800  0.782500  0.692800  1
  C  C465  1  0.024400  0.996400  0.370500  1
  C  C466  1  0.024400  0.003600  0.870500  1
  C  C467  1  0.109000  0.288900  0.274800  1
  C  C468  1  0.109000  0.711100  0.774800  1
  C  C469  1  0.209000  0.218000  0.205000  1
  C  C470  1  0.209000  0.782000  0.705000  1
  C  C471  1  0.999400  0.018300  0.262900  1
  C  C472  1  0.999400  0.981700  0.762900  1
  C  C473  1  0.289000  0.470100  0.889000  1
  C  C474  1  0.289000  0.529900  0.389000  1
  C  C475  1  0.127800  0.953000  0.311800  1
  C  C476  1  0.127800  0.047000  0.811800  1
  C  C477  1  0.952800  0.664700  0.889200  1
  C  C478  1  0.952800  0.335300  0.389200  1
  C  C479  1  0.907400  0.564000  0.861000  1
  C  C480  1  0.907400  0.436000  0.361000  1
  C  C481  1  0.928600  0.618700  0.832800  1
  C  C482  1  0.928600  0.381300  0.332800  1
  C  C483  1  0.910000  0.581000  0.924300  1
  C  C484  1  0.910000  0.419000  0.424300  1
  N  N485  1  0.474600  0.286400  0.068800  1
  N  N486  1  0.474600  0.713600  0.568800  1
  N  N487  1  0.464800  0.425600  0.159500  1
  N  N488  1  0.464800  0.574400  0.659500  1
  N  N489  1  0.796200  0.075600  0.032900  1
  N  N490  1  0.796200  0.924400  0.532900  1
  N  N491  1  0.793800  0.205900  0.123900  1
  N  N492  1  0.793800  0.794100  0.623900  1
  N  N493  1  0.349800  0.176700  0.575600  1
  N  N494  1  0.349800  0.823300  0.075600  1
  N  N495  1  0.919000  0.322300  0.617600  1
  N  N496  1  0.919000  0.677700  0.117600  1
  O  O497  1  0.535200  0.407800  0.031700  1
  O  O498  1  0.535200  0.592200  0.531700  1
  O  O499  1  0.613200  0.348400  0.174800  1
  O  O500  1  0.613200  0.651600  0.674800  1
  O  O501  1  0.656600  0.148200  0.022000  1
  O  O502  1  0.656600  0.851800  0.522000  1
  O  O503  1  0.733400  0.091500  0.159600  1
  O  O504  1  0.733400  0.908500  0.659600  1
  O  O505  1  0.458600  0.482600  0.242700  1
  O  O506  1  0.458600  0.517400  0.742700  1
  O  O507  1  0.417000  0.224400  0.991400  1
  O  O508  1  0.417000  0.775600  0.491400  1
  O  O509  1  0.820000  0.025900  0.945700  1
  O  O510  1  0.820000  0.974100  0.445700  1
  O  O511  1  0.849800  0.274500  0.202100  1
  O  O512  1  0.849800  0.725500  0.702100  1
  O  O513  1  0.932000  0.637600  0.937200  1
  O  O514  1  0.932000  0.362400  0.437200  1
  O  O515  1  0.885000  0.153500  0.807500  1
  O  O516  1  0.885000  0.846500  0.307500  1
  O  O517  1  0.263000  0.060000  0.062400  1
  O  O518  1  0.263000  0.940000  0.562400  1
  O  O519  1  0.392000  0.356000  0.310000  1
  O  O520  1  0.392000  0.644000  0.810000  1
