# generated using pymatgen
data_Cu24(C35O16)7
_symmetry_space_group_name_H-M   'P 1'
_cell_length_a   25.07440983
_cell_length_b   25.07440983
_cell_length_c   29.57700000
_cell_angle_alpha   92.34042338
_cell_angle_beta   92.34042338
_cell_angle_gamma   94.83578979
_symmetry_Int_Tables_number   1
_chemical_formula_structural   Cu24(C35O16)7
_chemical_formula_sum   'Cu48 C490 O224'
_cell_volume   18495.85966392
_cell_formula_units_Z   2
loop_
 _symmetry_equiv_pos_site_id
 _symmetry_equiv_pos_as_xyz
  1  'x, y, z'
loop_
 _atom_site_type_symbol
 _atom_site_label
 _atom_site_symmetry_multiplicity
 _atom_site_fract_x
 _atom_site_fract_y
 _atom_site_fract_z
 _atom_site_occupancy
  C  C1  1  0.127600  0.758400  0.959000  1
  C  C2  1  0.241600  0.872400  0.541000  1
  C  C3  1  0.872400  0.241600  0.041000  1
  C  C4  1  0.758400  0.127600  0.459000  1
  C  C5  1  0.089600  0.317200  0.848300  1
  C  C6  1  0.682800  0.910400  0.651700  1
  C  C7  1  0.910400  0.682800  0.151700  1
  C  C8  1  0.317200  0.089600  0.348300  1
  C  C9  1  0.261800  0.499800  0.025400  1
  C  C10  1  0.500200  0.738200  0.474600  1
  C  C11  1  0.738200  0.500200  0.974600  1
  C  C12  1  0.499800  0.261800  0.525400  1
  C  C13  1  0.943700  0.560300  0.800000  1
  C  C14  1  0.439700  0.056300  0.700000  1
  C  C15  1  0.056300  0.439700  0.200000  1
  C  C16  1  0.560300  0.943700  0.300000  1
  C  C17  1  0.530800  0.485200  0.982000  1
  C  C18  1  0.514800  0.469200  0.518000  1
  C  C19  1  0.469200  0.514800  0.018000  1
  C  C20  1  0.485200  0.530800  0.482000  1
  C  C21  1  0.113000  0.767000  0.553000  1
  C  C22  1  0.233000  0.887000  0.947000  1
  C  C23  1  0.887000  0.233000  0.447000  1
  C  C24  1  0.767000  0.113000  0.053000  1
  C  C25  1  0.485000  0.417000  0.984000  1
  C  C26  1  0.583000  0.515000  0.516000  1
  C  C27  1  0.515000  0.583000  0.016000  1
  C  C28  1  0.417000  0.485000  0.484000  1
  C  C29  1  0.086400  0.031600  0.110000  1
  C  C30  1  0.968400  0.913600  0.390000  1
  C  C31  1  0.913600  0.968400  0.890000  1
  C  C32  1  0.031600  0.086400  0.610000  1
  C  C33  1  0.039000  0.787000  0.530000  1
  C  C34  1  0.213000  0.961000  0.970000  1
  C  C35  1  0.961000  0.213000  0.470000  1
  C  C36  1  0.787000  0.039000  0.030000  1
  C  C37  1  0.275000  0.219000  0.049000  1
  C  C38  1  0.781000  0.725000  0.451000  1
  C  C39  1  0.725000  0.781000  0.951000  1
  C  C40  1  0.219000  0.275000  0.549000  1
  C  C41  1  0.575000  0.537000  0.982000  1
  C  C42  1  0.463000  0.425000  0.518000  1
  C  C43  1  0.425000  0.463000  0.018000  1
  C  C44  1  0.537000  0.575000  0.482000  1
  C  C45  1  0.079000  0.259000  0.592000  1
  C  C46  1  0.741000  0.921000  0.908000  1
  C  C47  1  0.921000  0.741000  0.408000  1
  C  C48  1  0.259000  0.079000  0.092000  1
  C  C49  1  0.885000  0.809000  0.965000  1
  C  C50  1  0.191000  0.115000  0.535000  1
  C  C51  1  0.115000  0.191000  0.035000  1
  C  C52  1  0.809000  0.885000  0.465000  1
  C  C53  1  0.908000  0.568000  0.621000  1
  C  C54  1  0.432000  0.092000  0.879000  1
  C  C55  1  0.092000  0.432000  0.379000  1
  C  C56  1  0.568000  0.908000  0.121000  1
  C  C57  1  0.927000  0.631000  0.589000  1
  C  C58  1  0.369000  0.073000  0.911000  1
  C  C59  1  0.073000  0.369000  0.411000  1
  C  C60  1  0.631000  0.927000  0.089000  1
  C  C61  1  0.957000  0.945000  0.729000  1
  C  C62  1  0.055000  0.043000  0.771000  1
  C  C63  1  0.043000  0.055000  0.271000  1
  C  C64  1  0.945000  0.957000  0.229000  1
  C  C65  1  0.083500  0.724500  0.971000  1
  C  C66  1  0.275500  0.916500  0.529000  1
  C  C67  1  0.916500  0.275500  0.029000  1
  C  C68  1  0.724500  0.083500  0.471000  1
  C  C69  1  0.281000  0.715000  0.151000  1
  C  C70  1  0.285000  0.719000  0.349000  1
  C  C71  1  0.719000  0.285000  0.849000  1
  C  C72  1  0.715000  0.281000  0.651000  1
  C  C73  1  0.810000  0.190000  0.750000  1
  C  C74  1  0.190000  0.810000  0.250000  1
  C  C75  1  0.969700  0.199100  0.777000  1.0
  C  C76  1  0.800900  0.030300  0.723000  1.0
  C  C77  1  0.030300  0.800900  0.223000  1.0
  C  C78  1  0.199100  0.969700  0.277000  1.0
  C  C79  1  0.354800  0.432600  0.895500  1.0
  C  C80  1  0.567400  0.645200  0.604500  1.0
  C  C81  1  0.645200  0.567400  0.104500  1.0
  C  C82  1  0.432600  0.354800  0.395500  1.0
  C  C83  1  0.388100  0.485100  0.901600  1.0
  C  C84  1  0.514900  0.611900  0.598400  1.0
  C  C85  1  0.611900  0.514900  0.098400  1.0
  C  C86  1  0.485100  0.388100  0.401600  1.0
  C  C87  1  0.442000  0.487000  0.878800  1.0
  C  C88  1  0.513000  0.558000  0.621200  1.0
  C  C89  1  0.558000  0.513000  0.121200  1.0
  C  C90  1  0.487000  0.442000  0.378800  1.0
  C  C91  1  0.469600  0.537600  0.889900  1.0
  C  C92  1  0.462400  0.530400  0.610100  1.0
  C  C93  1  0.530400  0.462400  0.110100  1.0
  C  C94  1  0.537600  0.469600  0.389900  1.0
  C  C95  1  0.445900  0.585500  0.906100  1.0
  C  C96  1  0.414500  0.554100  0.593900  1.0
  C  C97  1  0.554100  0.414500  0.093900  1.0
  C  C98  1  0.585500  0.445900  0.406100  1.0
  C  C99  1  0.396200  0.578200  0.927400  1.0
  C  C100  1  0.421800  0.603800  0.572600  1.0
  C  C101  1  0.603800  0.421800  0.072600  1.0
  C  C102  1  0.578200  0.396200  0.427400  1.0
  C  C103  1  0.365800  0.530400  0.923400  1.0
  C  C104  1  0.469600  0.634200  0.576600  1.0
  C  C105  1  0.634200  0.469600  0.076600  1.0
  C  C106  1  0.530400  0.365800  0.423400  1.0
  C  C107  1  0.368000  0.617600  0.950000  1.0
  C  C108  1  0.382400  0.632000  0.550000  1.0
  C  C109  1  0.632000  0.382400  0.050000  1.0
  C  C110  1  0.617600  0.368000  0.450000  1.0
  C  C111  1  0.263500  0.354300  0.817600  1.0
  C  C112  1  0.645700  0.736500  0.682400  1.0
  C  C113  1  0.736500  0.645700  0.182400  1.0
  C  C114  1  0.354300  0.263500  0.317600  1.0
  C  C115  1  0.242800  0.361200  0.770000  1.0
  C  C116  1  0.638800  0.757200  0.730000  1.0
  C  C117  1  0.757200  0.638800  0.230000  1.0
  C  C118  1  0.361200  0.242800  0.270000  1.0
  C  C119  1  0.274400  0.340000  0.740000  1.0
  C  C120  1  0.660000  0.725600  0.760000  1.0
  C  C121  1  0.725600  0.660000  0.260000  1.0
  C  C122  1  0.340000  0.274400  0.240000  1.0
  C  C123  1  0.253700  0.345900  0.693000  1.0
  C  C124  1  0.654100  0.746300  0.807000  1.0
  C  C125  1  0.746300  0.654100  0.307000  1.0
  C  C126  1  0.345900  0.253700  0.193000  1.0
  C  C127  1  0.200100  0.361900  0.680000  1.0
  C  C128  1  0.638100  0.799900  0.820000  1.0
  C  C129  1  0.799900  0.638100  0.320000  1.0
  C  C130  1  0.361900  0.200100  0.180000  1.0
  C  C131  1  0.175400  0.376800  0.718000  1.0
  C  C132  1  0.623200  0.824600  0.782000  1.0
  C  C133  1  0.824600  0.623200  0.282000  1.0
  C  C134  1  0.376800  0.175400  0.218000  1.0
  C  C135  1  0.191400  0.375000  0.768200  1.0
  C  C136  1  0.625000  0.808600  0.731800  1.0
  C  C137  1  0.808600  0.625000  0.231800  1.0
  C  C138  1  0.375000  0.191400  0.268200  1.0
  C  C139  1  0.117200  0.397000  0.719000  1.0
  C  C140  1  0.603000  0.882800  0.781000  1.0
  C  C141  1  0.882800  0.603000  0.281000  1.0
  C  C142  1  0.397000  0.117200  0.219000  1.0
  C  C143  1  0.245300  0.254100  0.899400  1.0
  C  C144  1  0.745900  0.754700  0.600600  1.0
  C  C145  1  0.754700  0.745900  0.100600  1.0
  C  C146  1  0.254100  0.245300  0.399400  1.0
  C  C147  1  0.207800  0.202200  0.901900  1.0
  C  C148  1  0.797800  0.792200  0.598100  1.0
  C  C149  1  0.792200  0.797800  0.098100  1.0
  C  C150  1  0.202200  0.207800  0.401900  1.0
  C  C151  1  0.155900  0.201500  0.904600  1.0
  C  C152  1  0.798500  0.844100  0.595400  1.0
  C  C153  1  0.844100  0.798500  0.095400  1.0
  C  C154  1  0.201500  0.155900  0.404600  1.0
  C  C155  1  0.133400  0.150600  0.898800  1.0
  C  C156  1  0.849400  0.866600  0.601200  1.0
  C  C157  1  0.866600  0.849400  0.101200  1.0
  C  C158  1  0.150600  0.133400  0.398800  1.0
  C  C159  1  0.150500  0.101300  0.892600  1.0
  C  C160  1  0.898700  0.849500  0.607400  1.0
  C  C161  1  0.849500  0.898700  0.107400  1.0
  C  C162  1  0.101300  0.150500  0.392600  1.0
  C  C163  1  0.206200  0.105800  0.897100  1.0
  C  C164  1  0.894200  0.793800  0.602900  1.0
  C  C165  1  0.793800  0.894200  0.102900  1.0
  C  C166  1  0.105800  0.206200  0.397100  1.0
  C  C167  1  0.240100  0.156500  0.893300  1.0
  C  C168  1  0.843500  0.759900  0.606700  1.0
  C  C169  1  0.759900  0.843500  0.106700  1.0
  C  C170  1  0.156500  0.240100  0.393300  1.0
  C  C171  1  0.925300  0.423700  0.678000  1.0
  C  C172  1  0.576300  0.074700  0.822000  1.0
  C  C173  1  0.074700  0.576300  0.322000  1.0
  C  C174  1  0.423700  0.925300  0.178000  1.0
  C  C175  1  0.869400  0.440000  0.680200  1.0
  C  C176  1  0.560000  0.130600  0.819800  1.0
  C  C177  1  0.130600  0.560000  0.319800  1.0
  C  C178  1  0.440000  0.869400  0.180200  1.0
  C  C179  1  0.847200  0.425000  0.634100  1.0
  C  C180  1  0.575000  0.152800  0.865900  1.0
  C  C181  1  0.152800  0.575000  0.365900  1.0
  C  C182  1  0.425000  0.847200  0.134100  1.0
  C  C183  1  0.797200  0.442200  0.626000  1.0
  C  C184  1  0.557800  0.202800  0.874000  1.0
  C  C185  1  0.202800  0.557800  0.374000  1.0
  C  C186  1  0.442200  0.797200  0.126000  1.0
  C  C187  1  0.765100  0.463700  0.658000  1.0
  C  C188  1  0.536300  0.234900  0.842000  1.0
  C  C189  1  0.234900  0.536300  0.342000  1.0
  C  C190  1  0.463700  0.765100  0.158000  1.0
  C  C191  1  0.794100  0.477100  0.703000  1.0
  C  C192  1  0.522900  0.205900  0.797000  1.0
  C  C193  1  0.205900  0.522900  0.297000  1.0
  C  C194  1  0.477100  0.794100  0.203000  1.0
  C  C195  1  0.846700  0.465900  0.713400  1.0
  C  C196  1  0.534100  0.153300  0.786600  1.0
  C  C197  1  0.153300  0.534100  0.286600  1.0
  C  C198  1  0.465900  0.846700  0.213400  1.0
  C  C199  1  0.767200  0.507200  0.732000  1.0
  C  C200  1  0.492800  0.232800  0.768000  1.0
  C  C201  1  0.232800  0.492800  0.268000  1.0
  C  C202  1  0.507200  0.767200  0.232000  1.0
  C  C203  1  0.782400  0.640600  0.773300  1.0
  C  C204  1  0.359400  0.217600  0.726700  1.0
  C  C205  1  0.217600  0.359400  0.226700  1.0
  C  C206  1  0.640600  0.782400  0.273300  1.0
  C  C207  1  0.806800  0.689200  0.755000  1.0
  C  C208  1  0.310800  0.193200  0.745000  1.0
  C  C209  1  0.193200  0.310800  0.245000  1.0
  C  C210  1  0.689200  0.806800  0.255000  1.0
  C  C211  1  0.784100  0.716100  0.730000  1.0
  C  C212  1  0.283900  0.215900  0.770000  1.0
  C  C213  1  0.215900  0.283900  0.270000  1.0
  C  C214  1  0.716100  0.784100  0.230000  1.0
  C  C215  1  0.817500  0.766500  0.719000  1.0
  C  C216  1  0.233500  0.182500  0.781000  1.0
  C  C217  1  0.182500  0.233500  0.281000  1.0
  C  C218  1  0.766500  0.817500  0.219000  1.0
  C  C219  1  0.874500  0.774500  0.731000  1.0
  C  C220  1  0.225500  0.125500  0.769000  1.0
  C  C221  1  0.125500  0.225500  0.269000  1.0
  C  C222  1  0.774500  0.874500  0.231000  1.0
  C  C223  1  0.886800  0.739200  0.766000  1.0
  C  C224  1  0.260800  0.113200  0.734000  1.0
  C  C225  1  0.113200  0.260800  0.234000  1.0
  C  C226  1  0.739200  0.886800  0.266000  1.0
  C  C227  1  0.860100  0.691500  0.777300  1.0
  C  C228  1  0.308500  0.139900  0.722700  1.0
  C  C229  1  0.139900  0.308500  0.222700  1.0
  C  C230  1  0.691500  0.860100  0.277300  1.0
  C  C231  1  0.947200  0.754800  0.777000  1.0
  C  C232  1  0.245200  0.052800  0.723000  1.0
  C  C233  1  0.052800  0.245200  0.223000  1.0
  C  C234  1  0.754800  0.947200  0.277000  1.0
  C  C235  1  0.997500  0.306700  0.713000  1.0
  C  C236  1  0.693300  0.002500  0.787000  1.0
  C  C237  1  0.002500  0.693300  0.287000  1.0
  C  C238  1  0.306700  0.997500  0.213000  1.0
  C  C239  1  0.986500  0.257900  0.722000  1.0
  C  C240  1  0.742100  0.013500  0.778000  1.0
  C  C241  1  0.013500  0.742100  0.278000  1.0
  C  C242  1  0.257900  0.986500  0.222000  1.0
  C  C243  1  0.993000  0.223000  0.683000  1.0
  C  C244  1  0.777000  0.007000  0.817000  1.0
  C  C245  1  0.007000  0.777000  0.317000  1.0
  C  C246  1  0.223000  0.993000  0.183000  1.0
  C  C247  1  0.975400  0.176600  0.698000  1.0
  C  C248  1  0.823400  0.024600  0.802000  1.0
  C  C249  1  0.024600  0.823400  0.302000  1.0
  C  C250  1  0.176600  0.975400  0.198000  1.0
  C  C251  1  0.964900  0.156100  0.739000  1.0
  C  C252  1  0.843900  0.035100  0.761000  1.0
  C  C253  1  0.035100  0.843900  0.261000  1.0
  C  C254  1  0.156100  0.964900  0.239000  1.0
  C  C255  1  0.980300  0.248100  0.764000  1.0
  C  C256  1  0.751900  0.019700  0.736000  1.0
  C  C257  1  0.019700  0.751900  0.236000  1.0
  C  C258  1  0.248100  0.980300  0.264000  1.0
  C  C259  1  0.042200  0.509600  0.678000  1.0
  C  C260  1  0.490400  0.957800  0.822000  1.0
  C  C261  1  0.957800  0.490400  0.322000  1.0
  C  C262  1  0.509600  0.042200  0.178000  1.0
  C  C263  1  0.055300  0.560700  0.671000  1.0
  C  C264  1  0.439300  0.944700  0.829000  1.0
  C  C265  1  0.944700  0.439300  0.329000  1.0
  C  C266  1  0.560700  0.055300  0.171000  1.0
  C  C267  1  0.050400  0.606800  0.707500  1.0
  C  C268  1  0.393200  0.949600  0.792500  1.0
  C  C269  1  0.949600  0.393200  0.292500  1.0
  C  C270  1  0.606800  0.050400  0.207500  1.0
  C  C271  1  0.070000  0.654000  0.697000  1.0
  C  C272  1  0.346000  0.930000  0.803000  1.0
  C  C273  1  0.930000  0.346000  0.303000  1.0
  C  C274  1  0.654000  0.070000  0.197000  1.0
  C  C275  1  0.062700  0.677300  0.657000  1.0
  C  C276  1  0.322700  0.937300  0.843000  1.0
  C  C277  1  0.937300  0.322700  0.343000  1.0
  C  C278  1  0.677300  0.062700  0.157000  1.0
  C  C279  1  0.057100  0.699100  0.731000  1.0
  C  C280  1  0.300900  0.942900  0.769000  1.0
  C  C281  1  0.942900  0.300900  0.269000  1.0
  C  C282  1  0.699100  0.057100  0.231000  1.0
  C  C283  1  0.040300  0.841900  0.856000  1.0
  C  C284  1  0.158100  0.959700  0.644000  1.0
  C  C285  1  0.959700  0.158100  0.144000  1.0
  C  C286  1  0.841900  0.040300  0.356000  1.0
  C  C287  1  0.034800  0.875600  0.893500  1.0
  C  C288  1  0.124400  0.965200  0.606500  1.0
  C  C289  1  0.965200  0.124400  0.106500  1.0
  C  C290  1  0.875600  0.034800  0.393500  1.0
  C  C291  1  0.039100  0.935900  0.881400  1.0
  C  C292  1  0.064100  0.960900  0.618600  1.0
  C  C293  1  0.960900  0.064100  0.118600  1.0
  C  C294  1  0.935900  0.039100  0.381400  1.0
  C  C295  1  0.038000  0.974200  0.916000  1.0
  C  C296  1  0.025800  0.962000  0.584000  1.0
  C  C297  1  0.962000  0.025800  0.084000  1.0
  C  C298  1  0.974200  0.038000  0.416000  1.0
  C  C299  1  0.037600  0.887400  0.012000  1.0
  C  C300  1  0.112600  0.962400  0.488000  1.0
  C  C301  1  0.962400  0.112600  0.988000  1.0
  C  C302  1  0.887400  0.037600  0.512000  1.0
  C  C303  1  0.032800  0.864400  0.938000  1.0
  C  C304  1  0.135600  0.967200  0.562000  1.0
  C  C305  1  0.967200  0.135600  0.062000  1.0
  C  C306  1  0.864400  0.032800  0.438000  1.0
  C  C307  1  0.151100  0.771900  0.818600  1.0
  C  C308  1  0.228100  0.848900  0.681400  1.0
  C  C309  1  0.848900  0.228100  0.181400  1.0
  C  C310  1  0.771900  0.151100  0.318600  1.0
  C  C311  1  0.205600  0.777800  0.829000  1.0
  C  C312  1  0.222200  0.794400  0.671000  1.0
  C  C313  1  0.794400  0.222200  0.171000  1.0
  C  C314  1  0.777800  0.205600  0.329000  1.0
  C  C315  1  0.219600  0.752000  0.867200  1.0
  C  C316  1  0.248000  0.780400  0.632800  1.0
  C  C317  1  0.780400  0.248000  0.132800  1.0
  C  C318  1  0.752000  0.219600  0.367200  1.0
  C  C319  1  0.236400  0.810800  0.807600  1.0
  C  C320  1  0.189200  0.763600  0.692400  1.0
  C  C321  1  0.763600  0.189200  0.192400  1.0
  C  C322  1  0.810800  0.236400  0.307600  1.0
  C  C323  1  0.292800  0.769200  0.035600  1.0
  C  C324  1  0.230800  0.707200  0.464400  1.0
  C  C325  1  0.707200  0.230800  0.964400  1.0
  C  C326  1  0.769200  0.292800  0.535600  1.0
  C  C327  1  0.264600  0.805400  0.060600  1.0
  C  C328  1  0.194600  0.735400  0.439400  1.0
  C  C329  1  0.735400  0.194600  0.939400  1.0
  C  C330  1  0.805400  0.264600  0.560600  1.0
  C  C331  1  0.213600  0.803200  0.067500  1.0
  C  C332  1  0.196800  0.786400  0.432500  1.0
  C  C333  1  0.786400  0.196800  0.932500  1.0
  C  C334  1  0.803200  0.213600  0.567500  1.0
  C  C335  1  0.194000  0.844000  0.093000  1.0
  C  C336  1  0.156000  0.806000  0.407000  1.0
  C  C337  1  0.806000  0.156000  0.907000  1.0
  C  C338  1  0.844000  0.194000  0.593000  1.0
  C  C339  1  0.299500  0.858500  0.071000  1.0
  C  C340  1  0.141500  0.700500  0.429000  1.0
  C  C341  1  0.700500  0.141500  0.929000  1.0
  C  C342  1  0.858500  0.299500  0.571000  1.0
  C  C343  1  0.292700  0.728500  0.923000  1.0
  C  C344  1  0.271500  0.707300  0.577000  1.0
  C  C345  1  0.707300  0.271500  0.077000  1.0
  C  C346  1  0.728500  0.292700  0.423000  1.0
  C  C347  1  0.658200  0.476800  0.820400  1.0
  C  C348  1  0.523200  0.341800  0.679600  1.0
  C  C349  1  0.341800  0.523200  0.179600  1.0
  C  C350  1  0.476800  0.658200  0.320400  1.0
  C  C351  1  0.625900  0.436700  0.838900  1.0
  C  C352  1  0.563300  0.374100  0.661100  1.0
  C  C353  1  0.374100  0.563300  0.161100  1.0
  C  C354  1  0.436700  0.625900  0.338900  1.0
  C  C355  1  0.644100  0.410700  0.877500  1.0
  C  C356  1  0.589300  0.355900  0.622500  1.0
  C  C357  1  0.355900  0.589300  0.122500  1.0
  C  C358  1  0.410700  0.644100  0.377500  1.0
  C  C359  1  0.617100  0.372300  0.897400  1.0
  C  C360  1  0.627700  0.382900  0.602600  1.0
  C  C361  1  0.382900  0.627700  0.102600  1.0
  C  C362  1  0.372300  0.617100  0.397400  1.0
  C  C363  1  0.559700  0.361300  0.881500  1.0
  C  C364  1  0.638700  0.440300  0.618500  1.0
  C  C365  1  0.440300  0.638700  0.118500  1.0
  C  C366  1  0.361300  0.559700  0.381500  1.0
  C  C367  1  0.539500  0.391300  0.840800  1.0
  C  C368  1  0.608700  0.460500  0.659200  1.0
  C  C369  1  0.460500  0.608700  0.159200  1.0
  C  C370  1  0.391300  0.539500  0.340800  1.0
  C  C371  1  0.572700  0.428100  0.817500  1.0
  C  C372  1  0.571900  0.427300  0.682500  1.0
  C  C373  1  0.427300  0.571900  0.182500  1.0
  C  C374  1  0.428100  0.572700  0.317500  1.0
  C  C375  1  0.370800  0.658200  0.063600  1.0
  C  C376  1  0.341800  0.629200  0.436400  1.0
  C  C377  1  0.629200  0.341800  0.936400  1.0
  C  C378  1  0.658200  0.370800  0.563600  1.0
  C  C379  1  0.425600  0.315400  0.083100  1.0
  C  C380  1  0.684600  0.574400  0.416900  1.0
  C  C381  1  0.574400  0.684600  0.916900  1.0
  C  C382  1  0.315400  0.425600  0.583100  1.0
  C  C383  1  0.407800  0.313600  0.036600  1.0
  C  C384  1  0.686400  0.592200  0.463400  1.0
  C  C385  1  0.592200  0.686400  0.963400  1.0
  C  C386  1  0.313600  0.407800  0.536600  1.0
  C  C387  1  0.357000  0.335200  0.027600  1.0
  C  C388  1  0.664800  0.643000  0.472400  1.0
  C  C389  1  0.643000  0.664800  0.972400  1.0
  C  C390  1  0.335200  0.357000  0.527600  1.0
  C  C391  1  0.329200  0.362800  0.062700  1.0
  C  C392  1  0.637200  0.670800  0.437300  1.0
  C  C393  1  0.670800  0.637200  0.937300  1.0
  C  C394  1  0.362800  0.329200  0.562700  1.0
  C  C395  1  0.353100  0.364700  0.105700  1.0
  C  C396  1  0.635300  0.646900  0.394300  1.0
  C  C397  1  0.646900  0.635300  0.894300  1.0
  C  C398  1  0.364700  0.353100  0.605700  1.0
  C  C399  1  0.401100  0.342900  0.114900  1.0
  C  C400  1  0.657100  0.598900  0.385100  1.0
  C  C401  1  0.598900  0.657100  0.885100  1.0
  C  C402  1  0.342900  0.401100  0.614900  1.0
  C  C403  1  0.033500  0.903700  0.972000  1.0
  C  C404  1  0.096300  0.966500  0.528000  1.0
  C  C405  1  0.966500  0.096300  0.028000  1.0
  C  C406  1  0.903700  0.033500  0.472000  1.0
  C  C407  1  0.362600  0.317200  0.948100  1.0
  C  C408  1  0.682800  0.637400  0.551900  1.0
  C  C409  1  0.637400  0.682800  0.051900  1.0
  C  C410  1  0.317200  0.362600  0.448100  1.0
  C  C411  1  0.045700  0.960900  0.964000  1.0
  C  C412  1  0.039100  0.954300  0.536000  1.0
  C  C413  1  0.954300  0.039100  0.036000  1.0
  C  C414  1  0.960900  0.045700  0.464000  1.0
  C  C415  1  0.290000  0.357400  0.973300  1.0
  C  C416  1  0.642600  0.710000  0.526700  1.0
  C  C417  1  0.710000  0.642600  0.026700  1.0
  C  C418  1  0.357400  0.290000  0.473300  1.0
  C  C419  1  0.969000  0.167200  0.815000  1.0
  C  C420  1  0.832800  0.031000  0.685000  1.0
  C  C421  1  0.031000  0.832800  0.185000  1.0
  C  C422  1  0.167200  0.969000  0.315000  1.0
  C  C423  1  0.655700  0.608700  0.817800  1.0
  C  C424  1  0.391300  0.344300  0.682200  1.0
  C  C425  1  0.344300  0.391300  0.182200  1.0
  C  C426  1  0.608700  0.655700  0.317800  1.0
  C  C427  1  0.719500  0.589300  0.868600  1.0
  C  C428  1  0.410700  0.280500  0.631400  1.0
  C  C429  1  0.280500  0.410700  0.131400  1.0
  C  C430  1  0.589300  0.719500  0.368600  1.0
  C  C431  1  0.279700  0.759900  0.878100  1.0
  C  C432  1  0.240100  0.720300  0.621900  1.0
  C  C433  1  0.720300  0.240100  0.121900  1.0
  C  C434  1  0.759900  0.279700  0.378100  1.0
  C  C435  1  0.068800  0.155800  0.898400  1.0
  C  C436  1  0.844200  0.931200  0.601600  1.0
  C  C437  1  0.931200  0.844200  0.101600  1.0
  C  C438  1  0.155800  0.068800  0.398400  1.0
  C  C439  1  0.332300  0.337300  0.973800  1.0
  C  C440  1  0.662700  0.667700  0.526200  1.0
  C  C441  1  0.667700  0.662700  0.026200  1.0
  C  C442  1  0.337300  0.332300  0.473800  1.0
  C  C443  1  0.676700  0.608500  0.859700  1.0
  C  C444  1  0.391500  0.323300  0.640300  1.0
  C  C445  1  0.323300  0.391500  0.140300  1.0
  C  C446  1  0.608500  0.676700  0.359700  1.0
  C  C447  1  0.315600  0.791800  0.853000  1.0
  C  C448  1  0.208200  0.684400  0.647000  1.0
  C  C449  1  0.684400  0.208200  0.147000  1.0
  C  C450  1  0.791800  0.315600  0.353000  1.0
  C  C451  1  0.293100  0.813100  0.817000  1.0
  C  C452  1  0.186900  0.706900  0.683000  1.0
  C  C453  1  0.706900  0.186900  0.183000  1.0
  C  C454  1  0.813100  0.293100  0.317000  1.0
  C  C455  1  0.134000  0.860000  0.088000  1.0
  C  C456  1  0.140000  0.866000  0.412000  1.0
  C  C457  1  0.866000  0.140000  0.912000  1.0
  C  C458  1  0.860000  0.134000  0.588000  1.0
  C  C459  1  0.285000  0.895000  0.110000  1.0
  C  C460  1  0.105000  0.715000  0.390000  1.0
  C  C461  1  0.715000  0.105000  0.890000  1.0
  C  C462  1  0.895000  0.285000  0.610000  1.0
  C  C463  1  0.073000  0.647000  0.620000  1.0
  C  C464  1  0.353000  0.927000  0.880000  1.0
  C  C465  1  0.927000  0.353000  0.380000  1.0
  C  C466  1  0.647000  0.073000  0.120000  1.0
  C  C467  1  0.065000  0.595000  0.623000  1.0
  C  C468  1  0.405000  0.935000  0.877000  1.0
  C  C469  1  0.935000  0.405000  0.377000  1.0
  C  C470  1  0.595000  0.065000  0.123000  1.0
  C  C471  1  0.579900  0.598100  0.732000  1.0
  C  C472  1  0.401900  0.420100  0.768000  1.0
  C  C473  1  0.420100  0.401900  0.268000  1.0
  C  C474  1  0.598100  0.579900  0.232000  1.0
  C  C475  1  0.220000  0.898000  0.098000  1.0
  C  C476  1  0.102000  0.780000  0.402000  1.0
  C  C477  1  0.780000  0.102000  0.902000  1.0
  C  C478  1  0.898000  0.220000  0.598000  1.0
  C  C479  1  0.404000  0.226000  0.871000  1.0
  C  C480  1  0.774000  0.596000  0.629000  1.0
  C  C481  1  0.596000  0.774000  0.129000  1.0
  C  C482  1  0.226000  0.404000  0.371000  1.0
  C  C483  1  0.072000  0.492000  0.824000  1.0
  C  C484  1  0.508000  0.928000  0.676000  1.0
  C  C485  1  0.928000  0.508000  0.176000  1.0
  C  C486  1  0.492000  0.072000  0.324000  1.0
  C  C487  1  0.977000  0.717000  0.024000  1.0
  C  C488  1  0.283000  0.023000  0.476000  1.0
  C  C489  1  0.023000  0.283000  0.976000  1.0
  C  C490  1  0.717000  0.977000  0.524000  1.0
  Cu  Cu491  1  0.340310  0.320210  0.885150  1.0
  Cu  Cu492  1  0.679790  0.659690  0.614850  1.0
  Cu  Cu493  1  0.659690  0.679790  0.114850  1.0
  Cu  Cu494  1  0.320210  0.340310  0.385150  1.0
  Cu  Cu495  1  0.258660  0.366840  0.914050  1.0
  Cu  Cu496  1  0.633160  0.741340  0.585950  1.0
  Cu  Cu497  1  0.741340  0.633160  0.085950  1.0
  Cu  Cu498  1  0.366840  0.258660  0.414050  1.0
  Cu  Cu499  1  0.021190  0.426630  0.739790  1.0
  Cu  Cu500  1  0.573370  0.978810  0.760210  1.0
  Cu  Cu501  1  0.978810  0.573370  0.260210  1.0
  Cu  Cu502  1  0.426630  0.021190  0.239790  1.0
  Cu  Cu503  1  0.026510  0.399090  0.654030  1.0
  Cu  Cu504  1  0.600910  0.973490  0.845970  1.0
  Cu  Cu505  1  0.973490  0.600910  0.345970  1.0
  Cu  Cu506  1  0.399090  0.026510  0.154030  1.0
  Cu  Cu507  1  0.682700  0.567080  0.768160  1.0
  Cu  Cu508  1  0.432920  0.317300  0.731840  1.0
  Cu  Cu509  1  0.317300  0.432920  0.231840  1.0
  Cu  Cu510  1  0.567080  0.682700  0.268160  1.0
  Cu  Cu511  1  0.758020  0.549060  0.827080  1.0
  Cu  Cu512  1  0.450940  0.241980  0.672920  1.0
  Cu  Cu513  1  0.241980  0.450940  0.172920  1.0
  Cu  Cu514  1  0.549060  0.758020  0.327080  1.0
  Cu  Cu515  1  0.040790  0.728690  0.827000  1.0
  Cu  Cu516  1  0.271310  0.959210  0.673000  1.0
  Cu  Cu517  1  0.959210  0.271310  0.173000  1.0
  Cu  Cu518  1  0.728690  0.040790  0.327000  1.0
  Cu  Cu519  1  0.053510  0.802510  0.768200  1.0
  Cu  Cu520  1  0.197490  0.946490  0.731800  1.0
  Cu  Cu521  1  0.946490  0.197490  0.231800  1.0
  Cu  Cu522  1  0.802510  0.053510  0.268200  1.0
  Cu  Cu523  1  0.377390  0.723790  0.991600  1.0
  Cu  Cu524  1  0.276210  0.622610  0.508400  1.0
  Cu  Cu525  1  0.622610  0.276210  0.008400  1.0
  Cu  Cu526  1  0.723790  0.377390  0.491600  1.0
  Cu  Cu527  1  0.287200  0.664140  0.994520  1.0
  Cu  Cu528  1  0.335860  0.712800  0.505480  1.0
  Cu  Cu529  1  0.712800  0.335860  0.005480  1.0
  Cu  Cu530  1  0.664140  0.287200  0.494520  1.0
  Cu  Cu531  1  0.027530  0.802810  0.083000  1.0
  Cu  Cu532  1  0.197190  0.972470  0.417000  1.0
  Cu  Cu533  1  0.972470  0.197190  0.917000  1.0
  Cu  Cu534  1  0.802810  0.027530  0.583000  1.0
  Cu  Cu535  1  0.038680  0.903420  0.111900  1.0
  Cu  Cu536  1  0.096580  0.961320  0.388100  1.0
  Cu  Cu537  1  0.961320  0.096580  0.888100  1.0
  Cu  Cu538  1  0.903420  0.038680  0.611900  1.0
  O  O539  1  0.376600  0.390200  0.884800  1.0
  O  O540  1  0.609800  0.623400  0.615200  1.0
  O  O541  1  0.623400  0.609800  0.115200  1.0
  O  O542  1  0.390200  0.376600  0.384800  1.0
  O  O543  1  0.308300  0.428900  0.910300  1.0
  O  O544  1  0.571100  0.691700  0.589700  1.0
  O  O545  1  0.691700  0.571100  0.089700  1.0
  O  O546  1  0.428900  0.308300  0.410300  1.0
  O  O547  1  0.402900  0.661700  0.954800  1.0
  O  O548  1  0.338300  0.597100  0.545200  1.0
  O  O549  1  0.597100  0.338300  0.045200  1.0
  O  O550  1  0.661700  0.402900  0.454800  1.0
  O  O551  1  0.323200  0.612800  0.961800  1.0
  O  O552  1  0.387200  0.676800  0.538200  1.0
  O  O553  1  0.676800  0.387200  0.038200  1.0
  O  O554  1  0.612800  0.323200  0.461800  1.0
  O  O555  1  0.308200  0.335000  0.826600  1.0
  O  O556  1  0.665000  0.691800  0.673400  1.0
  O  O557  1  0.691800  0.665000  0.173400  1.0
  O  O558  1  0.335000  0.308200  0.326600  1.0
  O  O559  1  0.235900  0.372500  0.849500  1.0
  O  O560  1  0.627500  0.764100  0.650500  1.0
  O  O561  1  0.764100  0.627500  0.150500  1.0
  O  O562  1  0.372500  0.235900  0.349500  1.0
  O  O563  1  0.092300  0.409700  0.746300  1.0
  O  O564  1  0.590300  0.907700  0.753700  1.0
  O  O565  1  0.907700  0.590300  0.253700  1.0
  O  O566  1  0.409700  0.092300  0.246300  1.0
  O  O567  1  0.101900  0.387900  0.672500  1.0
  O  O568  1  0.612100  0.898100  0.827500  1.0
  O  O569  1  0.898100  0.612100  0.327500  1.0
  O  O570  1  0.387900  0.101900  0.172500  1.0
  O  O571  1  0.292600  0.254400  0.888000  1.0
  O  O572  1  0.745600  0.707400  0.612000  1.0
  O  O573  1  0.707400  0.745600  0.112000  1.0
  O  O574  1  0.254400  0.292600  0.388000  1.0
  O  O575  1  0.220500  0.294900  0.914600  1.0
  O  O576  1  0.705100  0.779500  0.585400  1.0
  O  O577  1  0.779500  0.705100  0.085400  1.0
  O  O578  1  0.294900  0.220500  0.414600  1.0
  O  O579  1  0.945400  0.437600  0.723400  1.0
  O  O580  1  0.562400  0.054600  0.776600  1.0
  O  O581  1  0.054600  0.562400  0.276600  1.0
  O  O582  1  0.437600  0.945400  0.223400  1.0
  O  O583  1  0.954100  0.413300  0.650800  1.0
  O  O584  1  0.586700  0.045900  0.849200  1.0
  O  O585  1  0.045900  0.586700  0.349200  1.0
  O  O586  1  0.413300  0.954100  0.150800  1.0
  O  O587  1  0.787200  0.511000  0.776300  1.0
  O  O588  1  0.489000  0.212800  0.723700  1.0
  O  O589  1  0.212800  0.489000  0.223700  1.0
  O  O590  1  0.511000  0.787200  0.276300  1.0
  O  O591  1  0.720100  0.526100  0.726800  1.0
  O  O592  1  0.473900  0.279900  0.773200  1.0
  O  O593  1  0.279900  0.473900  0.273200  1.0
  O  O594  1  0.526100  0.720100  0.226800  1.0
  O  O595  1  0.017000  0.449800  0.810800  1.0
  O  O596  1  0.550200  0.983000  0.689200  1.0
  O  O597  1  0.983000  0.550200  0.189200  1.0
  O  O598  1  0.449800  0.017000  0.310800  1.0
  O  O599  1  0.794800  0.613400  0.807200  1.0
  O  O600  1  0.386600  0.205200  0.692800  1.0
  O  O601  1  0.205200  0.386600  0.192800  1.0
  O  O602  1  0.613400  0.794800  0.307200  1.0
  O  O603  1  0.735400  0.627000  0.754100  1.0
  O  O604  1  0.373000  0.264600  0.745900  1.0
  O  O605  1  0.264600  0.373000  0.245900  1.0
  O  O606  1  0.627000  0.735400  0.254100  1.0
  O  O607  1  0.963400  0.727600  0.810000  1.0
  O  O608  1  0.272400  0.036600  0.690000  1.0
  O  O609  1  0.036600  0.272400  0.190000  1.0
  O  O610  1  0.727600  0.963400  0.310000  1.0
  O  O611  1  0.979800  0.788000  0.757900  1.0
  O  O612  1  0.212000  0.020200  0.742100  1.0
  O  O613  1  0.020200  0.212000  0.242100  1.0
  O  O614  1  0.788000  0.979800  0.257900  1.0
  O  O615  1  0.029400  0.379400  0.579700  1.0
  O  O616  1  0.620600  0.970600  0.920300  1.0
  O  O617  1  0.970600  0.620600  0.420300  1.0
  O  O618  1  0.379400  0.029400  0.079700  1.0
  O  O619  1  0.998400  0.351400  0.746000  1.0
  O  O620  1  0.648600  0.001600  0.754000  1.0
  O  O621  1  0.001600  0.648600  0.254000  1.0
  O  O622  1  0.351400  0.998400  0.246000  1.0
  O  O623  1  0.007700  0.325300  0.677000  1.0
  O  O624  1  0.674700  0.992300  0.823000  1.0
  O  O625  1  0.992300  0.674700  0.323000  1.0
  O  O626  1  0.325300  0.007700  0.177000  1.0
  O  O627  1  0.627100  0.586900  0.716300  1.0
  O  O628  1  0.413100  0.372900  0.783700  1.0
  O  O629  1  0.372900  0.413100  0.283700  1.0
  O  O630  1  0.586900  0.627100  0.216300  1.0
  O  O631  1  0.041000  0.498000  0.721100  1.0
  O  O632  1  0.502000  0.959000  0.778900  1.0
  O  O633  1  0.959000  0.502000  0.278900  1.0
  O  O634  1  0.498000  0.041000  0.221100  1.0
  O  O635  1  0.039400  0.473000  0.647700  1.0
  O  O636  1  0.527000  0.960600  0.852300  1.0
  O  O637  1  0.960600  0.527000  0.352300  1.0
  O  O638  1  0.473000  0.039400  0.147700  1.0
  O  O639  1  0.058300  0.743700  0.725200  1.0
  O  O640  1  0.256300  0.941700  0.774800  1.0
  O  O641  1  0.941700  0.256300  0.274800  1.0
  O  O642  1  0.743700  0.058300  0.225200  1.0
  O  O643  1  0.051900  0.682300  0.772600  1.0
  O  O644  1  0.317700  0.948100  0.727400  1.0
  O  O645  1  0.948100  0.317700  0.227400  1.0
  O  O646  1  0.682300  0.051900  0.272600  1.0
  O  O647  1  0.818600  0.527400  0.875400  1.0
  O  O648  1  0.472600  0.181400  0.624600  1.0
  O  O649  1  0.181400  0.472600  0.124600  1.0
  O  O650  1  0.527400  0.818600  0.375400  1.0
  O  O651  1  0.044400  0.850000  0.813000  1.0
  O  O652  1  0.150000  0.955600  0.687000  1.0
  O  O653  1  0.955600  0.150000  0.187000  1.0
  O  O654  1  0.850000  0.044400  0.313000  1.0
  O  O655  1  0.032600  0.789400  0.866500  1.0
  O  O656  1  0.210600  0.967400  0.633500  1.0
  O  O657  1  0.967400  0.210600  0.133500  1.0
  O  O658  1  0.789400  0.032600  0.366500  1.0
  O  O659  1  0.113700  0.737100  0.837600  1.0
  O  O660  1  0.262900  0.886300  0.662400  1.0
  O  O661  1  0.886300  0.262900  0.162400  1.0
  O  O662  1  0.737100  0.113700  0.337600  1.0
  O  O663  1  0.127000  0.801400  0.790400  1.0
  O  O664  1  0.198600  0.873000  0.709600  1.0
  O  O665  1  0.873000  0.198600  0.209600  1.0
  O  O666  1  0.801400  0.127000  0.290400  1.0
  O  O667  1  0.261500  0.723500  0.028300  1.0
  O  O668  1  0.276500  0.738500  0.471700  1.0
  O  O669  1  0.738500  0.276500  0.971700  1.0
  O  O670  1  0.723500  0.261500  0.528300  1.0
  O  O671  1  0.341100  0.775300  0.024400  1.0
  O  O672  1  0.224700  0.658900  0.475600  1.0
  O  O673  1  0.658900  0.224700  0.975600  1.0
  O  O674  1  0.775300  0.341100  0.524400  1.0
  O  O675  1  0.453000  0.777800  0.991600  1.0
  O  O676  1  0.222200  0.547000  0.508400  1.0
  O  O677  1  0.547000  0.222200  0.008400  1.0
  O  O678  1  0.777800  0.453000  0.491600  1.0
  O  O679  1  0.266400  0.694800  0.940700  1.0
  O  O680  1  0.305200  0.733600  0.559300  1.0
  O  O681  1  0.733600  0.305200  0.059300  1.0
  O  O682  1  0.694800  0.266400  0.440700  1.0
  O  O683  1  0.341800  0.747800  0.935700  1.0
  O  O684  1  0.252200  0.658200  0.564300  1.0
  O  O685  1  0.658200  0.252200  0.064300  1.0
  O  O686  1  0.747800  0.341800  0.435700  1.0
  O  O687  1  0.213700  0.609700  0.997800  1.0
  O  O688  1  0.390300  0.786300  0.502200  1.0
  O  O689  1  0.786300  0.390300  0.002200  1.0
  O  O690  1  0.609700  0.213700  0.497800  1.0
  O  O691  1  0.018100  0.721500  0.054900  1.0
  O  O692  1  0.278500  0.981900  0.445100  1.0
  O  O693  1  0.981900  0.278500  0.945100  1.0
  O  O694  1  0.721500  0.018100  0.554900  1.0
  O  O695  1  0.706100  0.488100  0.837900  1.0
  O  O696  1  0.511900  0.293900  0.662100  1.0
  O  O697  1  0.293900  0.511900  0.162100  1.0
  O  O698  1  0.488100  0.706100  0.337900  1.0
  O  O699  1  0.643100  0.506700  0.788900  1.0
  O  O700  1  0.493300  0.356900  0.711100  1.0
  O  O701  1  0.356900  0.493300  0.211100  1.0
  O  O702  1  0.506700  0.643100  0.288900  1.0
  O  O703  1  0.319700  0.642300  0.051600  1.0
  O  O704  1  0.357700  0.680300  0.448400  1.0
  O  O705  1  0.680300  0.357700  0.948400  1.0
  O  O706  1  0.642300  0.319700  0.551600  1.0
  O  O707  1  0.400700  0.689100  0.043700  1.0
  O  O708  1  0.310900  0.599300  0.456300  1.0
  O  O709  1  0.599300  0.310900  0.956300  1.0
  O  O710  1  0.689100  0.400700  0.543700  1.0
  O  O711  1  0.049600  0.984000  0.142600  1.0
  O  O712  1  0.016000  0.950400  0.357400  1.0
  O  O713  1  0.950400  0.016000  0.857400  1.0
  O  O714  1  0.984000  0.049600  0.642600  1.0
  O  O715  1  0.956100  0.806100  0.084600  1.0
  O  O716  1  0.193900  0.043900  0.415400  1.0
  O  O717  1  0.043900  0.193900  0.915400  1.0
  O  O718  1  0.806100  0.956100  0.584600  1.0
  O  O719  1  0.959800  0.895600  0.109700  1.0
  O  O720  1  0.104400  0.040200  0.390300  1.0
  O  O721  1  0.040200  0.104400  0.890300  1.0
  O  O722  1  0.895600  0.959800  0.609700  1.0
  O  O723  1  0.033200  0.792000  0.148900  1.0
  O  O724  1  0.208000  0.966800  0.351100  1.0
  O  O725  1  0.966800  0.208000  0.851100  1.0
  O  O726  1  0.792000  0.033200  0.648900  1.0
  O  O727  1  0.038300  0.878100  0.166700  1.0
  O  O728  1  0.121900  0.961700  0.333300  1.0
  O  O729  1  0.961700  0.121900  0.833300  1.0
  O  O730  1  0.878100  0.038300  0.666700  1.0
  O  O731  1  0.112100  0.893300  0.104900  1.0
  O  O732  1  0.106700  0.887900  0.395100  1.0
  O  O733  1  0.887900  0.106700  0.895100  1.0
  O  O734  1  0.893300  0.112100  0.604900  1.0
  O  O735  1  0.105200  0.808600  0.081900  1.0
  O  O736  1  0.191400  0.894800  0.418100  1.0
  O  O737  1  0.894800  0.191400  0.918100  1.0
  O  O738  1  0.808600  0.105200  0.581900  1.0
  O  O739  1  0.036100  0.921300  0.046700  1.0
  O  O740  1  0.078700  0.963900  0.453300  1.0
  O  O741  1  0.963900  0.078700  0.953300  1.0
  O  O742  1  0.921300  0.036100  0.546700  1.0
  O  O743  1  0.026000  0.839000  0.026500  1.0
  O  O744  1  0.161000  0.974000  0.473500  1.0
  O  O745  1  0.974000  0.161000  0.973500  1.0
  O  O746  1  0.839000  0.026000  0.526500  1.0
  O  O747  1  0.189900  0.407900  0.937900  1.0
  O  O748  1  0.592100  0.810100  0.562100  1.0
  O  O749  1  0.810100  0.592100  0.062100  1.0
  O  O750  1  0.407900  0.189900  0.437900  1.0
  O  O751  1  0.406600  0.280400  0.856700  1.0
  O  O752  1  0.719600  0.593400  0.643300  1.0
  O  O753  1  0.593400  0.719600  0.143300  1.0
  O  O754  1  0.280400  0.406600  0.356700  1.0
  O  O755  1  0.064900  0.863900  0.719100  1.0
  O  O756  1  0.136100  0.935100  0.780900  1.0
  O  O757  1  0.935100  0.136100  0.280900  1.0
  O  O758  1  0.863900  0.064900  0.219100  1.0
  O  O759  1  0.031600  0.667200  0.878800  1.0
  O  O760  1  0.332800  0.968400  0.621200  1.0
  O  O761  1  0.968400  0.332800  0.121200  1.0
  O  O762  1  0.667200  0.031600  0.378800  1.0
