# generated using pymatgen
data_CuH60C55N9ClO6
_symmetry_space_group_name_H-M   'P 1'
_cell_length_a   13.20410000
_cell_length_b   20.19220000
_cell_length_c   21.32800000
_cell_angle_alpha   73.46800000
_cell_angle_beta   74.48000000
_cell_angle_gamma   78.01700000
_symmetry_Int_Tables_number   1
_chemical_formula_structural   CuH60C55N9ClO6
_chemical_formula_sum   'Cu4 H240 C220 N36 Cl4 O24'
_cell_volume   5199.13572718
_cell_formula_units_Z   4
loop_
 _symmetry_equiv_pos_site_id
 _symmetry_equiv_pos_as_xyz
  1  'x, y, z'
loop_
 _atom_site_type_symbol
 _atom_site_label
 _atom_site_symmetry_multiplicity
 _atom_site_fract_x
 _atom_site_fract_y
 _atom_site_fract_z
 _atom_site_occupancy
  Cu  Cu1  1  0.219040  0.569380  0.187220  1
  Cu  Cu2  1  0.780960  0.430620  0.812780  1
  Cu  Cu3  1  0.102470  0.175790  0.564220  1
  Cu  Cu4  1  0.897530  0.824210  0.435780  1
  H  H5  1  0.221600  0.549600  0.341000  1
  H  H6  1  0.778400  0.450400  0.659000  1
  H  H7  1  0.139200  0.496600  0.372200  1
  H  H8  1  0.860800  0.503400  0.627800  1
  H  H9  1  0.091700  0.128900  0.353300  1
  H  H10  1  0.908300  0.871100  0.646700  1
  H  H11  1  0.030200  0.694400  0.182000  1
  H  H12  1  0.969800  0.305600  0.818000  1
  H  H13  1  0.413900  0.649300  0.124500  1
  H  H14  1  0.586100  0.350700  0.875500  1
  H  H15  1  0.924200  0.188100  0.687200  1
  H  H16  1  0.075800  0.811900  0.312800  1
  H  H17  1  0.141700  0.008700  0.381300  1
  H  H18  1  0.858300  0.991300  0.618700  1
  H  H19  1  0.721700  0.719100  0.307400  1
  H  H20  1  0.278300  0.280900  0.692600  1
  H  H21  1  0.599600  0.273700  0.708200  1
  H  H22  1  0.400400  0.726300  0.291800  1
  H  H23  1  0.569100  0.649400  0.035500  1
  H  H24  1  0.430900  0.350600  0.964500  1
  H  H25  1  0.428300  0.046800  0.657300  1
  H  H26  1  0.571700  0.953200  0.342700  1
  H  H27  1  0.347900  0.425500  0.255000  1
  H  H28  1  0.652100  0.574500  0.745000  1
  H  H29  1  0.332800  0.443000  0.324300  1
  H  H30  1  0.667200  0.557000  0.675700  1
  H  H31  1  0.120300  0.337200  0.231700  1
  H  H32  1  0.879700  0.662800  0.768300  1
  H  H33  1  0.147900  0.020600  0.563900  1
  H  H34  1  0.852100  0.979400  0.436100  1
  H  H35  1  0.013000  0.340000  0.449300  1
  H  H36  1  0.987000  0.660000  0.550700  1
  H  H37  1  0.087100  0.343500  0.494500  1
  H  H38  1  0.912900  0.656500  0.505500  1
  H  H39  1  0.088100  0.243800  0.384000  1
  H  H40  1  0.911900  0.756200  0.616000  1
  H  H41  1  0.986000  0.231900  0.441800  1
  H  H42  1  0.014000  0.768100  0.558200  1
  H  H43  1  0.600600  0.805900  0.259700  1
  H  H44  1  0.399400  0.194100  0.740300  1
  H  H45  1  0.791100  0.749900  0.104800  1
  H  H46  1  0.208900  0.250100  0.895200  1
  H  H47  1  0.233200  0.520100  0.857200  1
  H  H48  1  0.766800  0.479900  0.142800  1
  H  H49  1  0.680800  0.676100  0.183300  1
  H  H50  1  0.319200  0.323900  0.816700  1
  H  H51  1  0.720700  0.356000  0.627700  1
  H  H52  1  0.279300  0.644000  0.372300  1
  H  H53  1  0.983200  0.584500  0.405100  1
  H  H54  1  0.016800  0.415500  0.594900  1
  H  H55  1  0.686300  0.717900  0.956900  1
  H  H56  1  0.313700  0.282100  0.043100  1
  H  H57  1  0.111700  0.552600  0.612700  1
  H  H58  1  0.888300  0.447400  0.387300  1
  H  H59  1  0.093300  0.588600  0.671700  1
  H  H60  1  0.906700  0.411400  0.328300  1
  H  H61  1  0.860100  0.678600  0.369600  1
  H  H62  1  0.139900  0.321400  0.630400  1
  H  H63  1  0.131200  0.891400  0.434800  1
  H  H64  1  0.868800  0.108600  0.565200  1
  H  H65  1  0.631900  0.555200  0.231400  1
  H  H66  1  0.368100  0.444800  0.768600  1
  H  H67  1  0.749000  0.179400  0.893900  1
  H  H68  1  0.251000  0.820600  0.106100  1
  H  H69  1  0.837000  0.898100  0.125600  1
  H  H70  1  0.163000  0.101900  0.874400  1
  H  H71  1  0.292600  0.136200  0.634500  1
  H  H72  1  0.707400  0.863800  0.365500  1
  H  H73  1  0.078300  0.455200  0.300300  1
  H  H74  1  0.921700  0.544800  0.699700  1
  H  H75  1  0.177500  0.397200  0.304400  1
  H  H76  1  0.822500  0.602800  0.695600  1
  H  H77  1  0.098300  0.462000  0.703600  1
  H  H78  1  0.901700  0.538000  0.296400  1
  H  H79  1  0.221400  0.457400  0.675200  1
  H  H80  1  0.778600  0.542600  0.324800  1
  H  H81  1  0.842800  0.383100  0.526400  1
  H  H82  1  0.157200  0.616900  0.473600  1
  H  H83  1  0.279200  0.589100  0.649100  1
  H  H84  1  0.720800  0.410900  0.350900  1
  H  H85  1  0.292300  0.558600  0.586900  1
  H  H86  1  0.707700  0.441400  0.413100  1
  H  H87  1  0.114400  0.338200  0.124500  1
  H  H88  1  0.885600  0.661800  0.875500  1
  H  H89  1  0.023900  0.380500  0.034900  1
  H  H90  1  0.976100  0.619500  0.965100  1
  H  H91  1  0.855200  0.217300  0.790000  1
  H  H92  1  0.144800  0.782700  0.210000  1
  H  H93  1  0.516600  0.478400  0.297400  1
  H  H94  1  0.483400  0.521600  0.702600  1
  H  H95  1  0.417900  0.283400  0.433400  1
  H  H96  1  0.582100  0.716600  0.566600  1
  H  H97  1  0.224300  0.307300  0.419300  1
  H  H98  1  0.775700  0.692700  0.580700  1
  H  H99  1  0.246700  0.231700  0.408100  1
  H  H100  1  0.753300  0.768300  0.591900  1
  H  H101  1  0.244700  0.510400  0.965000  1
  H  H102  1  0.755300  0.489600  0.035000  1
  H  H103  1  0.532200  0.228400  0.503600  1
  H  H104  1  0.467800  0.771600  0.496400  1
  H  H105  1  0.260500  0.931500  0.568300  1
  H  H106  1  0.739500  0.068500  0.431700  1
  H  H107  1  0.539200  0.984300  0.727100  1
  H  H108  1  0.460800  0.015700  0.272900  1
  H  H109  1  0.014900  0.390000  0.926600  1
  H  H110  1  0.985100  0.610000  0.073400  1
  H  H111  1  0.495500  0.230900  0.811900  1
  H  H112  1  0.504500  0.769100  0.188100  1
  H  H113  1  0.179000  0.773600  0.476900  1
  H  H114  1  0.821000  0.226400  0.523100  1
  H  H115  1  0.703400  0.145100  0.672100  1
  H  H116  1  0.296600  0.854900  0.327900  1
  H  H117  1  0.958800  0.811700  0.172500  1
  H  H118  1  0.041200  0.188300  0.827500  1
  H  H119  1  0.300000  0.813200  0.613200  1
  H  H120  1  0.700000  0.186800  0.386800  1
  H  H121  1  0.592900  0.207400  0.602200  1
  H  H122  1  0.407100  0.792600  0.397800  1
  H  H123  1  0.827000  0.845800  0.791800  1
  H  H124  1  0.173000  0.154200  0.208200  1
  H  H125  1  0.908600  0.899100  0.769400  1
  H  H126  1  0.091400  0.100900  0.230600  1
  H  H127  1  0.178200  0.736800  0.013400  1
  H  H128  1  0.821800  0.263200  0.986600  1
  H  H129  1  0.298600  0.743600  0.998700  1
  H  H130  1  0.701400  0.256400  0.001300  1
  H  H131  1  0.980500  0.805200  0.840700  1
  H  H132  1  0.019500  0.194800  0.159300  1
  H  H133  1  0.936400  0.861800  0.882600  1
  H  H134  1  0.063600  0.138200  0.117400  1
  H  H135  1  0.503000  0.984000  0.088100  1
  H  H136  1  0.497000  0.016000  0.911900  1
  H  H137  1  0.587400  0.013100  0.023600  1
  H  H138  1  0.412600  0.986900  0.976400  1
  H  H139  1  0.438200  0.121900  0.036800  1
  H  H140  1  0.561800  0.878100  0.963200  1
  H  H141  1  0.474900  0.173600  0.066300  1
  H  H142  1  0.525100  0.826400  0.933700  1
  H  H143  1  0.040700  0.029700  0.776300  1
  H  H144  1  0.959300  0.970300  0.223700  1
  H  H145  1  0.041100  0.970900  0.742000  1
  H  H146  1  0.958900  0.029100  0.258000  1
  H  H147  1  0.732400  0.908800  0.877200  1
  H  H148  1  0.267600  0.091200  0.122800  1
  H  H149  1  0.803800  0.967100  0.837500  1
  H  H150  1  0.196200  0.032900  0.162500  1
  H  H151  1  0.619300  0.082600  0.093600  1
  H  H152  1  0.380700  0.917400  0.906400  1
  H  H153  1  0.506900  0.067300  0.137300  1
  H  H154  1  0.493100  0.932700  0.862700  1
  H  H155  1  0.220300  0.029600  0.728600  1
  H  H156  1  0.779700  0.970400  0.271400  1
  H  H157  1  0.218400  0.966600  0.699600  1
  H  H158  1  0.781600  0.033400  0.300400  1
  H  H159  1  0.228100  0.665000  0.935500  1
  H  H160  1  0.771900  0.335000  0.064500  1
  H  H161  1  0.339100  0.690300  0.914900  1
  H  H162  1  0.660900  0.309700  0.085100  1
  H  H163  1  0.233600  0.750900  0.840300  1
  H  H164  1  0.766400  0.249100  0.159700  1
  H  H165  1  0.149900  0.778600  0.898000  1
  H  H166  1  0.850100  0.221400  0.102000  1
  H  H167  1  0.336100  0.887900  0.775600  1
  H  H168  1  0.663900  0.112100  0.224400  1
  H  H169  1  0.242400  0.852800  0.773600  1
  H  H170  1  0.757600  0.147200  0.226400  1
  H  H171  1  0.353700  0.805600  0.866100  1
  H  H172  1  0.646300  0.194400  0.133900  1
  H  H173  1  0.251800  0.845600  0.904100  1
  H  H174  1  0.748200  0.154400  0.095900  1
  H  H175  1  0.467000  0.173000  0.933000  1
  H  H176  1  0.533000  0.827000  0.067000  1
  H  H177  1  0.858000  0.810000  0.992000  1
  H  H178  1  0.142000  0.190000  0.008000  1
  H  H179  1  0.179000  0.532000  0.067000  1
  H  H180  1  0.821000  0.468000  0.933000  1
  H  H181  1  0.064000  0.433000  0.805000  1
  H  H182  1  0.936000  0.567000  0.195000  1
  H  H183  1  0.221700  0.962100  0.829500  1
  H  H184  1  0.778300  0.037900  0.170500  1
  H  H185  1  0.127400  0.926600  0.829000  1
  H  H186  1  0.872600  0.073400  0.171000  1
  H  H187  1  0.291000  0.694000  0.620000  1
  H  H188  1  0.709000  0.306000  0.380000  1
  H  H189  1  0.755000  0.046000  0.755000  1
  H  H190  1  0.245000  0.954000  0.245000  1
  H  H191  1  0.552000  0.906000  0.173000  1
  H  H192  1  0.448000  0.094000  0.827000  1
  H  H193  1  0.439600  0.567800  0.475500  1
  H  H194  1  0.560400  0.432200  0.524500  1
  H  H195  1  0.430500  0.642700  0.486100  1
  H  H196  1  0.569500  0.357300  0.513900  1
  H  H197  1  0.534300  0.589600  0.492700  1
  H  H198  1  0.465700  0.410400  0.507300  1
  H  H199  1  0.523900  0.804900  0.772700  1
  H  H200  1  0.476100  0.195100  0.227300  1
  H  H201  1  0.586300  0.847400  0.797000  1
  H  H202  1  0.413700  0.152600  0.203000  1
  H  H203  1  0.578400  0.768700  0.833300  1
  H  H204  1  0.421600  0.231300  0.166700  1
  H  H205  1  0.222900  0.678600  0.771500  1
  H  H206  1  0.777100  0.321400  0.228500  1
  H  H207  1  0.159400  0.621900  0.769600  1
  H  H208  1  0.840600  0.378100  0.230400  1
  H  H209  1  0.121000  0.661000  0.827500  1
  H  H210  1  0.879000  0.339000  0.172500  1
  H  H211  1  0.455500  0.554900  0.876200  1
  H  H212  1  0.544500  0.445100  0.123800  1
  H  H213  1  0.439900  0.539100  0.954300  1
  H  H214  1  0.560100  0.460900  0.045700  1
  H  H215  1  0.537500  0.499800  0.912200  1
  H  H216  1  0.462500  0.500200  0.087800  1
  H  H217  1  0.301300  0.741900  0.998200  1
  H  H218  1  0.698700  0.258100  0.001800  1
  H  H219  1  0.267800  0.700000  0.957900  1
  H  H220  1  0.732200  0.300000  0.042100  1
  H  H221  1  0.205800  0.019900  0.756800  1
  H  H222  1  0.794200  0.980100  0.243200  1
  H  H223  1  0.222400  0.000200  0.689100  1
  H  H224  1  0.777600  0.999800  0.310900  1
  H  H225  1  0.108700  0.917000  0.843300  1
  H  H226  1  0.891300  0.083000  0.156700  1
  H  H227  1  0.208600  0.938000  0.854400  1
  H  H228  1  0.791400  0.062000  0.145600  1
  H  H229  1  0.130500  0.753100  0.049700  1
  H  H230  1  0.869500  0.246900  0.950300  1
  H  H231  1  0.113700  0.729800  0.989800  1
  H  H232  1  0.886300  0.270200  0.010200  1
  H  H233  1  0.086600  0.855200  0.964000  1
  H  H234  1  0.913400  0.144800  0.036000  1
  H  H235  1  0.200000  0.855800  0.974000  1
  H  H236  1  0.800000  0.144200  0.026000  1
  H  H237  1  0.174400  0.799800  0.874400  1
  H  H238  1  0.825600  0.200200  0.125600  1
  H  H239  1  0.280500  0.818200  0.880300  1
  H  H240  1  0.719500  0.181800  0.119700  1
  H  H241  1  0.214200  0.880300  0.749400  1
  H  H242  1  0.785800  0.119700  0.250600  1
  H  H243  1  0.309700  0.909300  0.759300  1
  H  H244  1  0.690300  0.090700  0.240700  1
  C  C245  1  0.168100  0.493200  0.098000  1
  C  C246  1  0.831900  0.506800  0.902000  1
  C  C247  1  0.167300  0.530200  0.331900  1
  C  C248  1  0.832700  0.469800  0.668100  1
  C  C249  1  0.105000  0.106400  0.395500  1
  C  C250  1  0.895000  0.893600  0.604500  1
  C  C251  1  0.020600  0.672900  0.227600  1
  C  C252  1  0.979400  0.327100  0.772400  1
  C  C253  1  0.436400  0.613300  0.158400  1
  C  C254  1  0.563600  0.386700  0.841600  1
  C  C255  1  0.136700  0.443700  0.012100  1
  C  C256  1  0.863300  0.556300  0.987900  1
  C  C257  1  0.906700  0.227700  0.654800  1
  C  C258  1  0.093300  0.772300  0.345200  1
  C  C259  1  0.152800  0.000500  0.475600  1
  C  C260  1  0.847200  0.999500  0.524400  1
  C  C261  1  0.186900  0.924400  0.499400  1
  C  C262  1  0.813100  0.075600  0.500600  1
  C  C263  1  0.538200  0.608800  0.167000  1
  C  C264  1  0.461800  0.391200  0.833000  1
  C  C265  1  0.134300  0.034300  0.412600  1
  C  C266  1  0.865700  0.965700  0.587400  1
  C  C267  1  0.745300  0.754500  0.270700  1
  C  C268  1  0.254700  0.245500  0.729300  1
  C  C269  1  0.630500  0.253800  0.744900  1
  C  C270  1  0.369500  0.746200  0.255100  1
  C  C271  1  0.614700  0.668800  0.049500  1
  C  C272  1  0.385300  0.331200  0.950500  1
  C  C273  1  0.292500  0.235800  0.491100  1
  C  C274  1  0.707500  0.764200  0.508900  1
  C  C275  1  0.095900  0.143700  0.442500  1
  C  C276  1  0.904100  0.856300  0.557500  1
  C  C277  1  0.953900  0.300000  0.549000  1
  C  C278  1  0.046100  0.700000  0.451000  1
  C  C279  1  0.752300  0.740600  0.022400  1
  C  C280  1  0.247700  0.259400  0.977600  1
  C  C281  1  0.483700  0.066800  0.660200  1
  C  C282  1  0.516300  0.933200  0.339800  1
  C  C283  1  0.115800  0.458200  0.812000  1
  C  C284  1  0.884200  0.541800  0.188000  1
  C  C285  1  0.327200  0.462900  0.278100  1
  C  C286  1  0.672800  0.537100  0.721900  1
  C  C287  1  0.611400  0.655300  0.118300  1
  C  C288  1  0.388600  0.344700  0.881700  1
  C  C289  1  0.122200  0.456000  0.880000  1
  C  C290  1  0.877800  0.544000  0.120000  1
  C  C291  1  0.238600  0.780700  0.551100  1
  C  C292  1  0.761400  0.219300  0.448900  1
  C  C293  1  0.153500  0.435500  0.209900  1
  C  C294  1  0.846500  0.564500  0.790100  1
  C  C295  1  0.132000  0.376900  0.197100  1
  C  C296  1  0.868000  0.623100  0.802900  1
  C  C297  1  0.079600  0.587700  0.313500  1
  C  C298  1  0.920400  0.412300  0.686500  1
  C  C299  1  0.041400  0.066000  0.678000  1
  C  C300  1  0.958600  0.934000  0.322000  1
  C  C301  1  0.138100  0.042100  0.520800  1
  C  C302  1  0.861900  0.957900  0.479200  1
  C  C303  1  0.739600  0.249400  0.737100  1
  C  C304  1  0.260400  0.750600  0.262900  1
  C  C305  1  0.042700  0.314500  0.487800  1
  C  C306  1  0.957300  0.685500  0.512200  1
  C  C307  1  0.062900  0.221500  0.430900  1
  C  C308  1  0.937100  0.778500  0.569100  1
  C  C309  1  0.672800  0.806800  0.241600  1
  C  C310  1  0.327200  0.193200  0.758400  1
  C  C311  1  0.747900  0.728500  0.090800  1
  C  C312  1  0.252100  0.271500  0.909200  1
  C  C313  1  0.400200  0.516700  0.245600  1
  C  C314  1  0.599800  0.483300  0.754400  1
  C  C315  1  0.853600  0.755900  0.244100  1
  C  C316  1  0.146400  0.244100  0.755900  1
  C  C317  1  0.191400  0.491900  0.892800  1
  C  C318  1  0.808600  0.508100  0.107200  1
  C  C319  1  0.680300  0.685200  0.138100  1
  C  C320  1  0.319700  0.314800  0.861900  1
  C  C321  1  0.498400  0.133900  0.622100  1
  C  C322  1  0.501600  0.866100  0.377900  1
  C  C323  1  0.611000  0.199300  0.863000  1
  C  C324  1  0.389000  0.800700  0.137000  1
  C  C325  1  0.785700  0.327700  0.620300  1
  C  C326  1  0.214300  0.672300  0.379700  1
  C  C327  1  0.427300  0.173200  0.576200  1
  C  C328  1  0.572700  0.826800  0.423800  1
  C  C329  1  0.931900  0.697700  0.271300  1
  C  C330  1  0.068100  0.302300  0.728700  1
  C  C331  1  0.992300  0.608000  0.360100  1
  C  C332  1  0.007700  0.392000  0.639900  1
  C  C333  1  0.144500  0.437500  0.081200  1
  C  C334  1  0.855500  0.562500  0.918800  1
  C  C335  1  0.684500  0.710200  0.002300  1
  C  C336  1  0.315500  0.289800  0.997700  1
  C  C337  1  0.143000  0.556900  0.647400  1
  C  C338  1  0.857000  0.443100  0.352600  1
  C  C339  1  0.918600  0.663800  0.338700  1
  C  C340  1  0.081400  0.336200  0.661300  1
  C  C341  1  0.164400  0.876200  0.470700  1
  C  C342  1  0.835600  0.123800  0.529300  1
  C  C343  1  0.566400  0.558000  0.221600  1
  C  C344  1  0.433600  0.442000  0.778400  1
  C  C345  1  0.719400  0.196900  0.856400  1
  C  C346  1  0.280600  0.803100  0.143600  1
  C  C347  1  0.813700  0.861900  0.161500  1
  C  C348  1  0.186300  0.138100  0.838500  1
  C  C349  1  0.827000  0.784900  0.971600  1
  C  C350  1  0.173000  0.215100  0.028400  1
  C  C351  1  0.320000  0.164100  0.592800  1
  C  C352  1  0.680000  0.835900  0.407200  1
  C  C353  1  0.151100  0.442100  0.278100  1
  C  C354  1  0.848900  0.557900  0.721900  1
  C  C355  1  0.159200  0.485500  0.695600  1
  C  C356  1  0.840800  0.514500  0.304400  1
  C  C357  1  0.858200  0.343700  0.559600  1
  C  C358  1  0.141800  0.656300  0.440400  1
  C  C359  1  0.704500  0.859400  0.187100  1
  C  C360  1  0.295500  0.140600  0.812900  1
  C  C361  1  0.244600  0.587800  0.614800  1
  C  C362  1  0.755400  0.412200  0.385200  1
  C  C363  1  0.265800  0.647100  0.054000  1
  C  C364  1  0.734200  0.352900  0.946000  1
  C  C365  1  0.128100  0.377700  0.133200  1
  C  C366  1  0.871900  0.622300  0.866800  1
  C  C367  1  0.066600  0.408200  0.999500  1
  C  C368  1  0.933400  0.591800  0.000500  1
  C  C369  1  0.809900  0.269800  0.670000  1
  C  C370  1  0.190100  0.730200  0.330000  1
  C  C371  1  0.782500  0.220500  0.794300  1
  C  C372  1  0.217500  0.779500  0.205700  1
  C  C373  1  0.498000  0.512200  0.260900  1
  C  C374  1  0.502000  0.487800  0.739100  1
  C  C375  1  0.395000  0.251500  0.473400  1
  C  C376  1  0.605000  0.748500  0.526600  1
  C  C377  1  0.220800  0.258500  0.441900  1
  C  C378  1  0.779200  0.741500  0.558100  1
  C  C379  1  0.198400  0.486000  0.957500  1
  C  C380  1  0.801600  0.514000  0.042500  1
  C  C381  1  0.462500  0.219300  0.515700  1
  C  C382  1  0.537500  0.780700  0.484300  1
  C  C383  1  0.240700  0.899800  0.551200  1
  C  C384  1  0.759300  0.100200  0.448800  1
  C  C385  1  0.549900  0.029300  0.702400  1
  C  C386  1  0.450100  0.970700  0.297600  1
  C  C387  1  0.257600  0.706400  0.585000  1
  C  C388  1  0.742400  0.293600  0.415000  1
  C  C389  1  0.061000  0.414400  0.934400  1
  C  C390  1  0.939000  0.585600  0.065600  1
  C  C391  1  0.541700  0.174800  0.928800  1
  C  C392  1  0.458300  0.825200  0.071200  1
  C  C393  1  0.568100  0.228400  0.807400  1
  C  C394  1  0.431900  0.771600  0.192600  1
  C  C395  1  0.192200  0.805400  0.496800  1
  C  C396  1  0.807800  0.194600  0.503200  1
  C  C397  1  0.647700  0.125100  0.669600  1
  C  C398  1  0.352300  0.874900  0.330400  1
  C  C399  1  0.886600  0.810100  0.190000  1
  C  C400  1  0.113400  0.189900  0.810000  1
  C  C401  1  0.633200  0.058600  0.708200  1
  C  C402  1  0.366800  0.941400  0.291800  1
  C  C403  1  0.265600  0.828800  0.577800  1
  C  C404  1  0.734400  0.171200  0.422200  1
  C  C405  1  0.581500  0.162600  0.627300  1
  C  C406  1  0.418500  0.837400  0.372700  1
  C  C407  1  0.858300  0.875900  0.807300  1
  C  C408  1  0.141700  0.124100  0.192700  1
  C  C409  1  0.249500  0.713200  0.000300  1
  C  C410  1  0.750500  0.286800  0.999700  1
  C  C411  1  0.916300  0.831900  0.860900  1
  C  C412  1  0.083700  0.168100  0.139100  1
  C  C413  1  0.568200  0.004600  0.072100  1
  C  C414  1  0.431800  0.995400  0.927900  1
  C  C415  1  0.626000  0.910600  0.153100  1
  C  C416  1  0.374000  0.089400  0.846900  1
  C  C417  1  0.499300  0.134600  0.045200  1
  C  C418  1  0.500700  0.865400  0.954800  1
  C  C419  1  0.702800  0.021700  0.754200  1
  C  C420  1  0.297200  0.978300  0.245800  1
  C  C421  1  0.072800  0.012000  0.736600  1
  C  C422  1  0.927200  0.988000  0.263400  1
  C  C423  1  0.771700  0.930100  0.833100  1
  C  C424  1  0.228300  0.069900  0.166900  1
  C  C425  1  0.551200  0.072600  0.092400  1
  C  C426  1  0.448800  0.927400  0.907600  1
  C  C427  1  0.185300  0.989500  0.735900  1
  C  C428  1  0.814700  0.010500  0.264100  1
  C  C429  1  0.263900  0.703700  0.932000  1
  C  C430  1  0.736100  0.296300  0.068000  1
  C  C431  1  0.225100  0.764700  0.881600  1
  C  C432  1  0.774900  0.235300  0.118400  1
  C  C433  1  0.266400  0.875900  0.800000  1
  C  C434  1  0.733600  0.124100  0.200000  1
  C  C435  1  0.278800  0.822200  0.867800  1
  C  C436  1  0.721200  0.177800  0.132200  1
  C  C437  1  0.197000  0.938200  0.804100  1
  C  C438  1  0.803000  0.061800  0.195900  1
  C  C439  1  0.477800  0.605600  0.469100  1
  C  C440  1  0.522200  0.394400  0.530900  1
  C  C441  1  0.521800  0.630900  0.398500  1
  C  C442  1  0.478200  0.369100  0.601500  1
  C  C443  1  0.584200  0.802500  0.790800  1
  C  C444  1  0.415800  0.197500  0.209200  1
  C  C445  1  0.679100  0.782200  0.745600  1
  C  C446  1  0.320900  0.217800  0.254400  1
  C  C447  1  0.089200  0.718500  0.741200  1
  C  C448  1  0.910800  0.281500  0.258800  1
  C  C449  1  0.153500  0.665600  0.780700  1
  C  C450  1  0.846500  0.334400  0.219300  1
  C  C451  1  0.491300  0.543300  0.912400  1
  C  C452  1  0.508700  0.456700  0.087600  1
  C  C453  1  0.551800  0.596500  0.904500  1
  C  C454  1  0.448200  0.403500  0.095500  1
  C  C455  1  0.184900  0.904500  0.838700  1
  C  C456  1  0.815100  0.095500  0.161300  1
  C  C457  1  0.160400  0.751800  0.003300  1
  C  C458  1  0.839600  0.248200  0.996700  1
  C  C459  1  0.159100  0.831400  0.958500  1
  C  C460  1  0.840900  0.168600  0.041500  1
  C  C461  1  0.204500  0.833100  0.886500  1
  C  C462  1  0.795500  0.166900  0.113500  1
  C  C463  1  0.232900  0.914000  0.767400  1
  C  C464  1  0.767100  0.086000  0.232600  1
  N  N465  1  0.368600  0.568990  0.195850  1
  N  N466  1  0.631400  0.431010  0.804150  1
  N  N467  1  0.108400  0.249440  0.473980  1
  N  N468  1  0.891600  0.750560  0.526020  1
  N  N469  1  0.215500  0.494360  0.275980  1
  N  N470  1  0.784500  0.505640  0.724020  1
  N  N471  1  0.975400  0.242050  0.595420  1
  N  N472  1  0.024600  0.757950  0.404580  1
  N  N473  1  0.255800  0.194400  0.550170  1
  N  N474  1  0.744200  0.805600  0.449830  1
  N  N475  1  0.173600  0.492270  0.160230  1
  N  N476  1  0.826400  0.507730  0.839770  1
  N  N477  1  0.110700  0.111280  0.504500  1
  N  N478  1  0.889300  0.888720  0.495500  1
  N  N479  1  0.093100  0.619310  0.247960  1
  N  N480  1  0.906900  0.380690  0.752040  1
  N  N481  1  0.173000  0.491100  0.759800  1
  N  N482  1  0.827000  0.508900  0.240200  1
  N  N483  1  0.575100  0.155400  0.981900  1
  N  N484  1  0.424900  0.844600  0.018100  1
  N  N485  1  0.222900  0.658900  0.573400  1
  N  N486  1  0.777100  0.341100  0.426600  1
  N  N487  1  0.697900  0.960100  0.788000  1
  N  N488  1  0.302100  0.039900  0.212000  1
  N  N489  1  0.846900  0.784700  0.910400  1
  N  N490  1  0.153100  0.215300  0.089600  1
  N  N491  1  0.652700  0.956700  0.100800  1
  N  N492  1  0.347300  0.043300  0.899200  1
  N  N493  1  0.556300  0.650700  0.343300  1
  N  N494  1  0.443700  0.349300  0.656700  1
  N  N495  1  0.756300  0.767800  0.711000  1
  N  N496  1  0.243700  0.232200  0.289000  1
  N  N497  1  0.038200  0.759700  0.710200  1
  N  N498  1  0.961800  0.240300  0.289800  1
  N  N499  1  0.600900  0.639500  0.898900  1
  N  N500  1  0.399100  0.360500  0.101100  1
  Cl  Cl501  1  0.757700  0.545340  0.508290  1
  Cl  Cl502  1  0.242300  0.454660  0.491710  1
  Cl  Cl503  1  0.457390  0.688690  0.714570  1
  Cl  Cl504  1  0.542610  0.311310  0.285430  1
  O  O505  1  0.109100  0.108570  0.647290  1
  O  O506  1  0.890900  0.891430  0.352710  1
  O  O507  1  0.204800  0.645390  0.111500  1
  O  O508  1  0.795200  0.354610  0.888500  1
  O  O509  1  0.957900  0.067110  0.661910  1
  O  O510  1  0.042100  0.932890  0.338090  1
  O  O511  1  0.336100  0.599210  0.040430  1
  O  O512  1  0.663900  0.400790  0.959570  1
  O  O513  1  0.690700  0.493900  0.544200  1
  O  O514  1  0.309300  0.506100  0.455800  1
  O  O515  1  0.866100  0.512600  0.500200  1
  O  O516  1  0.133900  0.487400  0.499800  1
  O  O517  1  0.733400  0.579500  0.445600  1
  O  O518  1  0.266600  0.420500  0.554400  1
  O  O519  1  0.744600  0.593900  0.546500  1
  O  O520  1  0.255400  0.406100  0.453500  1
  O  O521  1  0.458800  0.654700  0.663800  1
  O  O522  1  0.541200  0.345300  0.336200  1
  O  O523  1  0.387000  0.750400  0.709000  1
  O  O524  1  0.613000  0.249600  0.291000  1
  O  O525  1  0.565500  0.700500  0.704100  1
  O  O526  1  0.434500  0.299500  0.295900  1
  O  O527  1  0.431000  0.643100  0.777500  1
  O  O528  1  0.569000  0.356900  0.222500  1
