# generated using pymatgen
data_ZnH45C60(N3O)3
_symmetry_space_group_name_H-M   'P 1'
_cell_length_a   22.04131190
_cell_length_b   22.04131190
_cell_length_c   22.04131190
_cell_angle_alpha   98.13648022
_cell_angle_beta   98.13648022
_cell_angle_gamma   98.13648022
_symmetry_Int_Tables_number   1
_chemical_formula_structural   ZnH45C60(N3O)3
_chemical_formula_sum   'Zn6 H270 C360 N54 O18'
_cell_volume   10350.00849586
_cell_formula_units_Z   6
loop_
 _symmetry_equiv_pos_site_id
 _symmetry_equiv_pos_as_xyz
  1  'x, y, z'
loop_
 _atom_site_type_symbol
 _atom_site_label
 _atom_site_symmetry_multiplicity
 _atom_site_fract_x
 _atom_site_fract_y
 _atom_site_fract_z
 _atom_site_occupancy
  C  C1  1  0.070300  0.010200  0.571900  1.0
  C  C2  1  0.571900  0.070300  0.010200  1.0
  C  C3  1  0.010200  0.571900  0.070300  1.0
  C  C4  1  0.929700  0.989800  0.428100  1.0
  C  C5  1  0.428100  0.929700  0.989800  1.0
  C  C6  1  0.989800  0.428100  0.929700  1.0
  C  C7  1  0.020900  0.037000  0.586700  1.0
  C  C8  1  0.586700  0.020900  0.037000  1.0
  C  C9  1  0.037000  0.586700  0.020900  1.0
  C  C10  1  0.979100  0.963000  0.413300  1.0
  C  C11  1  0.413300  0.979100  0.963000  1.0
  C  C12  1  0.963000  0.413300  0.979100  1.0
  C  C13  1  0.972400  0.002900  0.607200  1.0
  C  C14  1  0.607200  0.972400  0.002900  1.0
  C  C15  1  0.002900  0.607200  0.972400  1.0
  C  C16  1  0.027600  0.997100  0.392800  1.0
  C  C17  1  0.392800  0.027600  0.997100  1.0
  C  C18  1  0.997100  0.392800  0.027600  1.0
  C  C19  1  0.974300  0.941500  0.613300  1.0
  C  C20  1  0.613300  0.974300  0.941500  1.0
  C  C21  1  0.941500  0.613300  0.974300  1.0
  C  C22  1  0.025700  0.058500  0.386700  1.0
  C  C23  1  0.386700  0.025700  0.058500  1.0
  C  C24  1  0.058500  0.386700  0.025700  1.0
  C  C25  1  0.024100  0.913600  0.598000  1.0
  C  C26  1  0.598000  0.024100  0.913600  1.0
  C  C27  1  0.913600  0.598000  0.024100  1.0
  C  C28  1  0.975900  0.086400  0.402000  1.0
  C  C29  1  0.402000  0.975900  0.086400  1.0
  C  C30  1  0.086400  0.402000  0.975900  1.0
  C  C31  1  0.072000  0.948700  0.577400  1.0
  C  C32  1  0.577400  0.072000  0.948700  1.0
  C  C33  1  0.948700  0.577400  0.072000  1.0
  C  C34  1  0.928000  0.051300  0.422600  1.0
  C  C35  1  0.422600  0.928000  0.051300  1.0
  C  C36  1  0.051300  0.422600  0.928000  1.0
  C  C37  1  0.883300  0.922500  0.635400  1.0
  C  C38  1  0.635400  0.883300  0.922500  1.0
  C  C39  1  0.922500  0.635400  0.883300  1.0
  C  C40  1  0.116700  0.077500  0.364600  1.0
  C  C41  1  0.364600  0.116700  0.077500  1.0
  C  C42  1  0.077500  0.364600  0.116700  1.0
  C  C43  1  0.156300  0.011200  0.519400  1.0
  C  C44  1  0.519400  0.156300  0.011200  1.0
  C  C45  1  0.011200  0.519400  0.156300  1.0
  C  C46  1  0.843700  0.988800  0.480600  1.0
  C  C47  1  0.480600  0.843700  0.988800  1.0
  C  C48  1  0.988800  0.480600  0.843700  1.0
  C  C49  1  0.206600  0.042700  0.497600  1.0
  C  C50  1  0.497600  0.206600  0.042700  1.0
  C  C51  1  0.042700  0.497600  0.206600  1.0
  C  C52  1  0.793400  0.957300  0.502400  1.0
  C  C53  1  0.502400  0.793400  0.957300  1.0
  C  C54  1  0.957300  0.502400  0.793400  1.0
  C  C55  1  0.243400  0.013300  0.460500  1.0
  C  C56  1  0.460500  0.243400  0.013300  1.0
  C  C57  1  0.013300  0.460500  0.243400  1.0
  C  C58  1  0.756600  0.986700  0.539500  1.0
  C  C59  1  0.539500  0.756600  0.986700  1.0
  C  C60  1  0.986700  0.539500  0.756600  1.0
  C  C61  1  0.293300  0.048000  0.442200  1.0
  C  C62  1  0.442200  0.293300  0.048000  1.0
  C  C63  1  0.048000  0.442200  0.293300  1.0
  C  C64  1  0.706700  0.952000  0.557800  1.0
  C  C65  1  0.557800  0.706700  0.952000  1.0
  C  C66  1  0.952000  0.557800  0.706700  1.0
  C  C67  1  0.306500  0.111900  0.461100  1.0
  C  C68  1  0.461100  0.306500  0.111900  1.0
  C  C69  1  0.111900  0.461100  0.306500  1.0
  C  C70  1  0.693500  0.888100  0.538900  1.0
  C  C71  1  0.538900  0.693500  0.888100  1.0
  C  C72  1  0.888100  0.538900  0.693500  1.0
  C  C73  1  0.269600  0.141200  0.498100  1.0
  C  C74  1  0.498100  0.269600  0.141200  1.0
  C  C75  1  0.141200  0.498100  0.269600  1.0
  C  C76  1  0.730400  0.858800  0.501900  1.0
  C  C77  1  0.501900  0.730400  0.858800  1.0
  C  C78  1  0.858800  0.501900  0.730400  1.0
  C  C79  1  0.352600  0.151100  0.437300  1.0
  C  C80  1  0.437300  0.352600  0.151100  1.0
  C  C81  1  0.151100  0.437300  0.352600  1.0
  C  C82  1  0.647400  0.848900  0.562700  1.0
  C  C83  1  0.562700  0.647400  0.848900  1.0
  C  C84  1  0.848900  0.562700  0.647400  1.0
  C  C85  1  0.338800  0.205800  0.418600  1.0
  C  C86  1  0.418600  0.338800  0.205800  1.0
  C  C87  1  0.205800  0.418600  0.338800  1.0
  C  C88  1  0.661200  0.794200  0.581400  1.0
  C  C89  1  0.581400  0.661200  0.794200  1.0
  C  C90  1  0.794200  0.581400  0.661200  1.0
  C  C91  1  0.381700  0.242400  0.392800  1.0
  C  C92  1  0.392800  0.381700  0.242400  1.0
  C  C93  1  0.242400  0.392800  0.381700  1.0
  C  C94  1  0.618300  0.757600  0.607200  1.0
  C  C95  1  0.607200  0.618300  0.757600  1.0
  C  C96  1  0.757600  0.607200  0.618300  1.0
  C  C97  1  0.438500  0.224100  0.385800  1.0
  C  C98  1  0.385800  0.438500  0.224100  1.0
  C  C99  1  0.224100  0.385800  0.438500  1.0
  C  C100  1  0.561500  0.775900  0.614200  1.0
  C  C101  1  0.614200  0.561500  0.775900  1.0
  C  C102  1  0.775900  0.614200  0.561500  1.0
  C  C103  1  0.452400  0.169300  0.404500  1.0
  C  C104  1  0.404500  0.452400  0.169300  1.0
  C  C105  1  0.169300  0.404500  0.452400  1.0
  C  C106  1  0.547600  0.830700  0.595500  1.0
  C  C107  1  0.595500  0.547600  0.830700  1.0
  C  C108  1  0.830700  0.595500  0.547600  1.0
  C  C109  1  0.409400  0.132800  0.430300  1.0
  C  C110  1  0.430300  0.409400  0.132800  1.0
  C  C111  1  0.132800  0.430300  0.409400  1.0
  C  C112  1  0.590600  0.867200  0.569700  1.0
  C  C113  1  0.569700  0.590600  0.867200  1.0
  C  C114  1  0.867200  0.569700  0.590600  1.0
  C  C115  1  0.364300  0.301100  0.368000  1.0
  C  C116  1  0.368000  0.364300  0.301100  1.0
  C  C117  1  0.301100  0.368000  0.364300  1.0
  C  C118  1  0.635700  0.698900  0.632000  1.0
  C  C119  1  0.632000  0.635700  0.698900  1.0
  C  C120  1  0.698900  0.632000  0.635700  1.0
  C  C121  1  0.997100  0.075500  0.887300  1.0
  C  C122  1  0.887300  0.997100  0.075500  1.0
  C  C123  1  0.075500  0.887300  0.997100  1.0
  C  C124  1  0.002900  0.924500  0.112700  1.0
  C  C125  1  0.112700  0.002900  0.924500  1.0
  C  C126  1  0.924500  0.112700  0.002900  1.0
  C  C127  1  0.088900  0.160100  0.714800  1.0
  C  C128  1  0.714800  0.088900  0.160100  1.0
  C  C129  1  0.160100  0.714800  0.088900  1.0
  C  C130  1  0.911100  0.839900  0.285200  1.0
  C  C131  1  0.285200  0.911100  0.839900  1.0
  C  C132  1  0.839900  0.285200  0.911100  1.0
  C  C133  1  0.028700  0.155500  0.725000  1.0
  C  C134  1  0.725000  0.028700  0.155500  1.0
  C  C135  1  0.155500  0.725000  0.028700  1.0
  C  C136  1  0.971300  0.844500  0.275000  1.0
  C  C137  1  0.275000  0.971300  0.844500  1.0
  C  C138  1  0.844500  0.275000  0.971300  1.0
  C  C139  1  0.013600  0.142000  0.780900  1.0
  C  C140  1  0.780900  0.013600  0.142000  1.0
  C  C141  1  0.142000  0.780900  0.013600  1.0
  C  C142  1  0.986400  0.858000  0.219100  1.0
  C  C143  1  0.219100  0.986400  0.858000  1.0
  C  C144  1  0.858000  0.219100  0.986400  1.0
  C  C145  1  0.059800  0.133400  0.827000  1.0
  C  C146  1  0.827000  0.059800  0.133400  1.0
  C  C147  1  0.133400  0.827000  0.059800  1.0
  C  C148  1  0.940200  0.866600  0.173000  1.0
  C  C149  1  0.173000  0.940200  0.866600  1.0
  C  C150  1  0.866600  0.173000  0.940200  1.0
  C  C151  1  0.121000  0.137400  0.817000  1.0
  C  C152  1  0.817000  0.121000  0.137400  1.0
  C  C153  1  0.137400  0.817000  0.121000  1.0
  C  C154  1  0.879000  0.862600  0.183000  1.0
  C  C155  1  0.183000  0.879000  0.862600  1.0
  C  C156  1  0.862600  0.183000  0.879000  1.0
  C  C157  1  0.134900  0.151000  0.760400  1.0
  C  C158  1  0.760400  0.134900  0.151000  1.0
  C  C159  1  0.151000  0.760400  0.134900  1.0
  C  C160  1  0.865100  0.849000  0.239600  1.0
  C  C161  1  0.239600  0.865100  0.849000  1.0
  C  C162  1  0.849000  0.239600  0.865100  1.0
  C  C163  1  0.115700  0.204300  0.481800  1.0
  C  C164  1  0.481800  0.115700  0.204300  1.0
  C  C165  1  0.204300  0.481800  0.115700  1.0
  C  C166  1  0.884300  0.795700  0.518200  1.0
  C  C167  1  0.518200  0.884300  0.795700  1.0
  C  C168  1  0.795700  0.518200  0.884300  1.0
  C  C169  1  0.086500  0.247800  0.454900  1.0
  C  C170  1  0.454900  0.086500  0.247800  1.0
  C  C171  1  0.247800  0.454900  0.086500  1.0
  C  C172  1  0.913500  0.752200  0.545100  1.0
  C  C173  1  0.545100  0.913500  0.752200  1.0
  C  C174  1  0.752200  0.545100  0.913500  1.0
  C  C175  1  0.050600  0.282400  0.488000  1.0
  C  C176  1  0.488000  0.050600  0.282400  1.0
  C  C177  1  0.282400  0.488000  0.050600  1.0
  C  C178  1  0.949400  0.717600  0.512000  1.0
  C  C179  1  0.512000  0.949400  0.717600  1.0
  C  C180  1  0.717600  0.512000  0.949400  1.0
  C  C181  1  0.044900  0.272800  0.547700  1.0
  C  C182  1  0.547700  0.044900  0.272800  1.0
  C  C183  1  0.272800  0.547700  0.044900  1.0
  C  C184  1  0.955100  0.727200  0.452300  1.0
  C  C185  1  0.452300  0.955100  0.727200  1.0
  C  C186  1  0.727200  0.452300  0.955100  1.0
  C  C187  1  0.076600  0.230100  0.572800  1.0
  C  C188  1  0.572800  0.076600  0.230100  1.0
  C  C189  1  0.230100  0.572800  0.076600  1.0
  C  C190  1  0.923400  0.769900  0.427200  1.0
  C  C191  1  0.427200  0.923400  0.769900  1.0
  C  C192  1  0.769900  0.427200  0.923400  1.0
  C  C193  1  0.074900  0.221100  0.638100  1.0
  C  C194  1  0.638100  0.074900  0.221100  1.0
  C  C195  1  0.221100  0.638100  0.074900  1.0
  C  C196  1  0.925100  0.778900  0.361900  1.0
  C  C197  1  0.361900  0.925100  0.778900  1.0
  C  C198  1  0.778900  0.361900  0.925100  1.0
  C  C199  1  0.089000  0.252100  0.390200  1.0
  C  C200  1  0.390200  0.089000  0.252100  1.0
  C  C201  1  0.252100  0.390200  0.089000  1.0
  C  C202  1  0.911000  0.747900  0.609800  1.0
  C  C203  1  0.609800  0.911000  0.747900  1.0
  C  C204  1  0.747900  0.609800  0.911000  1.0
  C  C205  1  0.139700  0.244300  0.360500  1.0
  C  C206  1  0.360500  0.139700  0.244300  1.0
  C  C207  1  0.244300  0.360500  0.139700  1.0
  C  C208  1  0.860300  0.755700  0.639500  1.0
  C  C209  1  0.639500  0.860300  0.755700  1.0
  C  C210  1  0.755700  0.639500  0.860300  1.0
  C  C211  1  0.138200  0.254300  0.299500  1.0
  C  C212  1  0.299500  0.138200  0.254300  1.0
  C  C213  1  0.254300  0.299500  0.138200  1.0
  C  C214  1  0.861800  0.745700  0.700500  1.0
  C  C215  1  0.700500  0.861800  0.745700  1.0
  C  C216  1  0.745700  0.700500  0.861800  1.0
  C  C217  1  0.086000  0.272000  0.268000  1.0
  C  C218  1  0.268000  0.086000  0.272000  1.0
  C  C219  1  0.272000  0.268000  0.086000  1.0
  C  C220  1  0.914000  0.728000  0.732000  1.0
  C  C221  1  0.732000  0.914000  0.728000  1.0
  C  C222  1  0.728000  0.732000  0.914000  1.0
  C  C223  1  0.035300  0.279600  0.297600  1.0
  C  C224  1  0.297600  0.035300  0.279600  1.0
  C  C225  1  0.279600  0.297600  0.035300  1.0
  C  C226  1  0.964700  0.720400  0.702400  1.0
  C  C227  1  0.702400  0.964700  0.720400  1.0
  C  C228  1  0.720400  0.702400  0.964700  1.0
  C  C229  1  0.036800  0.269600  0.358600  1.0
  C  C230  1  0.358600  0.036800  0.269600  1.0
  C  C231  1  0.269600  0.358600  0.036800  1.0
  C  C232  1  0.963200  0.730400  0.641400  1.0
  C  C233  1  0.641400  0.963200  0.730400  1.0
  C  C234  1  0.730400  0.641400  0.963200  1.0
  C  C235  1  0.191400  0.245800  0.265000  1.0
  C  C236  1  0.265000  0.191400  0.245800  1.0
  C  C237  1  0.245800  0.265000  0.191400  1.0
  C  C238  1  0.808600  0.754200  0.735000  1.0
  C  C239  1  0.735000  0.808600  0.754200  1.0
  C  C240  1  0.754200  0.735000  0.808600  1.0
  C  C241  1  0.272900  0.823600  0.639000  1.0
  C  C242  1  0.639000  0.272900  0.823600  1.0
  C  C243  1  0.823600  0.639000  0.272900  1.0
  C  C244  1  0.727100  0.176400  0.361000  1.0
  C  C245  1  0.361000  0.727100  0.176400  1.0
  C  C246  1  0.176400  0.361000  0.727100  1.0
  C  C247  1  0.224700  0.031300  0.668800  1.0
  C  C248  1  0.668800  0.224700  0.031300  1.0
  C  C249  1  0.031300  0.668800  0.224700  1.0
  C  C250  1  0.775300  0.968700  0.331200  1.0
  C  C251  1  0.331200  0.775300  0.968700  1.0
  C  C252  1  0.968700  0.331200  0.775300  1.0
  C  C253  1  0.181100  0.999900  0.696400  1.0
  C  C254  1  0.696400  0.181100  0.999900  1.0
  C  C255  1  0.999900  0.696400  0.181100  1.0
  C  C256  1  0.818900  0.000100  0.303600  1.0
  C  C257  1  0.303600  0.818900  0.000100  1.0
  C  C258  1  0.000100  0.303600  0.818900  1.0
  C  C259  1  0.179100  0.937200  0.698100  1.0
  C  C260  1  0.698100  0.179100  0.937200  1.0
  C  C261  1  0.937200  0.698100  0.179100  1.0
  C  C262  1  0.820900  0.062800  0.301900  1.0
  C  C263  1  0.301900  0.820900  0.062800  1.0
  C  C264  1  0.062800  0.301900  0.820900  1.0
  C  C265  1  0.221900  0.906100  0.672000  1.0
  C  C266  1  0.672000  0.221900  0.906100  1.0
  C  C267  1  0.906100  0.672000  0.221900  1.0
  C  C268  1  0.778100  0.093900  0.328000  1.0
  C  C269  1  0.328000  0.778100  0.093900  1.0
  C  C270  1  0.093900  0.328000  0.778100  1.0
  C  C271  1  0.266300  0.937200  0.643300  1.0
  C  C272  1  0.643300  0.266300  0.937200  1.0
  C  C273  1  0.937200  0.643300  0.266300  1.0
  C  C274  1  0.733700  0.062800  0.356700  1.0
  C  C275  1  0.356700  0.733700  0.062800  1.0
  C  C276  1  0.062800  0.356700  0.733700  1.0
  C  C277  1  0.267200  0.000100  0.642200  1.0
  C  C278  1  0.642200  0.267200  0.000100  1.0
  C  C279  1  0.000100  0.642200  0.267200  1.0
  C  C280  1  0.732800  0.999900  0.357800  1.0
  C  C281  1  0.357800  0.732800  0.999900  1.0
  C  C282  1  0.999900  0.357800  0.732800  1.0
  C  C283  1  0.253100  0.271700  0.610300  1.0
  C  C284  1  0.610300  0.253100  0.271700  1.0
  C  C285  1  0.271700  0.610300  0.253100  1.0
  C  C286  1  0.746900  0.728300  0.389700  1.0
  C  C287  1  0.389700  0.746900  0.728300  1.0
  C  C288  1  0.728300  0.389700  0.746900  1.0
  C  C289  1  0.312200  0.306100  0.618800  1.0
  C  C290  1  0.618800  0.312200  0.306100  1.0
  C  C291  1  0.306100  0.618800  0.312200  1.0
  C  C292  1  0.687800  0.693900  0.381200  1.0
  C  C293  1  0.381200  0.687800  0.693900  1.0
  C  C294  1  0.693900  0.381200  0.687800  1.0
  C  C295  1  0.362600  0.282100  0.644900  1.0
  C  C296  1  0.644900  0.362600  0.282100  1.0
  C  C297  1  0.282100  0.644900  0.362600  1.0
  C  C298  1  0.637400  0.717900  0.355100  1.0
  C  C299  1  0.355100  0.637400  0.717900  1.0
  C  C300  1  0.717900  0.355100  0.637400  1.0
  C  C301  1  0.352700  0.223800  0.661800  1.0
  C  C302  1  0.661800  0.352700  0.223800  1.0
  C  C303  1  0.223800  0.661800  0.352700  1.0
  C  C304  1  0.647300  0.776200  0.338200  1.0
  C  C305  1  0.338200  0.647300  0.776200  1.0
  C  C306  1  0.776200  0.338200  0.647300  1.0
  C  C307  1  0.293000  0.191100  0.650700  1.0
  C  C308  1  0.650700  0.293000  0.191100  1.0
  C  C309  1  0.191100  0.650700  0.293000  1.0
  C  C310  1  0.707000  0.808900  0.349300  1.0
  C  C311  1  0.349300  0.707000  0.808900  1.0
  C  C312  1  0.808900  0.349300  0.707000  1.0
  C  C313  1  0.280800  0.126800  0.664500  1.0
  C  C314  1  0.664500  0.280800  0.126800  1.0
  C  C315  1  0.126800  0.664500  0.280800  1.0
  C  C316  1  0.719200  0.873200  0.335500  1.0
  C  C317  1  0.335500  0.719200  0.873200  1.0
  C  C318  1  0.873200  0.335500  0.719200  1.0
  C  C319  1  0.322100  0.366900  0.598800  1.0
  C  C320  1  0.598800  0.322100  0.366900  1.0
  C  C321  1  0.366900  0.598800  0.322100  1.0
  C  C322  1  0.677900  0.633100  0.401200  1.0
  C  C323  1  0.401200  0.677900  0.633100  1.0
  C  C324  1  0.633100  0.401200  0.677900  1.0
  C  C325  1  0.364600  0.379200  0.559300  1.0
  C  C326  1  0.559300  0.364600  0.379200  1.0
  C  C327  1  0.379200  0.559300  0.364600  1.0
  C  C328  1  0.635400  0.620800  0.440700  1.0
  C  C329  1  0.440700  0.635400  0.620800  1.0
  C  C330  1  0.620800  0.440700  0.635400  1.0
  C  C331  1  0.370400  0.435200  0.536800  1.0
  C  C332  1  0.536800  0.370400  0.435200  1.0
  C  C333  1  0.435200  0.536800  0.370400  1.0
  C  C334  1  0.629600  0.564800  0.463200  1.0
  C  C335  1  0.463200  0.629600  0.564800  1.0
  C  C336  1  0.564800  0.463200  0.629600  1.0
  C  C337  1  0.333700  0.478900  0.553800  1.0
  C  C338  1  0.553800  0.333700  0.478900  1.0
  C  C339  1  0.478900  0.553800  0.333700  1.0
  C  C340  1  0.666300  0.521100  0.446200  1.0
  C  C341  1  0.446200  0.666300  0.521100  1.0
  C  C342  1  0.521100  0.446200  0.666300  1.0
  C  C343  1  0.291200  0.466800  0.593400  1.0
  C  C344  1  0.593400  0.291200  0.466800  1.0
  C  C345  1  0.466800  0.593400  0.291200  1.0
  C  C346  1  0.708800  0.533200  0.406600  1.0
  C  C347  1  0.406600  0.708800  0.533200  1.0
  C  C348  1  0.533200  0.406600  0.708800  1.0
  C  C349  1  0.285500  0.410800  0.615800  1.0
  C  C350  1  0.615800  0.285500  0.410800  1.0
  C  C351  1  0.410800  0.615800  0.285500  1.0
  C  C352  1  0.714500  0.589200  0.384200  1.0
  C  C353  1  0.384200  0.714500  0.589200  1.0
  C  C354  1  0.589200  0.384200  0.714500  1.0
  C  C355  1  0.411500  0.443500  0.492800  1.0
  C  C356  1  0.492800  0.411500  0.443500  1.0
  C  C357  1  0.443500  0.492800  0.411500  1.0
  C  C358  1  0.588500  0.556500  0.507200  1.0
  C  C359  1  0.507200  0.588500  0.556500  1.0
  C  C360  1  0.556500  0.507200  0.588500  1.0
  H  H361  1  0.019800  0.079100  0.582900  1.0
  H  H362  1  0.582900  0.019800  0.079100  1.0
  H  H363  1  0.079100  0.582900  0.019800  1.0
  H  H364  1  0.980200  0.920900  0.417100  1.0
  H  H365  1  0.417100  0.980200  0.920900  1.0
  H  H366  1  0.920900  0.417100  0.980200  1.0
  H  H367  1  0.938000  0.021500  0.617000  1.0
  H  H368  1  0.617000  0.938000  0.021500  1.0
  H  H369  1  0.021500  0.617000  0.938000  1.0
  H  H370  1  0.062000  0.978500  0.383000  1.0
  H  H371  1  0.383000  0.062000  0.978500  1.0
  H  H372  1  0.978500  0.383000  0.062000  1.0
  H  H373  1  0.025400  0.871300  0.601800  1.0
  H  H374  1  0.601800  0.025400  0.871300  1.0
  H  H375  1  0.871300  0.601800  0.025400  1.0
  H  H376  1  0.974600  0.128700  0.398200  1.0
  H  H377  1  0.398200  0.974600  0.128700  1.0
  H  H378  1  0.128700  0.398200  0.974600  1.0
  H  H379  1  0.106400  0.930200  0.566900  1.0
  H  H380  1  0.566900  0.106400  0.930200  1.0
  H  H381  1  0.930200  0.566900  0.106400  1.0
  H  H382  1  0.893600  0.069800  0.433100  1.0
  H  H383  1  0.433100  0.893600  0.069800  1.0
  H  H384  1  0.069800  0.433100  0.893600  1.0
  H  H385  1  0.854700  0.894100  0.652800  1.0
  H  H386  1  0.652800  0.854700  0.894100  1.0
  H  H387  1  0.894100  0.652800  0.854700  1.0
  H  H388  1  0.145300  0.105900  0.347200  1.0
  H  H389  1  0.347200  0.145300  0.105900  1.0
  H  H390  1  0.105900  0.347200  0.145300  1.0
  H  H391  1  0.864800  0.925300  0.592900  1.0
  H  H392  1  0.592900  0.864800  0.925300  1.0
  H  H393  1  0.925300  0.592900  0.864800  1.0
  H  H394  1  0.135200  0.074700  0.407100  1.0
  H  H395  1  0.407100  0.135200  0.074700  1.0
  H  H396  1  0.074700  0.407100  0.135200  1.0
  H  H397  1  0.890700  0.963900  0.661000  1.0
  H  H398  1  0.661000  0.890700  0.963900  1.0
  H  H399  1  0.963900  0.661000  0.890700  1.0
  H  H400  1  0.109300  0.036100  0.339000  1.0
  H  H401  1  0.339000  0.109300  0.036100  1.0
  H  H402  1  0.036100  0.339000  0.109300  1.0
  H  H403  1  0.148000  0.967100  0.512100  1.0
  H  H404  1  0.512100  0.148000  0.967100  1.0
  H  H405  1  0.967100  0.512100  0.148000  1.0
  H  H406  1  0.852000  0.032900  0.487900  1.0
  H  H407  1  0.487900  0.852000  0.032900  1.0
  H  H408  1  0.032900  0.487900  0.852000  1.0
  H  H409  1  0.234400  0.969500  0.447600  1.0
  H  H410  1  0.447600  0.234400  0.969500  1.0
  H  H411  1  0.969500  0.447600  0.234400  1.0
  H  H412  1  0.765600  0.030500  0.552400  1.0
  H  H413  1  0.552400  0.765600  0.030500  1.0
  H  H414  1  0.030500  0.552400  0.765600  1.0
  H  H415  1  0.318500  0.027800  0.416800  1.0
  H  H416  1  0.416800  0.318500  0.027800  1.0
  H  H417  1  0.027800  0.416800  0.318500  1.0
  H  H418  1  0.681500  0.972200  0.583200  1.0
  H  H419  1  0.583200  0.681500  0.972200  1.0
  H  H420  1  0.972200  0.583200  0.681500  1.0
  H  H421  1  0.278600  0.185000  0.511000  1.0
  H  H422  1  0.511000  0.278600  0.185000  1.0
  H  H423  1  0.185000  0.511000  0.278600  1.0
  H  H424  1  0.721400  0.815000  0.489000  1.0
  H  H425  1  0.489000  0.721400  0.815000  1.0
  H  H426  1  0.815000  0.489000  0.721400  1.0
  H  H427  1  0.300100  0.218300  0.423500  1.0
  H  H428  1  0.423500  0.300100  0.218300  1.0
  H  H429  1  0.218300  0.423500  0.300100  1.0
  H  H430  1  0.699900  0.781700  0.576500  1.0
  H  H431  1  0.576500  0.699900  0.781700  1.0
  H  H432  1  0.781700  0.576500  0.699900  1.0
  H  H433  1  0.467800  0.249100  0.368100  1.0
  H  H434  1  0.368100  0.467800  0.249100  1.0
  H  H435  1  0.249100  0.368100  0.467800  1.0
  H  H436  1  0.532200  0.750900  0.631900  1.0
  H  H437  1  0.631900  0.532200  0.750900  1.0
  H  H438  1  0.750900  0.631900  0.532200  1.0
  H  H439  1  0.491100  0.156800  0.399600  1.0
  H  H440  1  0.399600  0.491100  0.156800  1.0
  H  H441  1  0.156800  0.399600  0.491100  1.0
  H  H442  1  0.508900  0.843200  0.600400  1.0
  H  H443  1  0.600400  0.508900  0.843200  1.0
  H  H444  1  0.843200  0.600400  0.508900  1.0
  H  H445  1  0.418900  0.095300  0.443000  1.0
  H  H446  1  0.443000  0.418900  0.095300  1.0
  H  H447  1  0.095300  0.443000  0.418900  1.0
  H  H448  1  0.581100  0.904700  0.557000  1.0
  H  H449  1  0.557000  0.581100  0.904700  1.0
  H  H450  1  0.904700  0.557000  0.581100  1.0
  H  H451  1  0.994600  0.072300  0.930800  1.0
  H  H452  1  0.930800  0.994600  0.072300  1.0
  H  H453  1  0.072300  0.930800  0.994600  1.0
  H  H454  1  0.005400  0.927700  0.069200  1.0
  H  H455  1  0.069200  0.005400  0.927700  1.0
  H  H456  1  0.927700  0.069200  0.005400  1.0
  H  H457  1  0.001800  0.035100  0.865100  1.0
  H  H458  1  0.865100  0.001800  0.035100  1.0
  H  H459  1  0.035100  0.865100  0.001800  1.0
  H  H460  1  0.998200  0.964900  0.134900  1.0
  H  H461  1  0.134900  0.998200  0.964900  1.0
  H  H462  1  0.964900  0.134900  0.998200  1.0
  H  H463  1  0.959100  0.088200  0.867900  1.0
  H  H464  1  0.867900  0.959100  0.088200  1.0
  H  H465  1  0.088200  0.867900  0.959100  1.0
  H  H466  1  0.040900  0.911800  0.132100  1.0
  H  H467  1  0.132100  0.040900  0.911800  1.0
  H  H468  1  0.911800  0.132100  0.040900  1.0
  H  H469  1  0.997200  0.161800  0.693500  1.0
  H  H470  1  0.693500  0.997200  0.161800  1.0
  H  H471  1  0.161800  0.693500  0.997200  1.0
  H  H472  1  0.002800  0.838200  0.306500  1.0
  H  H473  1  0.306500  0.002800  0.838200  1.0
  H  H474  1  0.838200  0.306500  0.002800  1.0
  H  H475  1  0.971700  0.138500  0.787600  1.0
  H  H476  1  0.787600  0.971700  0.138500  1.0
  H  H477  1  0.138500  0.787600  0.971700  1.0
  H  H478  1  0.028300  0.861500  0.212400  1.0
  H  H479  1  0.212400  0.028300  0.861500  1.0
  H  H480  1  0.861500  0.212400  0.028300  1.0
  H  H481  1  0.152700  0.131100  0.848300  1.0
  H  H482  1  0.848300  0.152700  0.131100  1.0
  H  H483  1  0.131100  0.848300  0.152700  1.0
  H  H484  1  0.847300  0.868900  0.151700  1.0
  H  H485  1  0.151700  0.847300  0.868900  1.0
  H  H486  1  0.868900  0.151700  0.847300  1.0
  H  H487  1  0.176600  0.153900  0.753000  1.0
  H  H488  1  0.753000  0.176600  0.153900  1.0
  H  H489  1  0.153900  0.753000  0.176600  1.0
  H  H490  1  0.823400  0.846100  0.247000  1.0
  H  H491  1  0.247000  0.823400  0.846100  1.0
  H  H492  1  0.846100  0.247000  0.823400  1.0
  H  H493  1  0.139400  0.180100  0.458300  1.0
  H  H494  1  0.458300  0.139400  0.180100  1.0
  H  H495  1  0.180100  0.458300  0.139400  1.0
  H  H496  1  0.860600  0.819900  0.541700  1.0
  H  H497  1  0.541700  0.860600  0.819900  1.0
  H  H498  1  0.819900  0.541700  0.860600  1.0
  H  H499  1  0.030100  0.312200  0.470000  1.0
  H  H500  1  0.470000  0.030100  0.312200  1.0
  H  H501  1  0.312200  0.470000  0.030100  1.0
  H  H502  1  0.969900  0.687800  0.530000  1.0
  H  H503  1  0.530000  0.969900  0.687800  1.0
  H  H504  1  0.687800  0.530000  0.969900  1.0
  H  H505  1  0.019800  0.295200  0.571100  1.0
  H  H506  1  0.571100  0.019800  0.295200  1.0
  H  H507  1  0.295200  0.571100  0.019800  1.0
  H  H508  1  0.980200  0.704800  0.428900  1.0
  H  H509  1  0.428900  0.980200  0.704800  1.0
  H  H510  1  0.704800  0.428900  0.980200  1.0
  H  H511  1  0.052200  0.243100  0.664900  1.0
  H  H512  1  0.664900  0.052200  0.243100  1.0
  H  H513  1  0.243100  0.664900  0.052200  1.0
  H  H514  1  0.947800  0.756900  0.335100  1.0
  H  H515  1  0.335100  0.947800  0.756900  1.0
  H  H516  1  0.756900  0.335100  0.947800  1.0
  H  H517  1  0.175400  0.232300  0.382100  1.0
  H  H518  1  0.382100  0.175400  0.232300  1.0
  H  H519  1  0.232300  0.382100  0.175400  1.0
  H  H520  1  0.824600  0.767700  0.617900  1.0
  H  H521  1  0.617900  0.824600  0.767700  1.0
  H  H522  1  0.767700  0.617900  0.824600  1.0
  H  H523  1  0.085000  0.278700  0.226300  1.0
  H  H524  1  0.226300  0.085000  0.278700  1.0
  H  H525  1  0.278700  0.226300  0.085000  1.0
  H  H526  1  0.915000  0.721300  0.773700  1.0
  H  H527  1  0.773700  0.915000  0.721300  1.0
  H  H528  1  0.721300  0.773700  0.915000  1.0
  H  H529  1  0.999700  0.291700  0.276100  1.0
  H  H530  1  0.276100  0.999700  0.291700  1.0
  H  H531  1  0.291700  0.276100  0.999700  1.0
  H  H532  1  0.000300  0.708300  0.723900  1.0
  H  H533  1  0.723900  0.000300  0.708300  1.0
  H  H534  1  0.708300  0.723900  0.000300  1.0
  H  H535  1  0.002200  0.274900  0.378900  1.0
  H  H536  1  0.378900  0.002200  0.274900  1.0
  H  H537  1  0.274900  0.378900  0.002200  1.0
  H  H538  1  0.997800  0.725100  0.621100  1.0
  H  H539  1  0.621100  0.997800  0.725100  1.0
  H  H540  1  0.725100  0.621100  0.997800  1.0
  H  H541  1  0.273100  0.779400  0.640400  1.0
  H  H542  1  0.640400  0.273100  0.779400  1.0
  H  H543  1  0.779400  0.640400  0.273100  1.0
  H  H544  1  0.726900  0.220600  0.359600  1.0
  H  H545  1  0.359600  0.726900  0.220600  1.0
  H  H546  1  0.220600  0.359600  0.726900  1.0
  H  H547  1  0.313600  0.847600  0.658300  1.0
  H  H548  1  0.658300  0.313600  0.847600  1.0
  H  H549  1  0.847600  0.658300  0.313600  1.0
  H  H550  1  0.686400  0.152400  0.341700  1.0
  H  H551  1  0.341700  0.686400  0.152400  1.0
  H  H552  1  0.152400  0.341700  0.686400  1.0
  H  H553  1  0.263800  0.829600  0.595600  1.0
  H  H554  1  0.595600  0.263800  0.829600  1.0
  H  H555  1  0.829600  0.595600  0.263800  1.0
  H  H556  1  0.736200  0.170400  0.404400  1.0
  H  H557  1  0.404400  0.736200  0.170400  1.0
  H  H558  1  0.170400  0.404400  0.736200  1.0
  H  H559  1  0.151900  0.021400  0.714600  1.0
  H  H560  1  0.714600  0.151900  0.021400  1.0
  H  H561  1  0.021400  0.714600  0.151900  1.0
  H  H562  1  0.848100  0.978600  0.285400  1.0
  H  H563  1  0.285400  0.848100  0.978600  1.0
  H  H564  1  0.978600  0.285400  0.848100  1.0
  H  H565  1  0.148400  0.915500  0.716900  1.0
  H  H566  1  0.716900  0.148400  0.915500  1.0
  H  H567  1  0.915500  0.716900  0.148400  1.0
  H  H568  1  0.851600  0.084500  0.283100  1.0
  H  H569  1  0.283100  0.851600  0.084500  1.0
  H  H570  1  0.084500  0.283100  0.851600  1.0
  H  H571  1  0.295400  0.916000  0.624900  1.0
  H  H572  1  0.624900  0.295400  0.916000  1.0
  H  H573  1  0.916000  0.624900  0.295400  1.0
  H  H574  1  0.704600  0.084000  0.375100  1.0
  H  H575  1  0.375100  0.704600  0.084000  1.0
  H  H576  1  0.084000  0.375100  0.704600  1.0
  H  H577  1  0.297300  0.022000  0.622900  1.0
  H  H578  1  0.622900  0.297300  0.022000  1.0
  H  H579  1  0.022000  0.622900  0.297300  1.0
  H  H580  1  0.702700  0.978000  0.377100  1.0
  H  H581  1  0.377100  0.702700  0.978000  1.0
  H  H582  1  0.978000  0.377100  0.702700  1.0
  H  H583  1  0.218700  0.289000  0.593200  1.0
  H  H584  1  0.593200  0.218700  0.289000  1.0
  H  H585  1  0.289000  0.593200  0.218700  1.0
  H  H586  1  0.781300  0.711000  0.406800  1.0
  H  H587  1  0.406800  0.781300  0.711000  1.0
  H  H588  1  0.711000  0.406800  0.781300  1.0
  H  H589  1  0.403300  0.305300  0.651200  1.0
  H  H590  1  0.651200  0.403300  0.305300  1.0
  H  H591  1  0.305300  0.651200  0.403300  1.0
  H  H592  1  0.596700  0.694700  0.348800  1.0
  H  H593  1  0.348800  0.596700  0.694700  1.0
  H  H594  1  0.694700  0.348800  0.596700  1.0
  H  H595  1  0.386300  0.206700  0.680700  1.0
  H  H596  1  0.680700  0.386300  0.206700  1.0
  H  H597  1  0.206700  0.680700  0.386300  1.0
  H  H598  1  0.613700  0.793300  0.319300  1.0
  H  H599  1  0.319300  0.613700  0.793300  1.0
  H  H600  1  0.793300  0.319300  0.613700  1.0
  H  H601  1  0.313900  0.108700  0.682800  1.0
  H  H602  1  0.682800  0.313900  0.108700  1.0
  H  H603  1  0.108700  0.682800  0.313900  1.0
  H  H604  1  0.686100  0.891300  0.317200  1.0
  H  H605  1  0.317200  0.686100  0.891300  1.0
  H  H606  1  0.891300  0.317200  0.686100  1.0
  H  H607  1  0.389700  0.349200  0.547700  1.0
  H  H608  1  0.547700  0.389700  0.349200  1.0
  H  H609  1  0.349200  0.547700  0.389700  1.0
  H  H610  1  0.610300  0.650800  0.452300  1.0
  H  H611  1  0.452300  0.610300  0.650800  1.0
  H  H612  1  0.650800  0.452300  0.610300  1.0
  H  H613  1  0.337700  0.517200  0.538500  1.0
  H  H614  1  0.538500  0.337700  0.517200  1.0
  H  H615  1  0.517200  0.538500  0.337700  1.0
  H  H616  1  0.662300  0.482800  0.461500  1.0
  H  H617  1  0.461500  0.662300  0.482800  1.0
  H  H618  1  0.482800  0.461500  0.662300  1.0
  H  H619  1  0.266200  0.496700  0.605000  1.0
  H  H620  1  0.605000  0.266200  0.496700  1.0
  H  H621  1  0.496700  0.605000  0.266200  1.0
  H  H622  1  0.733800  0.503300  0.395000  1.0
  H  H623  1  0.395000  0.733800  0.503300  1.0
  H  H624  1  0.503300  0.395000  0.733800  1.0
  H  H625  1  0.256400  0.402400  0.642800  1.0
  H  H626  1  0.642800  0.256400  0.402400  1.0
  H  H627  1  0.402400  0.642800  0.256400  1.0
  H  H628  1  0.743600  0.597600  0.357200  1.0
  H  H629  1  0.357200  0.743600  0.597600  1.0
  H  H630  1  0.597600  0.357200  0.743600  1.0
  N  N631  1  0.320100  0.326100  0.393200  1.0
  N  N632  1  0.393200  0.320100  0.326100  1.0
  N  N633  1  0.326100  0.393200  0.320100  1.0
  N  N634  1  0.679900  0.673900  0.606800  1.0
  N  N635  1  0.606800  0.679900  0.673900  1.0
  N  N636  1  0.673900  0.606800  0.679900  1.0
  N  N637  1  0.122400  0.041300  0.548400  1.0
  N  N638  1  0.548400  0.122400  0.041300  1.0
  N  N639  1  0.041300  0.548400  0.122400  1.0
  N  N640  1  0.877600  0.958700  0.451600  1.0
  N  N641  1  0.451600  0.877600  0.958700  1.0
  N  N642  1  0.958700  0.451600  0.877600  1.0
  N  N643  1  0.222600  0.201700  0.281200  1.0
  N  N644  1  0.281200  0.222600  0.201700  1.0
  N  N645  1  0.201700  0.281200  0.222600  1.0
  N  N646  1  0.777400  0.798300  0.718800  1.0
  N  N647  1  0.718800  0.777400  0.798300  1.0
  N  N648  1  0.798300  0.718800  0.777400  1.0
  N  N649  1  0.405600  0.486000  0.455900  1.0
  N  N650  1  0.455900  0.405600  0.486000  1.0
  N  N651  1  0.486000  0.455900  0.405600  1.0
  N  N652  1  0.594400  0.514000  0.544100  1.0
  N  N653  1  0.544100  0.594400  0.514000  1.0
  N  N654  1  0.514000  0.544100  0.594400  1.0
  N  N655  1  0.219700  0.106500  0.516400  1.0
  N  N656  1  0.516400  0.219700  0.106500  1.0
  N  N657  1  0.106500  0.516400  0.219700  1.0
  N  N658  1  0.780300  0.893500  0.483600  1.0
  N  N659  1  0.483600  0.780300  0.893500  1.0
  N  N660  1  0.893500  0.483600  0.780300  1.0
  N  N661  1  0.111600  0.195100  0.540700  1.0
  N  N662  1  0.540700  0.111600  0.195100  1.0
  N  N663  1  0.195100  0.540700  0.111600  1.0
  N  N664  1  0.888400  0.804900  0.459300  1.0
  N  N665  1  0.459300  0.888400  0.804900  1.0
  N  N666  1  0.804900  0.459300  0.888400  1.0
  N  N667  1  0.242700  0.214100  0.625500  1.0
  N  N668  1  0.625500  0.242700  0.214100  1.0
  N  N669  1  0.214100  0.625500  0.242700  1.0
  N  N670  1  0.757300  0.785900  0.374500  1.0
  N  N671  1  0.374500  0.757300  0.785900  1.0
  N  N672  1  0.785900  0.374500  0.757300  1.0
  N  N673  1  0.226200  0.096400  0.652000  1.0
  N  N674  1  0.652000  0.226200  0.096400  1.0
  N  N675  1  0.096400  0.652000  0.226200  1.0
  N  N676  1  0.773800  0.903600  0.348000  1.0
  N  N677  1  0.348000  0.773800  0.903600  1.0
  N  N678  1  0.903600  0.348000  0.773800  1.0
  N  N679  1  0.106900  0.181300  0.654600  1.0
  N  N680  1  0.654600  0.106900  0.181300  1.0
  N  N681  1  0.181300  0.654600  0.106900  1.0
  N  N682  1  0.893100  0.818700  0.345400  1.0
  N  N683  1  0.345400  0.893100  0.818700  1.0
  N  N684  1  0.818700  0.345400  0.893100  1.0
  O  O685  1  0.929800  0.904200  0.634800  1.0
  O  O686  1  0.634800  0.929800  0.904200  1.0
  O  O687  1  0.904200  0.634800  0.929800  1.0
  O  O688  1  0.070200  0.095800  0.365200  1.0
  O  O689  1  0.365200  0.070200  0.095800  1.0
  O  O690  1  0.095800  0.365200  0.070200  1.0
  O  O691  1  0.050200  0.121500  0.884500  1.0
  O  O692  1  0.884500  0.050200  0.121500  1.0
  O  O693  1  0.121500  0.884500  0.050200  1.0
  O  O694  1  0.949800  0.878500  0.115500  1.0
  O  O695  1  0.115500  0.949800  0.878500  1.0
  O  O696  1  0.878500  0.115500  0.949800  1.0
  O  O697  1  0.225300  0.844500  0.672600  1.0
  O  O698  1  0.672600  0.225300  0.844500  1.0
  O  O699  1  0.844500  0.672600  0.225300  1.0
  O  O700  1  0.774700  0.155500  0.327400  1.0
  O  O701  1  0.327400  0.774700  0.155500  1.0
  O  O702  1  0.155500  0.327400  0.774700  1.0
  Zn  Zn703  1  0.166850  0.136240  0.593090  1.0
  Zn  Zn704  1  0.593090  0.166850  0.136240  1.0
  Zn  Zn705  1  0.136240  0.593090  0.166850  1.0
  Zn  Zn706  1  0.833150  0.863760  0.406910  1.0
  Zn  Zn707  1  0.406910  0.833150  0.863760  1.0
  Zn  Zn708  1  0.863760  0.406910  0.833150  1.0
