# generated using pymatgen
data_P2H46PtC24S2N5O11
_symmetry_space_group_name_H-M   'P 1'
_cell_length_a   8.96180000
_cell_length_b   10.98400000
_cell_length_c   19.91510000
_cell_angle_alpha   84.95900000
_cell_angle_beta   87.73900000
_cell_angle_gamma   84.19700000
_symmetry_Int_Tables_number   1
_chemical_formula_structural   P2H46PtC24S2N5O11
_chemical_formula_sum   'P4 H92 Pt2 C48 S4 N10 O22'
_cell_volume   1941.85681423
_cell_formula_units_Z   2
loop_
 _symmetry_equiv_pos_site_id
 _symmetry_equiv_pos_as_xyz
  1  'x, y, z'
loop_
 _atom_site_type_symbol
 _atom_site_label
 _atom_site_symmetry_multiplicity
 _atom_site_fract_x
 _atom_site_fract_y
 _atom_site_fract_z
 _atom_site_occupancy
  P  P1  1  0.263500  0.062200  0.156800  1.0
  P  P2  1  0.736500  0.937800  0.843200  1.0
  P  P3  1  0.203200  0.357900  0.197900  1.0
  P  P4  1  0.796800  0.642100  0.802100  1.0
  H  H5  1  0.778900  0.713200  0.239600  1
  H  H6  1  0.221100  0.286800  0.760400  1
  H  H7  1  0.711600  0.738500  0.313300  1
  H  H8  1  0.288400  0.261500  0.686700  1
  H  H9  1  0.614000  0.678100  0.261800  1
  H  H10  1  0.386000  0.321900  0.738200  1
  H  H11  1  0.850600  0.530900  0.277900  1
  H  H12  1  0.149400  0.469100  0.722100  1
  H  H13  1  0.138700  0.764400  0.059600  1
  H  H14  1  0.861300  0.235600  0.940400  1
  H  H15  1  0.029300  0.675800  0.031200  1
  H  H16  1  0.970700  0.324200  0.968800  1
  H  H17  1  0.112000  0.770300  0.980400  1
  H  H18  1  0.888000  0.229700  0.019600  1
  H  H19  1  0.316900  0.649700  0.988100  1
  H  H20  1  0.683100  0.350300  0.011900  1
  H  H21  1  0.948400  0.242900  0.340500  1.0
  H  H22  1  0.051600  0.757100  0.659500  1.0
  H  H23  1  0.893000  0.305600  0.447000  1.0
  H  H24  1  0.107000  0.694400  0.553000  1.0
  H  H25  1  0.336600  0.307800  0.474000  1.0
  H  H26  1  0.663400  0.692200  0.526000  1.0
  H  H27  1  0.382900  0.242200  0.368400  1.0
  H  H28  1  0.617100  0.757800  0.631600  1.0
  H  H29  1  0.978600  0.018900  0.308700  1.0
  H  H30  1  0.021400  0.981100  0.691300  1.0
  H  H31  1  0.933100  0.837000  0.368600  1.0
  H  H32  1  0.066900  0.163000  0.631400  1.0
  H  H33  1  0.615200  0.242800  0.618600  1.0
  H  H34  1  0.384800  0.757200  0.381400  1.0
  H  H35  1  0.415600  0.941300  0.322000  1.0
  H  H36  1  0.584400  0.058700  0.678000  1.0
  H  H37  1  0.117200  0.167200  0.072000  1.0
  H  H38  1  0.882800  0.832800  0.928000  1.0
  H  H39  1  0.283800  0.207000  0.064900  1.0
  H  H40  1  0.716200  0.793000  0.935100  1.0
  H  H41  1  0.233800  0.101900  0.971200  1.0
  H  H42  1  0.766200  0.898100  0.028800  1.0
  H  H43  1  0.197700  0.983900  0.019800  1.0
  H  H44  1  0.802300  0.016100  0.980200  1.0
  H  H45  1  0.365100  0.023500  0.012800  1.0
  H  H46  1  0.634900  0.976500  0.987200  1.0
  H  H47  1  0.484700  0.950000  0.199400  1.0
  H  H48  1  0.515300  0.050000  0.800600  1.0
  H  H49  1  0.469500  0.927500  0.121400  1.0
  H  H50  1  0.530500  0.072500  0.878600  1.0
  H  H51  1  0.673600  0.061900  0.131600  1.0
  H  H52  1  0.326400  0.938100  0.868400  1.0
  H  H53  1  0.556400  0.160400  0.165200  1.0
  H  H54  1  0.443600  0.839600  0.834800  1.0
  H  H55  1  0.543500  0.136400  0.087600  1.0
  H  H56  1  0.456500  0.863600  0.912400  1.0
  H  H57  1  0.191700  0.874200  0.123800  1.0
  H  H58  1  0.808300  0.125800  0.876200  1.0
  H  H59  1  0.166600  0.878600  0.203600  1.0
  H  H60  1  0.833400  0.121400  0.796400  1.0
  H  H61  1  0.936900  0.886800  0.152600  1.0
  H  H62  1  0.063100  0.113200  0.847400  1.0
  H  H63  1  0.973800  0.007100  0.106200  1.0
  H  H64  1  0.026200  0.992900  0.893800  1.0
  H  H65  1  0.948800  0.012700  0.185900  1.0
  H  H66  1  0.051200  0.987300  0.814100  1.0
  H  H67  1  0.054300  0.461500  0.277600  1.0
  H  H68  1  0.945700  0.538500  0.722400  1.0
  H  H69  1  0.227600  0.462900  0.293100  1.0
  H  H70  1  0.772400  0.537100  0.706900  1.0
  H  H71  1  0.124100  0.663400  0.260700  1.0
  H  H72  1  0.875900  0.336600  0.739300  1.0
  H  H73  1  0.074000  0.621000  0.190800  1.0
  H  H74  1  0.926000  0.379000  0.809200  1.0
  H  H75  1  0.248400  0.621700  0.205200  1.0
  H  H76  1  0.751600  0.378300  0.794800  1.0
  H  H77  1  0.410500  0.337500  0.123000  1.0
  H  H78  1  0.589500  0.662500  0.877000  1.0
  H  H79  1  0.351900  0.480000  0.126400  1.0
  H  H80  1  0.648100  0.520000  0.873600  1.0
  H  H81  1  0.587800  0.434800  0.185000  1.0
  H  H82  1  0.412200  0.565200  0.815000  1.0
  H  H83  1  0.513600  0.334200  0.235100  1.0
  H  H84  1  0.486400  0.665800  0.764900  1.0
  H  H85  1  0.456900  0.476700  0.237500  1.0
  H  H86  1  0.543100  0.523300  0.762500  1.0
  H  H87  1  0.043300  0.481900  0.123700  1.0
  H  H88  1  0.956700  0.518100  0.876300  1.0
  H  H89  1  0.086000  0.351100  0.095100  1.0
  H  H90  1  0.914000  0.648900  0.904900  1.0
  H  H91  1  0.834300  0.375800  0.124700  1.0
  H  H92  1  0.165700  0.624200  0.875300  1.0
  H  H93  1  0.873300  0.396100  0.200400  1.0
  H  H94  1  0.126700  0.603900  0.799600  1.0
  H  H95  1  0.915900  0.265100  0.171600  1.0
  H  H96  1  0.084100  0.734900  0.828400  1.0
  Pt  Pt97  1  0.213600  0.165400  0.250500  1.0
  Pt  Pt98  1  0.786400  0.834600  0.749500  1.0
  C  C99  1  0.716000  0.683000  0.277400  1
  C  C100  1  0.284000  0.317000  0.722600  1
  C  C101  1  0.122000  0.716000  0.022100  1
  C  C102  1  0.878000  0.284000  0.977900  1
  C  C103  1  0.028000  0.255700  0.368400  1.0
  C  C104  1  0.972000  0.744300  0.631600  1.0
  C  C105  1  0.994500  0.293600  0.431400  1.0
  C  C106  1  0.005500  0.706400  0.568600  1.0
  C  C107  1  0.108100  0.314200  0.471900  1.0
  C  C108  1  0.891900  0.685800  0.528100  1.0
  C  C109  1  0.255400  0.294400  0.447200  1.0
  C  C110  1  0.744600  0.705600  0.552800  1.0
  C  C111  1  0.282100  0.255800  0.384700  1.0
  C  C112  1  0.717900  0.744200  0.615300  1.0
  C  C113  1  0.061600  0.963400  0.323200  1.0
  C  C114  1  0.938400  0.036600  0.676800  1.0
  C  C115  1  0.033200  0.856100  0.359100  1.0
  C  C116  1  0.966800  0.143900  0.640900  1.0
  C  C117  1  0.845000  0.225200  0.618400  1.0
  C  C118  1  0.155000  0.774800  0.381600  1.0
  C  C119  1  0.700600  0.190400  0.633400  1.0
  C  C120  1  0.299400  0.809600  0.366600  1.0
  C  C121  1  0.316700  0.918400  0.330800  1.0
  C  C122  1  0.683300  0.081600  0.669200  1.0
  C  C123  1  0.224500  0.135500  0.072800  1.0
  C  C124  1  0.775500  0.864500  0.927200  1.0
  C  C125  1  0.258400  0.053700  0.013700  1.0
  C  C126  1  0.741600  0.946300  0.986300  1.0
  C  C127  1  0.458200  0.990500  0.154400  1.0
  C  C128  1  0.541800  0.009500  0.845600  1.0
  C  C129  1  0.569100  0.098100  0.132500  1.0
  C  C130  1  0.430900  0.901900  0.867500  1.0
  C  C131  1  0.152500  0.927100  0.159600  1.0
  C  C132  1  0.847500  0.072900  0.840400  1.0
  C  C133  1  0.989000  0.961400  0.150300  1.0
  C  C134  1  0.011000  0.038600  0.849700  1.0
  C  C135  1  0.154100  0.474500  0.256700  1.0
  C  C136  1  0.845900  0.525500  0.743300  1.0
  C  C137  1  0.150000  0.607100  0.225500  1.0
  C  C138  1  0.850000  0.392900  0.774500  1.0
  C  C139  1  0.372800  0.400800  0.153700  1.0
  C  C140  1  0.627200  0.599200  0.846300  1.0
  C  C141  1  0.494000  0.412700  0.208000  1.0
  C  C142  1  0.506000  0.587300  0.792000  1.0
  C  C143  1  0.054400  0.392400  0.136300  1.0
  C  C144  1  0.945600  0.607600  0.863700  1.0
  C  C145  1  0.907200  0.354200  0.160200  1.0
  C  C146  1  0.092800  0.645800  0.839800  1.0
  S  S147  1  0.085800  0.370500  0.552900  1.0
  S  S148  1  0.914200  0.629500  0.447100  1.0
  S  S149  1  0.862400  0.370700  0.574700  1.0
  S  S150  1  0.137600  0.629300  0.425300  1.0
  N  N151  1  0.673900  0.085600  0.293300  1
  N  N152  1  0.326100  0.914400  0.706700  1
  N  N153  1  0.716000  0.026000  0.476000  1
  N  N154  1  0.284000  0.974000  0.524000  1
  N  N155  1  0.558000  0.463000  0.448100  1
  N  N156  1  0.442000  0.537000  0.551900  1
  N  N157  1  0.170200  0.236000  0.344900  1.0
  N  N158  1  0.829800  0.764000  0.655100  1.0
  N  N159  1  0.201400  0.995300  0.307200  1.0
  N  N160  1  0.798600  0.004700  0.692800  1.0
  O  O161  1  0.705200  0.971300  0.298100  1
  O  O162  1  0.294800  0.028700  0.701900  1
  O  O163  1  0.543000  0.125100  0.300400  1
  O  O164  1  0.457000  0.874900  0.699600  1
  O  O165  1  0.774000  0.152800  0.278000  1
  O  O166  1  0.226000  0.847200  0.722000  1
  O  O167  1  0.665000  0.132000  0.485000  1
  O  O168  1  0.335000  0.868000  0.515000  1
  O  O169  1  0.613000  0.969000  0.463000  1
  O  O170  1  0.387000  0.031000  0.537000  1
  O  O171  1  0.842000  0.979000  0.485000  1
  O  O172  1  0.158000  0.021000  0.515000  1
  O  O173  1  0.781000  0.556000  0.304100  1
  O  O174  1  0.219000  0.444000  0.695900  1
  O  O175  1  0.251000  0.621000  0.014000  1
  O  O176  1  0.749000  0.379000  0.986000  1
  O  O177  1  0.622000  0.393000  0.408800  1
  O  O178  1  0.378000  0.607000  0.591200  1
  O  O179  1  0.555000  0.571000  0.431000  1
  O  O180  1  0.445000  0.429000  0.569000  1
  O  O181  1  0.526000  0.428000  0.507000  1
  O  O182  1  0.474000  0.572000  0.493000  1
