# generated using pymatgen
data_Co9P3H181C135N36(ClO)9
_symmetry_space_group_name_H-M   'P 1'
_cell_length_a   18.44600000
_cell_length_b   21.37100000
_cell_length_c   25.36200000
_cell_angle_alpha   69.97400000
_cell_angle_beta   83.29300000
_cell_angle_gamma   64.70000000
_symmetry_Int_Tables_number   1
_chemical_formula_structural   Co9P3H181C135N36(ClO)9
_chemical_formula_sum   'Co18 P6 H362 C270 N72 Cl18 O18'
_cell_volume   8487.30127739
_cell_formula_units_Z   2
loop_
 _symmetry_equiv_pos_site_id
 _symmetry_equiv_pos_as_xyz
  1  'x, y, z'
loop_
 _atom_site_type_symbol
 _atom_site_label
 _atom_site_symmetry_multiplicity
 _atom_site_fract_x
 _atom_site_fract_y
 _atom_site_fract_z
 _atom_site_occupancy
  Co  Co1  1  0.254160  0.485400  0.497440  1
  Co  Co2  1  0.745840  0.514600  0.502560  1
  Co  Co3  1  0.285630  0.562730  0.150970  1
  Co  Co4  1  0.714370  0.437270  0.849030  1
  Co  Co5  1  0.500660  0.475990  0.162930  1
  Co  Co6  1  0.499340  0.524010  0.837070  1
  Co  Co7  1  0.709330  0.354160  0.199770  1
  Co  Co8  1  0.290670  0.645840  0.800230  1
  Co  Co9  1  0.344080  0.345030  0.628880  1
  Co  Co10  1  0.655920  0.654970  0.371120  1
  Co  Co11  1  0.178170  0.604240  0.356030  1
  Co  Co12  1  0.821830  0.395760  0.643970  1
  Co  Co13  1  0.725210  0.060750  0.471160  1
  Co  Co14  1  0.274790  0.939250  0.528840  1
  Co  Co15  1  0.855570  0.068410  0.354250  1
  Co  Co16  1  0.144430  0.931590  0.645750  1
  Co  Co17  1  0.576940  0.089550  0.578740  1
  Co  Co18  1  0.423060  0.910450  0.421260  1
  P  P19  1  0.515800  0.206100  0.648500  1
  P  P20  1  0.484200  0.793900  0.351500  1
  P  P21  1  0.153700  0.563300  0.247800  1
  P  P22  1  0.846300  0.436700  0.752200  1
  P  P23  1  0.804200  0.179100  0.226040  1
  P  P24  1  0.195800  0.820900  0.773960  1
  H  H25  1  0.209500  0.255800  0.164600  1
  H  H26  1  0.790500  0.744200  0.835400  1
  H  H27  1  0.247500  0.291100  0.233500  1
  H  H28  1  0.752500  0.708900  0.766500  1
  H  H29  1  0.436100  0.133700  0.149900  1
  H  H30  1  0.563900  0.866300  0.850100  1
  H  H31  1  0.474500  0.163400  0.217200  1
  H  H32  1  0.525500  0.836600  0.782800  1
  H  H33  1  0.364100  0.296300  0.271600  1
  H  H34  1  0.635900  0.703700  0.728400  1
  H  H35  1  0.450400  0.239100  0.265900  1
  H  H36  1  0.549600  0.760900  0.734100  1
  H  H37  1  0.392600  0.214200  0.309700  1
  H  H38  1  0.607400  0.785800  0.690300  1
  H  H39  1  0.305200  0.189200  0.113600  1
  H  H40  1  0.694800  0.810800  0.886400  1
  H  H41  1  0.633700  0.928100  0.690000  1
  H  H42  1  0.366300  0.071900  0.310000  1
  H  H43  1  0.643400  0.993900  0.697700  1
  H  H44  1  0.356600  0.006100  0.302300  1
  H  H45  1  0.705500  0.913500  0.726800  1
  H  H46  1  0.294500  0.086500  0.273200  1
  H  H47  1  0.148900  0.429400  0.736100  1
  H  H48  1  0.851100  0.570600  0.263900  1
  H  H49  1  0.168200  0.404400  0.682900  1
  H  H50  1  0.831800  0.595600  0.317100  1
  H  H51  1  0.205200  0.454500  0.690900  1
  H  H52  1  0.794800  0.545500  0.309100  1
  H  H53  1  0.190400  0.032400  0.255600  1
  H  H54  1  0.809600  0.967600  0.744400  1
  H  H55  1  0.114600  0.104800  0.229400  1
  H  H56  1  0.885400  0.895200  0.770600  1
  H  H57  1  0.132100  0.034800  0.214000  1
  H  H58  1  0.867900  0.965200  0.786000  1
  H  H59  1  0.390400  0.002400  0.769700  1
  H  H60  1  0.609600  0.997600  0.230300  1
  H  H61  1  0.314100  0.034100  0.730900  1
  H  H62  1  0.685900  0.965900  0.269100  1
  H  H63  1  0.350600  0.086200  0.735600  1
  H  H64  1  0.649400  0.913800  0.264400  1
  H  H65  1  0.041300  0.527400  0.587700  1
  H  H66  1  0.958700  0.472600  0.412300  1
  H  H67  1  0.134300  0.501200  0.581900  1
  H  H68  1  0.865700  0.498800  0.418100  1
  H  H69  1  0.091600  0.456400  0.571800  1
  H  H70  1  0.908400  0.543600  0.428200  1
  H  H71  1  0.158300  0.958600  0.362900  1
  H  H72  1  0.841700  0.041400  0.637100  1
  H  H73  1  0.396100  0.739900  0.149200  1
  H  H74  1  0.603900  0.260100  0.850800  1
  H  H75  1  0.120000  0.755400  0.978300  1
  H  H76  1  0.880000  0.244600  0.021700  1
  H  H77  1  0.671400  0.510700  0.996800  1
  H  H78  1  0.328600  0.489300  0.003200  1
  H  H79  1  0.820300  0.394300  0.041700  1
  H  H80  1  0.179700  0.605700  0.958300  1
  H  H81  1  0.815200  0.340300  0.100700  1
  H  H82  1  0.184800  0.659700  0.899300  1
  H  H83  1  0.829800  0.409000  0.096500  1
  H  H84  1  0.170200  0.591000  0.903500  1
  H  H85  1  0.546600  0.351600  0.369200  1
  H  H86  1  0.453400  0.648400  0.630800  1
  H  H87  1  0.934800  0.420900  0.219000  1
  H  H88  1  0.065200  0.579100  0.781000  1
  H  H89  1  0.459900  0.251300  0.386500  1
  H  H90  1  0.540100  0.748700  0.613500  1
  H  H91  1  0.954200  0.600100  0.486300  1
  H  H92  1  0.045800  0.399900  0.513700  1
  H  H93  1  0.582700  0.202400  0.320300  1
  H  H94  1  0.417300  0.797600  0.679700  1
  H  H95  1  0.648300  0.124200  0.350800  1
  H  H96  1  0.351700  0.875800  0.649200  1
  H  H97  1  0.657600  0.194000  0.350300  1
  H  H98  1  0.342400  0.806000  0.649700  1
  H  H99  1  0.188500  0.273400  0.524700  1
  H  H100  1  0.811500  0.726600  0.475300  1
  H  H101  1  0.083800  0.880600  0.262900  1
  H  H102  1  0.916200  0.119400  0.737100  1
  H  H103  1  0.474300  0.521400  0.373700  1
  H  H104  1  0.525700  0.478600  0.626300  1
  H  H105  1  0.549700  0.277300  0.135200  1
  H  H106  1  0.450300  0.722700  0.864800  1
  H  H107  1  0.564600  0.313500  0.174600  1
  H  H108  1  0.435400  0.686500  0.825400  1
  H  H109  1  0.577200  0.341300  0.110000  1
  H  H110  1  0.422800  0.658700  0.890000  1
  H  H111  1  0.490500  0.611100  0.035100  1
  H  H112  1  0.509500  0.388900  0.964900  1
  H  H113  1  0.466900  0.546800  0.040900  1
  H  H114  1  0.533100  0.453200  0.959100  1
  H  H115  1  0.508400  0.577000  0.986700  1
  H  H116  1  0.491600  0.423000  0.013300  1
  H  H117  1  0.530700  0.989500  0.545500  1
  H  H118  1  0.469300  0.010500  0.454500  1
  H  H119  1  0.497600  0.929300  0.571300  1
  H  H120  1  0.502400  0.070700  0.428700  1
  H  H121  1  0.580100  0.917200  0.593300  1
  H  H122  1  0.419900  0.082800  0.406700  1
  H  H123  1  0.398400  0.411800  0.270400  1
  H  H124  1  0.601600  0.588200  0.729600  1
  H  H125  1  0.395200  0.488900  0.262900  1
  H  H126  1  0.604800  0.511100  0.737100  1
  H  H127  1  0.399500  0.433600  0.323300  1
  H  H128  1  0.600500  0.566400  0.676700  1
  H  H129  1  0.923700  0.673000  0.378600  1
  H  H130  1  0.076300  0.327000  0.621400  1
  H  H131  1  0.997300  0.648300  0.341100  1
  H  H132  1  0.002700  0.351700  0.658900  1
  H  H133  1  0.978700  0.715500  0.360700  1
  H  H134  1  0.021300  0.284500  0.639300  1
  H  H135  1  0.950500  0.855100  0.356700  1
  H  H136  1  0.049500  0.144900  0.643300  1
  H  H137  1  0.934800  0.937800  0.329200  1
  H  H138  1  0.065200  0.062200  0.670800  1
  H  H139  1  0.889000  0.905100  0.305800  1
  H  H140  1  0.111000  0.094900  0.694200  1
  H  H141  1  0.234800  0.437100  0.074000  1
  H  H142  1  0.765200  0.562900  0.926000  1
  H  H143  1  0.209400  0.502400  0.097300  1
  H  H144  1  0.790600  0.497600  0.902700  1
  H  H145  1  0.218000  0.425200  0.138000  1
  H  H146  1  0.782000  0.574800  0.862000  1
  H  H147  1  0.858900  0.223700  0.462000  1
  H  H148  1  0.141100  0.776300  0.538000  1
  H  H149  1  0.446100  0.380900  0.492800  1
  H  H150  1  0.553900  0.619100  0.507200  1
  H  H151  1  0.437800  0.441100  0.518000  1
  H  H152  1  0.562200  0.558900  0.482000  1
  H  H153  1  0.508300  0.415800  0.478400  1
  H  H154  1  0.491700  0.584200  0.521600  1
  H  H155  1  0.390300  0.622200  0.279000  1
  H  H156  1  0.609700  0.377800  0.721000  1
  H  H157  1  0.305900  0.673000  0.294200  1
  H  H158  1  0.694100  0.327000  0.705800  1
  H  H159  1  0.314100  0.610700  0.271600  1
  H  H160  1  0.685900  0.389300  0.728400  1
  H  H161  1  0.570400  0.610500  0.121700  1
  H  H162  1  0.429600  0.389500  0.878300  1
  H  H163  1  0.575300  0.566700  0.186000  1
  H  H164  1  0.424700  0.433300  0.814000  1
  H  H165  1  0.555400  0.650500  0.166100  1
  H  H166  1  0.444600  0.349500  0.833900  1
  H  H167  1  0.429900  0.226200  0.864300  1
  H  H168  1  0.570100  0.773800  0.135700  1
  H  H169  1  0.446900  0.163400  0.839600  1
  H  H170  1  0.553100  0.836600  0.160400  1
  H  H171  1  0.376300  0.182400  0.880500  1
  H  H172  1  0.623700  0.817600  0.119500  1
  H  H173  1  0.835300  0.878400  0.657300  1
  H  H174  1  0.164700  0.121600  0.342700  1
  H  H175  1  0.422000  0.243700  0.524400  1
  H  H176  1  0.578000  0.756300  0.475600  1
  H  H177  1  0.401300  0.179100  0.526100  1
  H  H178  1  0.598700  0.820900  0.473900  1
  H  H179  1  0.368100  0.253100  0.476300  1
  H  H180  1  0.631900  0.746900  0.523700  1
  H  H181  1  0.732900  0.339800  0.342400  1
  H  H182  1  0.267100  0.660200  0.657600  1
  H  H183  1  0.744300  0.273700  0.323500  1
  H  H184  1  0.255700  0.726300  0.676500  1
  H  H185  1  0.701300  0.281700  0.379400  1
  H  H186  1  0.298700  0.718300  0.620600  1
  H  H187  1  0.946400  0.218700  0.369600  1
  H  H188  1  0.053600  0.781300  0.630400  1
  H  H189  1  0.912800  0.196500  0.328200  1
  H  H190  1  0.087200  0.803500  0.671800  1
  H  H191  1  0.984000  0.137300  0.370500  1
  H  H192  1  0.016000  0.862700  0.629500  1
  H  H193  1  0.162200  0.377600  0.427200  1
  H  H194  1  0.837800  0.622400  0.572800  1
  H  H195  1  0.228100  0.408300  0.414800  1
  H  H196  1  0.771900  0.591700  0.585200  1
  H  H197  1  0.144300  0.452200  0.435600  1
  H  H198  1  0.855700  0.547800  0.564400  1
  H  H199  1  0.680400  0.877400  0.479800  1
  H  H200  1  0.319600  0.122600  0.520200  1
  H  H201  1  0.646000  0.959400  0.477200  1
  H  H202  1  0.354000  0.040600  0.522800  1
  H  H203  1  0.718200  0.900000  0.518600  1
  H  H204  1  0.281800  0.100000  0.481400  1
  H  H205  1  0.909800  0.955100  0.542500  1
  H  H206  1  0.090200  0.044900  0.457500  1
  H  H207  1  0.866400  0.935300  0.505200  1
  H  H208  1  0.133600  0.064700  0.494800  1
  H  H209  1  0.916900  0.875000  0.559100  1
  H  H210  1  0.083100  0.125000  0.440900  1
  H  H211  1  0.363800  0.576200  0.613300  1
  H  H212  1  0.636200  0.423800  0.386700  1
  H  H213  1  0.238300  0.771800  0.168100  1
  H  H214  1  0.761700  0.228200  0.831900  1
  H  H215  1  0.212900  0.708700  0.173400  1
  H  H216  1  0.787100  0.291300  0.826600  1
  H  H217  1  0.221200  0.760000  0.114000  1
  H  H218  1  0.778800  0.240000  0.886000  1
  H  H219  1  0.273100  0.667600  0.513000  1
  H  H220  1  0.726900  0.332400  0.487000  1
  H  H221  1  0.231900  0.631000  0.490000  1
  H  H222  1  0.768100  0.369000  0.510000  1
  H  H223  1  0.321400  0.617700  0.476600  1
  H  H224  1  0.678600  0.382300  0.523400  1
  H  H225  1  0.303500  0.622900  0.002300  1
  H  H226  1  0.696500  0.377100  0.997700  1
  H  H227  1  0.321500  0.655400  0.043500  1
  H  H228  1  0.678500  0.344600  0.956500  1
  H  H229  1  0.283000  0.706700  0.983600  1
  H  H230  1  0.717000  0.293300  0.016400  1
  H  H231  1  0.062100  0.295300  0.204600  1
  H  H232  1  0.937900  0.704700  0.795400  1
  H  H233  1  0.036800  0.230900  0.214600  1
  H  H234  1  0.963200  0.769100  0.785400  1
  H  H235  1  0.046900  0.252500  0.265600  1
  H  H236  1  0.953100  0.747500  0.734400  1
  H  H237  1  0.736700  0.476700  0.249800  1
  H  H238  1  0.263300  0.523300  0.750200  1
  H  H239  1  0.720100  0.490200  0.186800  1
  H  H240  1  0.279900  0.509800  0.813200  1
  H  H241  1  0.776200  0.520000  0.202100  1
  H  H242  1  0.223800  0.480000  0.797900  1
  H  H243  1  0.258600  0.328400  0.828500  1
  H  H244  1  0.741400  0.671600  0.171500  1
  H  H245  1  0.982100  0.889500  0.177200  1
  H  H246  1  0.017900  0.110500  0.822800  1
  H  H247  1  0.019900  0.814300  0.166000  1
  H  H248  1  0.980100  0.185700  0.834000  1
  H  H249  1  0.066400  0.864500  0.150300  1
  H  H250  1  0.933600  0.135500  0.849700  1
  H  H251  1  0.221400  0.210900  0.651900  1
  H  H252  1  0.778600  0.789100  0.348100  1
  H  H253  1  0.276200  0.239800  0.670200  1
  H  H254  1  0.723800  0.760200  0.329800  1
  H  H255  1  0.313000  0.181500  0.639100  1
  H  H256  1  0.687000  0.818500  0.360900  1
  H  H257  1  0.963900  0.795300  0.025800  1
  H  H258  1  0.036100  0.204700  0.974200  1
  H  H259  1  0.974100  0.778300  0.090400  1
  H  H260  1  0.025900  0.221700  0.909600  1
  H  H261  1  0.965200  0.721600  0.068500  1
  H  H262  1  0.034800  0.278400  0.931500  1
  H  H263  1  0.073600  0.908100  0.450800  1
  H  H264  1  0.926400  0.091900  0.549200  1
  H  H265  1  0.987700  0.924800  0.431500  1
  H  H266  1  0.012300  0.075200  0.568500  1
  H  H267  1  0.001200  0.981900  0.450100  1
  H  H268  1  0.998800  0.018100  0.549900  1
  H  H269  1  0.177900  0.803600  0.362300  1
  H  H270  1  0.822100  0.196400  0.637700  1
  H  H271  1  0.205400  0.718600  0.385800  1
  H  H272  1  0.794600  0.281400  0.614200  1
  H  H273  1  0.119400  0.770700  0.397700  1
  H  H274  1  0.880600  0.229300  0.602300  1
  H  H275  1  0.800400  0.848100  0.403900  1
  H  H276  1  0.199600  0.151900  0.596100  1
  H  H277  1  0.427700  0.454700  0.702600  1
  H  H278  1  0.572300  0.545300  0.297400  1
  H  H279  1  0.446700  0.384400  0.687100  1
  H  H280  1  0.553300  0.615600  0.312900  1
  H  H281  1  0.367000  0.418100  0.716900  1
  H  H282  1  0.633000  0.581900  0.283100  1
  H  H283  1  0.417900  0.220500  0.741600  1
  H  H284  1  0.582100  0.779500  0.258400  1
  H  H285  1  0.089500  0.707300  0.243200  1
  H  H286  1  0.910500  0.292700  0.756800  1
  H  H287  1  0.098900  0.651800  0.134600  1
  H  H288  1  0.901100  0.348200  0.865400  1
  H  H289  1  0.977100  0.087600  0.257300  1
  H  H290  1  0.022900  0.912400  0.742700  1
  H  H291  1  0.897600  0.260900  0.214300  1
  H  H292  1  0.102400  0.739100  0.785700  1
  H  H293  1  0.435600  0.108500  0.657300  1
  H  H294  1  0.564400  0.891500  0.342700  1
  H  H295  1  0.751800  0.205200  0.540100  1
  H  H296  1  0.248200  0.794800  0.459900  1
  H  H297  1  0.744500  0.131200  0.551900  1
  H  H298  1  0.255500  0.868800  0.448100  1
  H  H299  1  0.684200  0.203300  0.509300  1
  H  H300  1  0.315800  0.796700  0.490700  1
  H  H301  1  0.414400  0.943800  0.669100  1
  H  H302  1  0.585600  0.056200  0.330900  1
  H  H303  1  0.764600  0.004000  0.114200  1
  H  H304  1  0.235400  0.996000  0.885800  1
  H  H305  1  0.814000  0.777000  0.129800  1
  H  H306  1  0.186000  0.223000  0.870200  1
  H  H307  1  0.807300  0.914900  0.201200  1
  H  H308  1  0.192700  0.085100  0.798800  1
  H  H309  1  0.830100  0.749500  0.244300  1
  H  H310  1  0.169900  0.250500  0.755700  1
  H  H311  1  0.879900  0.792400  0.246600  1
  H  H312  1  0.120100  0.207600  0.753400  1
  H  H313  1  0.911600  0.736100  0.213700  1
  H  H314  1  0.088400  0.263900  0.786300  1
  H  H315  1  0.748300  0.867000  0.049200  1
  H  H316  1  0.251700  0.133000  0.950800  1
  H  H317  1  0.718300  0.988600  0.044400  1
  H  H318  1  0.281700  0.011400  0.955600  1
  H  H319  1  0.190000  0.059900  0.068600  1
  H  H320  1  0.810000  0.940100  0.931400  1
  H  H321  1  0.122100  0.984000  0.119200  1
  H  H322  1  0.877900  0.016000  0.880800  1
  H  H323  1  0.038900  0.023800  0.086800  1
  H  H324  1  0.961100  0.976200  0.913200  1
  H  H325  1  0.043100  0.016000  0.150300  1
  H  H326  1  0.956900  0.984000  0.849700  1
  H  H327  1  0.198200  0.165800  0.052500  1
  H  H328  1  0.801800  0.834200  0.947500  1
  H  H329  1  0.100500  0.263800  0.072700  1
  H  H330  1  0.899500  0.736200  0.927300  1
  H  H331  1  0.967500  0.152000  0.122800  1
  H  H332  1  0.032500  0.848000  0.877200  1
  H  H333  1  0.985900  0.252700  0.109600  1
  H  H334  1  0.014100  0.747300  0.890400  1
  H  H335  1  0.127900  0.222200  0.470900  1
  H  H336  1  0.872100  0.777800  0.529100  1
  H  H337  1  0.145600  0.264300  0.375200  1
  H  H338  1  0.854400  0.735700  0.624800  1
  H  H339  1  0.035400  0.344100  0.314500  1
  H  H340  1  0.964600  0.655900  0.685500  1
  H  H341  1  0.907500  0.381800  0.349500  1
  H  H342  1  0.092500  0.618200  0.650500  1
  H  H343  1  0.889700  0.339700  0.445200  1
  H  H344  1  0.110300  0.660300  0.554800  1
  H  H345  1  0.009700  0.230700  0.546300  1
  H  H346  1  0.990300  0.769300  0.453700  1
  H  H347  1  0.951400  0.221300  0.512400  1
  H  H348  1  0.048600  0.778700  0.487600  1
  H  H349  1  0.927700  0.296500  0.521500  1
  H  H350  1  0.072300  0.703500  0.478500  1
  H  H351  1  0.574700  0.156400  0.072300  1
  H  H352  1  0.425300  0.843600  0.927700  1
  H  H353  1  0.539700  0.236800  0.030400  1
  H  H354  1  0.460300  0.763200  0.969600  1
  H  H355  1  0.625900  0.202400  0.057700  1
  H  H356  1  0.374100  0.797600  0.942300  1
  H  H357  1  0.733000  0.161400  0.000400  1
  H  H358  1  0.267000  0.838600  0.999600  1
  H  H359  1  0.794600  0.107600  0.932300  1
  H  H360  1  0.205400  0.892400  0.067700  1
  H  H361  1  0.723000  0.076900  0.883600  1
  H  H362  1  0.277000  0.923100  0.116400  1
  H  H363  1  0.589700  0.099800  0.903100  1
  H  H364  1  0.410300  0.900200  0.096900  1
  H  H365  1  0.528000  0.153600  0.971200  1
  H  H366  1  0.472000  0.846400  0.028800  1
  H  H367  1  0.345500  0.958500  0.200900  1
  H  H368  1  0.654500  0.041500  0.799100  1
  H  H369  1  0.288400  0.028700  0.155000  1
  H  H370  1  0.711600  0.971300  0.845000  1
  H  H371  1  0.335200  0.036000  0.198700  1
  H  H372  1  0.664800  0.964000  0.801300  1
  H  H373  1  0.491300  0.950800  0.200200  1
  H  H374  1  0.508700  0.049200  0.799800  1
  H  H375  1  0.593800  0.972000  0.145900  1
  H  H376  1  0.406200  0.028000  0.854100  1
  H  H377  1  0.571000  0.035600  0.050400  1
  H  H378  1  0.429000  0.964400  0.949600  1
  H  H379  1  0.445600  0.078000  0.009300  1
  H  H380  1  0.554400  0.922000  0.990700  1
  H  H381  1  0.343000  0.056700  0.063700  1
  H  H382  1  0.657000  0.943300  0.936300  1
  H  H383  1  0.397300  0.364300  0.076800  1
  H  H384  1  0.602700  0.635700  0.923200  1
  H  H385  1  0.388800  0.323700  0.140700  1
  H  H386  1  0.611200  0.676300  0.859300  1
  C  C387  1  0.263700  0.239300  0.173000  1
  C  C388  1  0.736300  0.760700  0.827000  1
  C  C389  1  0.285400  0.259700  0.216100  1
  C  C390  1  0.714600  0.740300  0.783900  1
  C  C391  1  0.363100  0.230300  0.228600  1
  C  C392  1  0.636900  0.769700  0.771400  1
  C  C393  1  0.397000  0.167400  0.164900  1
  C  C394  1  0.603000  0.832600  0.835100  1
  C  C395  1  0.420900  0.183600  0.205800  1
  C  C396  1  0.579100  0.816400  0.794200  1
  C  C397  1  0.395600  0.246500  0.273100  1
  C  C398  1  0.604400  0.753500  0.726900  1
  C  C399  1  0.319000  0.197100  0.144200  1
  C  C400  1  0.681000  0.802900  0.855800  1
  C  C401  1  0.671600  0.946200  0.694000  1
  C  C402  1  0.328400  0.053800  0.306000  1
  C  C403  1  0.189400  0.415200  0.709800  1
  C  C404  1  0.810600  0.584800  0.290200  1
  C  C405  1  0.135400  0.052400  0.243300  1
  C  C406  1  0.864600  0.947600  0.756700  1
  C  C407  1  0.488200  0.985500  0.619100  1
  C  C408  1  0.511800  0.014500  0.380900  1
  C  C409  1  0.362900  0.038000  0.735100  1
  C  C410  1  0.637100  0.962000  0.264900  1
  C  C411  1  0.104700  0.499100  0.260400  1
  C  C412  1  0.895300  0.500900  0.739600  1
  C  C413  1  0.630600  0.351900  0.310200  1
  C  C414  1  0.369400  0.648100  0.689800  1
  C  C415  1  0.600000  0.213400  0.676300  1
  C  C416  1  0.400000  0.786600  0.323700  1
  C  C417  1  0.588300  0.511100  0.054300  1
  C  C418  1  0.411700  0.488900  0.945700  1
  C  C419  1  0.748000  0.927500  0.440200  1
  C  C420  1  0.252000  0.072500  0.559800  1
  C  C421  1  0.503300  0.408400  0.285400  1
  C  C422  1  0.496700  0.591600  0.714600  1
  C  C423  1  0.331200  0.683500  0.152100  1
  C  C424  1  0.668800  0.316500  0.847900  1
  C  C425  1  0.087500  0.029300  0.291400  1
  C  C426  1  0.912500  0.970700  0.708600  1
  C  C427  1  0.458800  0.377200  0.129200  1
  C  C428  1  0.541200  0.622800  0.870800  1
  C  C429  1  0.711700  0.436000  0.078200  1
  C  C430  1  0.288300  0.564000  0.921800  1
  C  C431  1  0.352200  0.572300  0.353000  1
  C  C432  1  0.647800  0.427700  0.647000  1
  C  C433  1  0.942600  0.324400  0.219700  1
  C  C434  1  0.057400  0.675600  0.780300  1
  C  C435  1  0.029600  0.618600  0.422400  1
  C  C436  1  0.970400  0.381400  0.577600  1
  C  C437  1  0.077200  0.721100  0.056700  1
  C  C438  1  0.922800  0.278900  0.943300  1
  C  C439  1  0.086400  0.504600  0.567400  1
  C  C440  1  0.913600  0.495400  0.432600  1
  C  C441  1  0.106800  0.983600  0.346600  1
  C  C442  1  0.893200  0.016400  0.653400  1
  C  C443  1  0.829500  0.411400  0.216100  1
  C  C444  1  0.170500  0.588600  0.783900  1
  C  C445  1  0.072600  0.809600  0.236700  1
  C  C446  1  0.927400  0.190400  0.763300  1
  C  C447  1  0.394800  0.695900  0.151700  1
  C  C448  1  0.605200  0.304100  0.848300  1
  C  C449  1  0.132300  0.725000  0.015400  1
  C  C450  1  0.867700  0.275000  0.984600  1
  C  C451  1  0.658400  0.491800  0.033600  1
  C  C452  1  0.341600  0.508200  0.966400  1
  C  C453  1  0.802800  0.390700  0.079400  1
  C  C454  1  0.197200  0.609300  0.920600  1
  C  C455  1  0.347700  0.258700  0.799900  1
  C  C456  1  0.652300  0.741300  0.200100  1
  C  C457  1  0.041200  0.981000  0.372500  1
  C  C458  1  0.958800  0.019000  0.627500  1
  C  C459  1  0.558500  0.366300  0.331500  1
  C  C460  1  0.441500  0.633700  0.668500  1
  C  C461  1  0.909200  0.391900  0.218400  1
  C  C462  1  0.090800  0.608100  0.781600  1
  C  C463  1  0.497300  0.214100  0.414300  1
  C  C464  1  0.502700  0.785900  0.585700  1
  C  C465  1  0.812400  0.943900  0.575700  1
  C  C466  1  0.187600  0.056100  0.424300  1
  C  C467  1  0.413500  0.024800  0.688700  1
  C  C468  1  0.586500  0.975200  0.311300  1
  C  C469  1  0.791800  0.162500  0.478800  1
  C  C470  1  0.208200  0.837500  0.521200  1
  C  C471  1  0.575200  0.172200  0.405200  1
  C  C472  1  0.424800  0.827800  0.594800  1
  C  C473  1  0.006200  0.591600  0.474600  1
  C  C474  1  0.993800  0.408400  0.525400  1
  C  C475  1  0.459000  0.631000  0.155600  1
  C  C476  1  0.541000  0.369000  0.844400  1
  C  C477  1  0.620000  0.173300  0.351800  1
  C  C478  1  0.380000  0.826700  0.648200  1
  C  C479  1  0.211000  0.300400  0.533300  1
  C  C480  1  0.789000  0.699600  0.466700  1
  C  C481  1  0.400000  0.485000  0.434200  1
  C  C482  1  0.600000  0.515000  0.565800  1
  C  C483  1  0.073800  0.550200  0.505500  1
  C  C484  1  0.926200  0.449800  0.494500  1
  C  C485  1  0.206400  0.678400  0.036800  1
  C  C486  1  0.793600  0.321600  0.963200  1
  C  C487  1  0.363200  0.475900  0.634300  1
  C  C488  1  0.636800  0.524100  0.365700  1
  C  C489  1  0.091500  0.832700  0.268900  1
  C  C490  1  0.908500  0.167300  0.731100  1
  C  C491  1  0.328600  0.429400  0.117500  1
  C  C492  1  0.671400  0.570600  0.882500  1
  C  C493  1  0.392700  0.367400  0.114400  1
  C  C494  1  0.607300  0.632600  0.885600  1
  C  C495  1  0.422800  0.525400  0.383900  1
  C  C496  1  0.577200  0.474600  0.616100  1
  C  C497  1  0.545500  0.322300  0.138100  1
  C  C498  1  0.454500  0.677700  0.861900  1
  C  C499  1  0.505800  0.566700  0.026700  1
  C  C500  1  0.494200  0.433300  0.973300  1
  C  C501  1  0.527100  0.952900  0.579300  1
  C  C502  1  0.472900  0.047100  0.420700  1
  C  C503  1  0.416900  0.438200  0.285500  1
  C  C504  1  0.583100  0.561800  0.714500  1
  C  C505  1  0.977700  0.668300  0.371200  1
  C  C506  1  0.022300  0.331700  0.628800  1
  C  C507  1  0.910600  0.903600  0.339000  1
  C  C508  1  0.089400  0.096400  0.661000  1
  C  C509  1  0.239200  0.450500  0.105600  1
  C  C510  1  0.760800  0.549500  0.894400  1
  C  C511  1  0.247900  0.285700  0.584800  1
  C  C512  1  0.752100  0.714300  0.415200  1
  C  C513  1  0.845300  0.191700  0.452300  1
  C  C514  1  0.154700  0.808300  0.547700  1
  C  C515  1  0.482700  0.192500  0.471400  1
  C  C516  1  0.517300  0.807500  0.528600  1
  C  C517  1  0.257000  0.352200  0.738900  1
  C  C518  1  0.743000  0.647800  0.261100  1
  C  C519  1  0.129700  0.767200  0.319900  1
  C  C520  1  0.870300  0.232800  0.680100  1
  C  C521  1  0.453100  0.425000  0.485700  1
  C  C522  1  0.546900  0.575000  0.514300  1
  C  C523  1  0.339500  0.624200  0.294200  1
  C  C524  1  0.660500  0.375800  0.705800  1
  C  C525  1  0.548300  0.613000  0.157600  1
  C  C526  1  0.451700  0.387000  0.842400  1
  C  C527  1  0.308500  0.559700  0.556100  1
  C  C528  1  0.691500  0.440300  0.443900  1
  C  C529  1  0.848500  0.922300  0.376500  1
  C  C530  1  0.151500  0.077700  0.623500  1
  C  C531  1  0.216400  0.363500  0.499300  1
  C  C532  1  0.783600  0.636500  0.500700  1
  C  C533  1  0.405800  0.202300  0.851000  1
  C  C534  1  0.594200  0.797700  0.149000  1
  C  C535  1  0.796800  0.917000  0.630900  1
  C  C536  1  0.203200  0.083000  0.369100  1
  C  C537  1  0.412800  0.219300  0.502000  1
  C  C538  1  0.587200  0.780700  0.498000  1
  C  C539  1  0.709200  0.307900  0.341700  1
  C  C540  1  0.290800  0.692100  0.658300  1
  C  C541  1  0.874200  0.164600  0.409500  1
  C  C542  1  0.125800  0.835400  0.590500  1
  C  C543  1  0.935200  0.180800  0.365200  1
  C  C544  1  0.064800  0.819200  0.634800  1
  C  C545  1  0.184800  0.404200  0.438600  1
  C  C546  1  0.815200  0.595800  0.561400  1
  C  C547  1  0.693800  0.915100  0.482300  1
  C  C548  1  0.306200  0.084900  0.517700  1
  C  C549  1  0.722300  0.950900  0.642700  1
  C  C550  1  0.277700  0.049100  0.357300  1
  C  C551  1  0.882100  0.925800  0.543000  1
  C  C552  1  0.117900  0.074200  0.457000  1
  C  C553  1  0.349100  0.544600  0.604000  1
  C  C554  1  0.650900  0.455400  0.396000  1
  C  C555  1  0.242600  0.735900  0.151900  1
  C  C556  1  0.757400  0.264100  0.848100  1
  C  C557  1  0.281300  0.624800  0.504300  1
  C  C558  1  0.718700  0.375200  0.495700  1
  C  C559  1  0.285100  0.664700  0.014700  1
  C  C560  1  0.714900  0.335300  0.985300  1
  C  C561  1  0.030100  0.270900  0.226800  1
  C  C562  1  0.969900  0.729100  0.773200  1
  C  C563  1  0.759500  0.480600  0.213500  1
  C  C564  1  0.240500  0.519400  0.786500  1
  C  C565  1  0.284000  0.314100  0.798100  1
  C  C566  1  0.716000  0.685900  0.201900  1
  C  C567  1  0.031300  0.848200  0.176700  1
  C  C568  1  0.968700  0.151800  0.823300  1
  C  C569  1  0.266400  0.223600  0.641900  1
  C  C570  1  0.733600  0.776400  0.358100  1
  C  C571  1  0.986800  0.757400  0.060700  1
  C  C572  1  0.013200  0.242600  0.939300  1
  C  C573  1  0.024400  0.945800  0.431500  1
  C  C574  1  0.975600  0.054200  0.568500  1
  C  C575  1  0.160700  0.764800  0.370700  1
  C  C576  1  0.839300  0.235200  0.629300  1
  C  C577  1  0.799300  0.890900  0.406300  1
  C  C578  1  0.200700  0.109100  0.593700  1
  C  C579  1  0.404900  0.429100  0.690200  1
  C  C580  1  0.595100  0.570900  0.309800  1
  C  C581  1  0.789700  0.132400  0.182200  1
  C  C582  1  0.210300  0.867600  0.817800  1
  C  C583  1  0.738600  0.176700  0.523800  1
  C  C584  1  0.261400  0.823300  0.476200  1
  C  C585  1  0.434500  0.979200  0.661000  1
  C  C586  1  0.565500  0.020800  0.339000  1
  C  C587  1  0.769200  0.957400  0.118700  1
  C  C588  1  0.230800  0.042600  0.881300  1
  C  C589  1  0.800800  0.824800  0.128200  1
  C  C590  1  0.199200  0.175200  0.871800  1
  C  C591  1  0.800600  0.903600  0.170300  1
  C  C592  1  0.199400  0.096400  0.829700  1
  C  C593  1  0.821800  0.830400  0.172700  1
  C  C594  1  0.178200  0.169600  0.827300  1
  C  C595  1  0.864500  0.772100  0.223700  1
  C  C596  1  0.135500  0.227900  0.776300  1
  C  C597  1  0.761800  0.878000  0.078100  1
  C  C598  1  0.238200  0.122000  0.921900  1
  C  C599  1  0.745300  0.948600  0.075400  1
  C  C600  1  0.254700  0.051400  0.924600  1
  C  C601  1  0.076800  0.094700  0.098400  1
  C  C602  1  0.923200  0.905300  0.901600  1
  C  C603  1  0.147900  0.098900  0.076600  1
  C  C604  1  0.852100  0.901100  0.923400  1
  C  C605  1  0.069600  0.023200  0.115200  1
  C  C606  1  0.930400  0.976800  0.884800  1
  C  C607  1  0.151500  0.161600  0.067900  1
  C  C608  1  0.848500  0.838400  0.932100  1
  C  C609  1  0.093900  0.221100  0.079200  1
  C  C610  1  0.906100  0.778900  0.920800  1
  C  C611  1  0.015800  0.154100  0.109300  1
  C  C612  1  0.984200  0.845900  0.890700  1
  C  C613  1  0.026600  0.213700  0.100600  1
  C  C614  1  0.973400  0.786300  0.899400  1
  C  C615  1  0.007100  0.276800  0.467600  1
  C  C616  1  0.992900  0.723200  0.532400  1
  C  C617  1  0.083700  0.254200  0.446600  1
  C  C618  1  0.916300  0.745800  0.553400  1
  C  C619  1  0.094300  0.279400  0.389200  1
  C  C620  1  0.905700  0.720600  0.610800  1
  C  C621  1  0.028300  0.327200  0.352800  1
  C  C622  1  0.971700  0.672800  0.647200  1
  C  C623  1  0.951600  0.349800  0.373800  1
  C  C624  1  0.048400  0.650200  0.626200  1
  C  C625  1  0.941000  0.324600  0.431200  1
  C  C626  1  0.059000  0.675400  0.568800  1
  C  C627  1  0.971400  0.254700  0.515400  1
  C  C628  1  0.028600  0.745300  0.484600  1
  C  C629  1  0.587600  0.192500  0.043200  1
  C  C630  1  0.412400  0.807500  0.956800  1
  C  C631  1  0.624400  0.162900  0.992600  1
  C  C632  1  0.375600  0.837100  0.007400  1
  C  C633  1  0.704300  0.149100  0.980900  1
  C  C634  1  0.295700  0.850900  0.019100  1
  C  C635  1  0.741200  0.116900  0.940100  1
  C  C636  1  0.258800  0.883100  0.059900  1
  C  C637  1  0.698300  0.098400  0.910900  1
  C  C638  1  0.301700  0.901600  0.089100  1
  C  C639  1  0.618400  0.112200  0.922600  1
  C  C640  1  0.381600  0.887800  0.077400  1
  C  C641  1  0.581400  0.144400  0.963400  1
  C  C642  1  0.418600  0.855600  0.036600  1
  C  C643  1  0.337700  0.007000  0.176600  1
  C  C644  1  0.662300  0.993000  0.823400  1
  C  C645  1  0.407000  0.001700  0.137400  1
  C  C646  1  0.593000  0.998300  0.862600  1
  C  C647  1  0.482000  0.976300  0.162000  1
  C  C648  1  0.518000  0.023700  0.838000  1
  C  C649  1  0.543500  0.989000  0.129400  1
  C  C650  1  0.456500  0.011000  0.870600  1
  C  C651  1  0.529900  0.027100  0.072200  1
  C  C652  1  0.470100  0.972900  0.927800  1
  C  C653  1  0.455000  0.052500  0.047600  1
  C  C654  1  0.545000  0.947500  0.952400  1
  C  C655  1  0.393300  0.039800  0.080100  1
  C  C656  1  0.606700  0.960200  0.919900  1
  N  N657  1  0.812700  0.357800  0.213200  1
  N  N658  1  0.187300  0.642200  0.786800  1
  N  N659  1  0.744300  0.001300  0.552800  1
  N  N660  1  0.255700  0.998700  0.447200  1
  N  N661  1  0.790800  0.117700  0.451900  1
  N  N662  1  0.209200  0.882300  0.548100  1
  N  N663  1  0.553800  0.136400  0.495900  1
  N  N664  1  0.446200  0.863600  0.504100  1
  N  N665  1  0.131700  0.713700  0.308700  1
  N  N666  1  0.868300  0.286300  0.691300  1
  N  N667  1  0.611200  0.121700  0.457000  1
  N  N668  1  0.388800  0.878300  0.543000  1
  N  N669  1  0.351300  0.613300  0.155100  1
  N  N670  1  0.648700  0.386700  0.844900  1
  N  N671  1  0.686000  0.010400  0.590100  1
  N  N672  1  0.314000  0.989600  0.409900  1
  N  N673  1  0.374700  0.253200  0.749000  1
  N  N674  1  0.625300  0.746800  0.251000  1
  N  N675  1  0.316300  0.312700  0.711800  1
  N  N676  1  0.683700  0.687300  0.288200  1
  N  N677  1  0.096200  0.734700  0.258600  1
  N  N678  1  0.903800  0.265300  0.741400  1
  N  N679  1  0.199200  0.639000  0.092600  1
  N  N680  1  0.800800  0.361000  0.907400  1
  N  N681  1  0.119500  0.666667  0.103200  1
  N  N682  1  0.880500  0.333333  0.896800  1
  N  N683  1  0.436400  0.579400  0.156900  1
  N  N684  1  0.563600  0.420600  0.843100  1
  N  N685  1  0.972800  0.030000  0.337900  1
  N  N686  1  0.027200  0.970000  0.662100  1
  N  N687  1  0.005300  0.057100  0.287400  1
  N  N688  1  0.994700  0.942900  0.712600  1
  N  N689  1  0.329200  0.446900  0.608900  1
  N  N690  1  0.670800  0.553100  0.391100  1
  N  N691  1  0.295200  0.501400  0.558000  1
  N  N692  1  0.704800  0.498600  0.442000  1
  N  N693  1  0.140200  0.549100  0.476800  1
  N  N694  1  0.859800  0.450900  0.523200  1
  N  N695  1  0.108100  0.593900  0.421700  1
  N  N696  1  0.891900  0.406100  0.578300  1
  N  N697  1  0.319800  0.508800  0.433400  1
  N  N698  1  0.680200  0.491200  0.566600  1
  N  N699  1  0.289200  0.562900  0.382900  1
  N  N700  1  0.710800  0.437100  0.617100  1
  N  N701  1  0.275800  0.340000  0.578700  1
  N  N702  1  0.724200  0.660000  0.421300  1
  N  N703  1  0.254100  0.386800  0.523900  1
  N  N704  1  0.745900  0.613200  0.476100  1
  N  N705  1  0.887900  0.303400  0.215500  1
  N  N706  1  0.112100  0.696600  0.784500  1
  N  N707  1  0.461400  0.061800  0.665700  1
  N  N708  1  0.538600  0.938200  0.334300  1
  N  N709  1  0.503900  0.043200  0.620400  1
  N  N710  1  0.496100  0.956800  0.379600  1
  N  N711  1  0.766400  0.990400  0.426500  1
  N  N712  1  0.233600  0.009600  0.573500  1
  N  N713  1  0.823000  0.987200  0.389600  1
  N  N714  1  0.177000  0.012800  0.610400  1
  N  N715  1  0.842700  0.120200  0.408600  1
  N  N716  1  0.157300  0.879800  0.591400  1
  N  N717  1  0.352300  0.473000  0.130300  1
  N  N718  1  0.647700  0.527000  0.869700  1
  N  N719  1  0.434400  0.440000  0.137900  1
  N  N720  1  0.565600  0.560000  0.862100  1
  N  N721  1  0.625700  0.381200  0.254000  1
  N  N722  1  0.374300  0.618800  0.746000  1
  N  N723  1  0.544700  0.416200  0.240100  1
  N  N724  1  0.455300  0.583800  0.759900  1
  N  N725  1  0.671100  0.424100  0.124500  1
  N  N726  1  0.328900  0.575900  0.875500  1
  N  N727  1  0.591100  0.471400  0.110200  1
  N  N728  1  0.408900  0.528600  0.889800  1
  Cl  Cl729  1  0.576100  0.236700  0.737240  1
  Cl  Cl730  1  0.423900  0.763300  0.262760  1
  Cl  Cl731  1  0.623300  0.283000  0.623080  1
  Cl  Cl732  1  0.376700  0.717000  0.376920  1
  Cl  Cl733  1  0.785800  0.183800  0.109900  1
  Cl  Cl734  1  0.214200  0.816200  0.890100  1
  Cl  Cl735  1  0.175300  0.407600  0.288100  1
  Cl  Cl736  1  0.824700  0.592400  0.711900  1
  Cl  Cl737  1  0.867100  0.044500  0.193300  1
  Cl  Cl738  1  0.132900  0.955500  0.806700  1
  Cl  Cl739  1  0.695900  0.123400  0.196400  1
  Cl  Cl740  1  0.304100  0.876600  0.803600  1
  Cl  Cl741  1  0.688100  0.130200  0.688200  1
  Cl  Cl742  1  0.311900  0.869800  0.311800  1
  Cl  Cl743  1  0.027500  0.516500  0.309300  1
  Cl  Cl744  1  0.972500  0.483500  0.690700  1
  Cl  Cl745  1  0.061600  0.510700  0.196800  1
  Cl  Cl746  1  0.938400  0.489300  0.803200  1
  O  O747  1  0.225400  0.533300  0.213700  1
  O  O748  1  0.774600  0.466700  0.786300  1
  O  O749  1  0.794200  0.132600  0.284600  1
  O  O750  1  0.205800  0.867400  0.715400  1
  O  O751  1  0.456300  0.283700  0.626900  1
  O  O752  1  0.543700  0.716300  0.373100  1
  O  O753  1  0.174900  0.555300  0.304800  1
  O  O754  1  0.825100  0.444700  0.695200  1
  O  O755  1  0.736500  0.253000  0.208500  1
  O  O756  1  0.263500  0.747000  0.791500  1
  O  O757  1  0.551100  0.171800  0.603600  1
  O  O758  1  0.448900  0.828200  0.396400  1
  O  O759  1  0.487900  0.161400  0.697700  1
  O  O760  1  0.512100  0.838600  0.302300  1
  O  O761  1  0.886800  0.175400  0.214100  1
  O  O762  1  0.113200  0.824600  0.785900  1
  O  O763  1  0.091200  0.637600  0.215300  1
  O  O764  1  0.908800  0.362400  0.784700  1
