# generated using pymatgen
data_H136Pd8C124N44O85
_symmetry_space_group_name_H-M   'P 1'
_cell_length_a   17.54900000
_cell_length_b   20.34400000
_cell_length_c   29.84000000
_cell_angle_alpha   107.27100000
_cell_angle_beta   91.24300000
_cell_angle_gamma   114.43800000
_symmetry_Int_Tables_number   1
_chemical_formula_structural   H136Pd8C124N44O85
_chemical_formula_sum   'H272 Pd16 C248 N88 O170'
_cell_volume   9132.76031987
_cell_formula_units_Z   2
loop_
 _symmetry_equiv_pos_site_id
 _symmetry_equiv_pos_as_xyz
  1  'x, y, z'
loop_
 _atom_site_type_symbol
 _atom_site_label
 _atom_site_symmetry_multiplicity
 _atom_site_fract_x
 _atom_site_fract_y
 _atom_site_fract_z
 _atom_site_occupancy
  H  H1  1  0.152600  0.890700  0.689100  1
  H  H2  1  0.847400  0.109300  0.310900  1
  H  H3  1  0.123400  0.765000  0.675600  1
  H  H4  1  0.876600  0.235000  0.324400  1
  H  H5  1  0.285000  0.831400  0.797500  1
  H  H6  1  0.715000  0.168600  0.202500  1
  H  H7  1  0.315600  0.955100  0.808400  1
  H  H8  1  0.684400  0.044900  0.191600  1
  H  H9  1  0.170400  0.578500  0.778300  1
  H  H10  1  0.829600  0.421500  0.221700  1
  H  H11  1  0.201000  0.704500  0.795500  1
  H  H12  1  0.799000  0.295500  0.204500  1
  H  H13  1  0.166700  0.670300  0.652300  1
  H  H14  1  0.833300  0.329700  0.347700  1
  H  H15  1  0.151800  0.546000  0.637200  1
  H  H16  1  0.848200  0.454000  0.362800  1
  H  H17  1  0.785900  0.833400  0.751800  1.0
  H  H18  1  0.214100  0.166600  0.248200  1.0
  H  H19  1  0.698100  0.813000  0.809200  1.0
  H  H20  1  0.301900  0.187000  0.190800  1.0
  H  H21  1  0.733800  0.916400  0.881600  1.0
  H  H22  1  0.266200  0.083600  0.118400  1.0
  H  H23  1  0.944100  0.037100  0.840900  1.0
  H  H24  1  0.055900  0.962900  0.159100  1.0
  H  H25  1  0.754300  0.019500  0.931300  1.0
  H  H26  1  0.245700  0.980500  0.068700  1.0
  H  H27  1  0.997600  0.096600  0.914700  1.0
  H  H28  1  0.002400  0.903400  0.085300  1.0
  H  H29  1  0.921900  0.209600  0.027400  1.0
  H  H30  1  0.078100  0.790400  0.972600  1.0
  H  H31  1  0.104800  0.207000  0.930700  1.0
  H  H32  1  0.895200  0.793000  0.069300  1.0
  H  H33  1  0.054200  0.265700  0.064400  1.0
  H  H34  1  0.945800  0.734300  0.935600  1.0
  H  H35  1  0.283200  0.379200  0.032400  1.0
  H  H36  1  0.716800  0.620800  0.967600  1.0
  H  H37  1  0.093800  0.393900  0.114300  1.0
  H  H38  1  0.906200  0.606100  0.885700  1.0
  H  H39  1  0.325100  0.398400  0.112800  1.0
  H  H40  1  0.674900  0.601600  0.887200  1.0
  H  H41  1  0.369200  0.486400  0.188000  1.0
  H  H42  1  0.630800  0.513600  0.812000  1.0
  H  H43  1  0.279300  0.534900  0.223900  1.0
  H  H44  1  0.720700  0.465100  0.776100  1.0
  H  H45  1  0.035200  0.342300  0.195000  1.0
  H  H46  1  0.964800  0.657700  0.805000  1.0
  H  H47  1  0.047200  0.322400  0.325200  1.0
  H  H48  1  0.952800  0.677600  0.674800  1.0
  H  H49  1  0.097700  0.456100  0.357100  1.0
  H  H50  1  0.902300  0.543900  0.642900  1.0
  H  H51  1  0.113200  0.528300  0.308700  1.0
  H  H52  1  0.886800  0.471700  0.691300  1.0
  H  H53  1  0.934300  0.783600  0.721700  1.0
  H  H54  1  0.065700  0.216400  0.278300  1.0
  H  H55  1  0.914500  0.221900  0.179200  1.0
  H  H56  1  0.085500  0.778100  0.820800  1.0
  H  H57  1  0.081300  0.973700  0.822300  1.0
  H  H58  1  0.918700  0.026300  0.177700  1.0
  H  H59  1  0.857100  0.160700  0.107000  1.0
  H  H60  1  0.142900  0.839300  0.893000  1.0
  H  H61  1  0.793200  0.968100  0.140100  1.0
  H  H62  1  0.206800  0.031900  0.859900  1.0
  H  H63  1  0.667800  0.966900  0.025300  1.0
  H  H64  1  0.332200  0.033100  0.974700  1.0
  H  H65  1  0.240600  0.151900  0.910200  1.0
  H  H66  1  0.759400  0.848100  0.089800  1.0
  H  H67  1  0.559000  0.861800  0.034200  1.0
  H  H68  1  0.441000  0.138200  0.965800  1.0
  H  H69  1  0.489000  0.731400  0.006200  1.0
  H  H70  1  0.511000  0.268600  0.993800  1.0
  H  H71  1  0.451600  0.340500  0.975100  1.0
  H  H72  1  0.548400  0.659500  0.024900  1.0
  H  H73  1  0.861000  0.970500  0.695300  1.0
  H  H74  1  0.139000  0.029500  0.304700  1.0
  H  H75  1  0.901600  0.038500  0.739500  1.0
  H  H76  1  0.098400  0.961500  0.260500  1.0
  H  H77  1  0.088100  0.991100  0.707700  1.0
  H  H78  1  0.911900  0.008900  0.292300  1.0
  H  H79  1  0.032100  0.910800  0.676900  1.0
  H  H80  1  0.967900  0.089200  0.323100  1.0
  H  H81  1  0.022000  0.090000  0.711600  1.0
  H  H82  1  0.978000  0.910000  0.288400  1.0
  H  H83  1  0.946900  0.061500  0.668300  1.0
  H  H84  1  0.053100  0.938500  0.331700  1.0
  H  H85  1  0.958000  0.943700  0.634100  1.0
  H  H86  1  0.042000  0.056300  0.365900  1.0
  H  H87  1  0.052200  0.012000  0.643600  1.0
  H  H88  1  0.947800  0.988000  0.356400  1.0
  H  H89  1  0.606000  0.095800  0.057600  1.0
  H  H90  1  0.394000  0.904200  0.942400  1.0
  H  H91  1  0.669100  0.175700  0.085300  1.0
  H  H92  1  0.330900  0.824300  0.914700  1.0
  H  H93  1  0.750800  0.201600  0.967700  1.0
  H  H94  1  0.249200  0.798400  0.032300  1.0
  H  H95  1  0.666100  0.133600  0.950600  1.0
  H  H96  1  0.333900  0.866400  0.049400  1.0
  H  H97  1  0.553600  0.128300  0.005100  1.0
  H  H98  1  0.446400  0.871700  0.994900  1.0
  H  H99  1  0.578700  0.202400  0.051600  1.0
  H  H100  1  0.421300  0.797600  0.948400  1.0
  H  H101  1  0.705600  0.265800  0.029700  1.0
  H  H102  1  0.294400  0.734200  0.970300  1.0
  H  H103  1  0.632900  0.233100  0.984500  1.0
  H  H104  1  0.367100  0.766900  0.015500  1.0
  H  H105  1  0.184100  0.361200  0.897600  1.0
  H  H106  1  0.815900  0.638800  0.102400  1.0
  H  H107  1  0.231400  0.420000  0.944800  1.0
  H  H108  1  0.768600  0.580000  0.055200  1.0
  H  H109  1  0.407700  0.376100  0.891500  1.0
  H  H110  1  0.592300  0.623900  0.108500  1.0
  H  H111  1  0.351200  0.298600  0.856900  1.0
  H  H112  1  0.648800  0.701400  0.143100  1.0
  H  H113  1  0.349200  0.472900  0.915300  1.0
  H  H114  1  0.650800  0.527100  0.084700  1.0
  H  H115  1  0.271400  0.463900  0.880600  1.0
  H  H116  1  0.728600  0.536100  0.119400  1.0
  H  H117  1  0.351100  0.405400  0.833400  1.0
  H  H118  1  0.648900  0.594600  0.166600  1.0
  H  H119  1  0.258100  0.339400  0.831200  1.0
  H  H120  1  0.741900  0.660600  0.168800  1.0
  H  H121  1  0.967100  0.513400  0.232000  1.0
  H  H122  1  0.032900  0.486600  0.768000  1.0
  H  H123  1  0.041000  0.586000  0.261400  1.0
  H  H124  1  0.959000  0.414000  0.738600  1.0
  H  H125  1  0.184300  0.604900  0.168800  1.0
  H  H126  1  0.815700  0.395100  0.831200  1.0
  H  H127  1  0.104300  0.550100  0.134200  1.0
  H  H128  1  0.895700  0.449900  0.865800  1.0
  H  H129  1  0.982100  0.624800  0.217200  1.0
  H  H130  1  0.017900  0.375200  0.782800  1.0
  H  H131  1  0.964000  0.550900  0.171900  1.0
  H  H132  1  0.036000  0.449100  0.828100  1.0
  H  H133  1  0.124000  0.675100  0.214700  1.0
  H  H134  1  0.876000  0.324900  0.785300  1.0
  H  H135  1  0.074600  0.652800  0.162600  1.0
  H  H136  1  0.925400  0.347200  0.837400  1.0
  H  H137  1  0.434000  0.649100  0.520400  1.0
  H  H138  1  0.566000  0.350900  0.479600  1.0
  H  H139  1  0.691500  0.741300  0.543600  1.0
  H  H140  1  0.308500  0.258700  0.456400  1.0
  H  H141  1  0.680200  0.691500  0.605500  1.0
  H  H142  1  0.319800  0.308500  0.394500  1.0
  H  H143  1  0.549600  0.616300  0.620600  1.0
  H  H144  1  0.450400  0.383700  0.379400  1.0
  H  H145  1  0.660600  0.723800  0.459800  1.0
  H  H146  1  0.339400  0.276200  0.540200  1.0
  H  H147  1  0.456300  0.752700  0.499800  1.0
  H  H148  1  0.543700  0.247300  0.500200  1.0
  H  H149  1  0.536800  0.787200  0.380700  1.0
  H  H150  1  0.463200  0.212800  0.619300  1.0
  H  H151  1  0.337500  0.731700  0.468200  1.0
  H  H152  1  0.662500  0.268300  0.531800  1.0
  H  H153  1  0.459000  0.847400  0.383900  1.0
  H  H154  1  0.541000  0.152600  0.616100  1.0
  H  H155  1  0.228200  0.824900  0.408500  1.0
  H  H156  1  0.771800  0.175100  0.591500  1.0
  H  H157  1  0.426200  0.868500  0.317900  1.0
  H  H158  1  0.573800  0.131500  0.682100  1.0
  H  H159  1  0.247900  0.915300  0.383700  1.0
  H  H160  1  0.752100  0.084700  0.616300  1.0
  H  H161  1  0.238800  0.977100  0.330600  1.0
  H  H162  1  0.761200  0.022900  0.669400  1.0
  H  H163  1  0.329900  0.987600  0.274900  1.0
  H  H164  1  0.670100  0.012400  0.725100  1.0
  H  H165  1  0.699100  0.902800  0.386000  1.0
  H  H166  1  0.300900  0.097200  0.614000  1.0
  H  H167  1  0.931600  0.058400  0.461800  1.0
  H  H168  1  0.068400  0.941600  0.538200  1.0
  H  H169  1  0.965700  0.956700  0.455800  1.0
  H  H170  1  0.034300  0.043300  0.544200  1.0
  H  H171  1  0.864700  0.830000  0.420300  1.0
  H  H172  1  0.135300  0.170000  0.579700  1.0
  H  H173  1  0.154600  0.883300  0.506200  1.0
  H  H174  1  0.845400  0.116700  0.493800  1.0
  H  H175  1  0.719800  0.006500  0.358100  1.0
  H  H176  1  0.280200  0.993500  0.641900  1.0
  H  H177  1  0.281000  0.796400  0.562500  1.0
  H  H178  1  0.719000  0.203600  0.437500  1.0
  H  H179  1  0.595900  0.986600  0.320700  1.0
  H  H180  1  0.404100  0.013400  0.679300  1.0
  H  H181  1  0.696400  0.218200  0.370500  1.0
  H  H182  1  0.303600  0.781800  0.629500  1.0
  H  H183  1  0.515000  0.097400  0.255300  1.0
  H  H184  1  0.485000  0.902600  0.744700  1.0
  H  H185  1  0.386900  0.716200  0.619300  1.0
  H  H186  1  0.613100  0.283800  0.380700  1.0
  H  H187  1  0.594200  0.219200  0.238400  1.0
  H  H188  1  0.405800  0.780800  0.761600  1.0
  H  H189  1  0.612900  0.343100  0.244400  1.0
  H  H190  1  0.387100  0.656900  0.755600  1.0
  H  H191  1  0.376400  0.571100  0.684700  1.0
  H  H192  1  0.623600  0.428900  0.315300  1.0
  H  H193  1  0.358700  0.785400  0.207300  1.0
  H  H194  1  0.641300  0.214600  0.792700  1.0
  H  H195  1  0.311100  0.825200  0.194400  1.0
  H  H196  1  0.688900  0.174800  0.805600  1.0
  H  H197  1  0.523700  0.947500  0.167200  1.0
  H  H198  1  0.476300  0.052500  0.832800  1.0
  H  H199  1  0.580100  0.931700  0.196300  1.0
  H  H200  1  0.419900  0.068300  0.803700  1.0
  H  H201  1  0.371600  0.837900  0.130300  1.0
  H  H202  1  0.628400  0.162100  0.869700  1.0
  H  H203  1  0.357000  0.753800  0.128600  1.0
  H  H204  1  0.643000  0.246200  0.871400  1.0
  H  H205  1  0.498600  0.805000  0.170000  1.0
  H  H206  1  0.501400  0.195000  0.830000  1.0
  H  H207  1  0.503400  0.829500  0.123300  1.0
  H  H208  1  0.496600  0.170500  0.876700  1.0
  H  H209  1  0.579600  0.610100  0.351400  1.0
  H  H210  1  0.420400  0.389900  0.648600  1.0
  H  H211  1  0.557500  0.633600  0.312000  1.0
  H  H212  1  0.442500  0.366400  0.688000  1.0
  H  H213  1  0.772900  0.770200  0.303500  1.0
  H  H214  1  0.227100  0.229800  0.696500  1.0
  H  H215  1  0.803900  0.730100  0.328500  1.0
  H  H216  1  0.196100  0.269900  0.671500  1.0
  H  H217  1  0.608900  0.550000  0.274200  1.0
  H  H218  1  0.391100  0.450000  0.725800  1.0
  H  H219  1  0.684800  0.585700  0.318300  1.0
  H  H220  1  0.315200  0.414300  0.681700  1.0
  H  H221  1  0.741200  0.637000  0.258700  1.0
  H  H222  1  0.258800  0.363000  0.741300  1.0
  H  H223  1  0.667100  0.662900  0.254900  1.0
  H  H224  1  0.332900  0.337100  0.745100  1.0
  H  H225  1  0.023300  0.716500  0.485700  1.0
  H  H226  1  0.976700  0.283500  0.514300  1.0
  H  H227  1  0.063000  0.699600  0.522700  1.0
  H  H228  1  0.937000  0.300400  0.477300  1.0
  H  H229  1  0.140500  0.607400  0.412500  1.0
  H  H230  1  0.859500  0.392600  0.587500  1.0
  H  H231  1  0.120900  0.650100  0.384600  1.0
  H  H232  1  0.879100  0.349900  0.615400  1.0
  H  H233  1  0.945100  0.590800  0.465400  1.0
  H  H234  1  0.054900  0.409200  0.534600  1.0
  H  H235  1  0.027000  0.578600  0.477800  1.0
  H  H236  1  0.973000  0.421400  0.522200  1.0
  H  H237  1  0.999900  0.542900  0.396900  1.0
  H  H238  1  0.000100  0.457100  0.603100  1.0
  H  H239  1  0.990000  0.618800  0.399800  1.0
  H  H240  1  0.010000  0.381200  0.600200  1.0
  H  H241  1  0.363000  0.504500  0.491500  1.0
  H  H242  1  0.637000  0.495500  0.508500  1.0
  H  H243  1  0.382900  0.456100  0.514300  1.0
  H  H244  1  0.617100  0.543900  0.485700  1.0
  H  H245  1  0.237500  0.476500  0.607600  1.0
  H  H246  1  0.762500  0.523500  0.392400  1.0
  H  H247  1  0.205700  0.499500  0.570900  1.0
  H  H248  1  0.794300  0.500500  0.429100  1.0
  H  H249  1  0.224400  0.439800  0.483700  1.0
  H  H250  1  0.775600  0.560200  0.516300  1.0
  H  H251  1  0.254500  0.373200  0.475500  1.0
  H  H252  1  0.745500  0.626800  0.524500  1.0
  H  H253  1  0.250300  0.378200  0.553600  1.0
  H  H254  1  0.749700  0.621800  0.446400  1.0
  H  H255  1  0.161400  0.372600  0.533300  1.0
  H  H256  1  0.838600  0.627400  0.466700  1.0
  H  H257  1  0.328400  0.063400  0.473100  1.0
  H  H258  1  0.671600  0.936600  0.526900  1.0
  H  H259  1  0.379000  0.006600  0.515000  1.0
  H  H260  1  0.621000  0.993400  0.485000  1.0
  H  H261  1  0.572600  0.038200  0.444900  1.0
  H  H262  1  0.427400  0.961800  0.555100  1.0
  H  H263  1  0.533000  0.102500  0.406700  1.0
  H  H264  1  0.467000  0.897500  0.593300  1.0
  H  H265  1  0.879400  0.824400  0.882000  1.0
  H  H266  1  0.120600  0.175600  0.118000  1.0
  H  H267  1  0.006100  0.932900  0.926100  1.0
  H  H268  1  0.993900  0.067100  0.073900  1.0
  H  H269  1  0.886900  0.971900  0.036100  1.0
  H  H270  1  0.113100  0.028100  0.963900  1.0
  H  H271  1  0.766400  0.872100  0.993100  1.0
  H  H272  1  0.233600  0.127900  0.006900  1.0
  Pd  Pd273  1  0.955540  0.945510  0.743470  1.0
  Pd  Pd274  1  0.044460  0.054490  0.256530  1.0
  Pd  Pd275  1  0.735640  0.123890  0.019740  1.0
  Pd  Pd276  1  0.264360  0.876110  0.980260  1.0
  Pd  Pd277  1  0.282890  0.317210  0.929140  1.0
  Pd  Pd278  1  0.717110  0.682790  0.070860  1.0
  Pd  Pd279  1  0.098130  0.506920  0.204840  1.0
  Pd  Pd280  1  0.901870  0.493080  0.795160  1.0
  Pd  Pd281  1  0.456010  0.928000  0.239430  1.0
  Pd  Pd282  1  0.543990  0.072000  0.760570  1.0
  Pd  Pd283  1  0.684070  0.745860  0.366430  1.0
  Pd  Pd284  1  0.315930  0.254140  0.633570  1.0
  Pd  Pd285  1  0.166200  0.735410  0.469760  1.0
  Pd  Pd286  1  0.833800  0.264590  0.530240  1.0
  Pd  Pd287  1  0.363210  0.556390  0.578790  1.0
  Pd  Pd288  1  0.636790  0.443610  0.421210  1.0
  C  C289  1  0.236700  0.937000  0.749800  1
  C  C290  1  0.763300  0.063000  0.250200  1
  C  C291  1  0.180100  0.878500  0.711000  1
  C  C292  1  0.819900  0.121500  0.289000  1
  C  C293  1  0.162100  0.803800  0.703000  1
  C  C294  1  0.837900  0.196200  0.297000  1
  C  C295  1  0.201500  0.783300  0.735800  1
  C  C296  1  0.798500  0.216700  0.264200  1
  C  C297  1  0.258100  0.842900  0.774900  1
  C  C298  1  0.741900  0.157100  0.225100  1
  C  C299  1  0.275700  0.916000  0.781500  1
  C  C300  1  0.724300  0.084000  0.218500  1
  C  C301  1  0.256800  0.018000  0.756300  1
  C  C302  1  0.743200  0.982000  0.243700  1
  C  C303  1  0.162600  0.551500  0.706400  1
  C  C304  1  0.837400  0.448500  0.293600  1
  C  C305  1  0.173100  0.598600  0.753000  1
  C  C306  1  0.826900  0.401400  0.247000  1
  C  C307  1  0.187300  0.672700  0.763100  1
  C  C308  1  0.812700  0.327300  0.236900  1
  C  C309  1  0.182500  0.705800  0.726700  1
  C  C310  1  0.817500  0.294200  0.273300  1
  C  C311  1  0.169200  0.653100  0.678400  1
  C  C312  1  0.830800  0.346900  0.321600  1
  C  C313  1  0.159900  0.578300  0.669100  1
  C  C314  1  0.840100  0.421700  0.330900  1
  C  C315  1  0.157500  0.473000  0.697600  1
  C  C316  1  0.842500  0.527000  0.302400  1
  C  C317  1  0.801900  0.871800  0.782300  1.0
  C  C318  1  0.198100  0.128200  0.217700  1.0
  C  C319  1  0.747900  0.859700  0.815500  1.0
  C  C320  1  0.252100  0.140300  0.184500  1.0
  C  C321  1  0.771000  0.920500  0.858900  1.0
  C  C322  1  0.229000  0.079500  0.141100  1.0
  C  C323  1  0.844000  0.983700  0.868800  1.0
  C  C324  1  0.156000  0.016300  0.131200  1.0
  C  C325  1  0.893700  0.990700  0.834400  1.0
  C  C326  1  0.106300  0.009300  0.165600  1.0
  C  C327  1  0.811400  0.057300  0.942600  1.0
  C  C328  1  0.188600  0.942700  0.057400  1.0
  C  C329  1  0.871200  0.050600  0.917100  1.0
  C  C330  1  0.128800  0.949400  0.082900  1.0
  C  C331  1  0.955300  0.101700  0.932800  1.0
  C  C332  1  0.044700  0.898300  0.067200  1.0
  C  C333  1  0.977300  0.161900  0.976500  1.0
  C  C334  1  0.022700  0.838100  0.023500  1.0
  C  C335  1  0.910200  0.167400  0.999300  1.0
  C  C336  1  0.089800  0.832600  0.000700  1.0
  C  C337  1  0.123300  0.237800  0.963400  1.0
  C  C338  1  0.876700  0.762200  0.036600  1.0
  C  C339  1  0.065600  0.223700  0.995100  1.0
  C  C340  1  0.934400  0.776300  0.004900  1.0
  C  C341  1  0.092300  0.272700  0.042200  1.0
  C  C342  1  0.907700  0.727300  0.957800  1.0
  C  C343  1  0.174800  0.332300  0.057100  1.0
  C  C344  1  0.825200  0.667700  0.942900  1.0
  C  C345  1  0.227100  0.339100  0.022900  1.0
  C  C346  1  0.772900  0.660900  0.977100  1.0
  C  C347  1  0.150600  0.413500  0.129600  1.0
  C  C348  1  0.849400  0.586500  0.870400  1.0
  C  C349  1  0.206900  0.386600  0.106200  1.0
  C  C350  1  0.793100  0.613400  0.893800  1.0
  C  C351  1  0.286600  0.415400  0.128300  1.0
  C  C352  1  0.713400  0.584600  0.871700  1.0
  C  C353  1  0.313100  0.468000  0.172100  1.0
  C  C354  1  0.686900  0.532000  0.827900  1.0
  C  C355  1  0.259100  0.495200  0.193900  1.0
  C  C356  1  0.740900  0.504800  0.806100  1.0
  C  C357  1  0.046900  0.365500  0.228700  1.0
  C  C358  1  0.953100  0.634500  0.771300  1.0
  C  C359  1  0.033800  0.318900  0.255000  1.0
  C  C360  1  0.966200  0.681100  0.745000  1.0
  C  C361  1  0.053800  0.352400  0.305200  1.0
  C  C362  1  0.946200  0.647600  0.694800  1.0
  C  C363  1  0.083600  0.431300  0.323600  1.0
  C  C364  1  0.916400  0.568700  0.676400  1.0
  C  C365  1  0.093400  0.474500  0.294700  1.0
  C  C366  1  0.906600  0.525500  0.705300  1.0
  C  C367  1  0.974400  0.809400  0.750300  1.0
  C  C368  1  0.025600  0.190600  0.249700  1.0
  C  C369  1  0.001100  0.234100  0.233000  1.0
  C  C370  1  0.998900  0.765900  0.767000  1.0
  C  C371  1  0.935800  0.194200  0.192100  1.0
  C  C372  1  0.064200  0.805800  0.807900  1.0
  C  C373  1  0.903900  0.116700  0.171400  1.0
  C  C374  1  0.096100  0.883300  0.828600  1.0
  C  C375  1  0.060800  0.919800  0.807900  1.0
  C  C376  1  0.939200  0.080200  0.192100  1.0
  C  C377  1  0.821100  0.107900  0.100600  1.0
  C  C378  1  0.178900  0.892100  0.899400  1.0
  C  C379  1  0.835100  0.071800  0.130400  1.0
  C  C380  1  0.164900  0.928200  0.869600  1.0
  C  C381  1  0.784800  0.993700  0.119900  1.0
  C  C382  1  0.215200  0.006300  0.880100  1.0
  C  C383  1  0.721100  0.952500  0.078800  1.0
  C  C384  1  0.278900  0.047500  0.921200  1.0
  C  C385  1  0.710800  0.993800  0.052600  1.0
  C  C386  1  0.289200  0.006200  0.947400  1.0
  C  C387  1  0.297000  0.176500  0.927100  1.0
  C  C388  1  0.703000  0.823500  0.072900  1.0
  C  C389  1  0.668400  0.869500  0.065400  1.0
  C  C390  1  0.331600  0.130500  0.934600  1.0
  C  C391  1  0.585800  0.832500  0.040200  1.0
  C  C392  1  0.414200  0.167500  0.959800  1.0
  C  C393  1  0.544300  0.756200  0.024500  1.0
  C  C394  1  0.455700  0.243800  0.975500  1.0
  C  C395  1  0.419400  0.286400  0.965500  1.0
  C  C396  1  0.580600  0.713600  0.034500  1.0
  C  C397  1  0.973700  0.044500  0.689200  1.0
  C  C398  1  0.026300  0.955500  0.310800  1.0
  C  C399  1  0.004700  0.986400  0.659100  1.0
  C  C400  1  0.995300  0.013600  0.340900  1.0
  C  C401  1  0.601500  0.171300  0.029100  1.0
  C  C402  1  0.398500  0.828700  0.970900  1.0
  C  C403  1  0.662200  0.218500  0.005700  1.0
  C  C404  1  0.337800  0.781500  0.994300  1.0
  C  C405  1  0.296000  0.435600  0.893100  1.0
  C  C406  1  0.704000  0.564400  0.106900  1.0
  C  C407  1  0.312000  0.378700  0.852400  1.0
  C  C408  1  0.688000  0.621300  0.147600  1.0
  C  C409  1  0.006000  0.589200  0.200700  1.0
  C  C410  1  0.994000  0.410800  0.799300  1.0
  C  C411  1  0.085000  0.631700  0.186700  1.0
  C  C412  1  0.915000  0.368300  0.813300  1.0
  C  C413  1  0.485300  0.658000  0.537800  1.0
  C  C414  1  0.514700  0.342000  0.462200  1.0
  C  C415  1  0.560700  0.703500  0.526100  1.0
  C  C416  1  0.439300  0.296500  0.473900  1.0
  C  C417  1  0.637700  0.714000  0.551200  1.0
  C  C418  1  0.362300  0.286000  0.448800  1.0
  C  C419  1  0.630100  0.682500  0.586800  1.0
  C  C420  1  0.369900  0.317500  0.413200  1.0
  C  C421  1  0.552300  0.638300  0.596300  1.0
  C  C422  1  0.447700  0.361700  0.403700  1.0
  C  C423  1  0.614800  0.735400  0.454400  1.0
  C  C424  1  0.385200  0.264600  0.545600  1.0
  C  C425  1  0.559100  0.732600  0.487100  1.0
  C  C426  1  0.440900  0.267400  0.512900  1.0
  C  C427  1  0.494000  0.751800  0.477500  1.0
  C  C428  1  0.506000  0.248200  0.522500  1.0
  C  C429  1  0.481300  0.769600  0.437500  1.0
  C  C430  1  0.518700  0.230400  0.562500  1.0
  C  C431  1  0.541100  0.772300  0.407600  1.0
  C  C432  1  0.458900  0.227700  0.592400  1.0
  C  C433  1  0.339800  0.762000  0.449000  1.0
  C  C434  1  0.660200  0.238000  0.551000  1.0
  C  C435  1  0.412500  0.790100  0.429000  1.0
  C  C436  1  0.587500  0.209900  0.571000  1.0
  C  C437  1  0.411300  0.829300  0.399100  1.0
  C  C438  1  0.588700  0.170700  0.600900  1.0
  C  C439  1  0.343700  0.843500  0.390400  1.0
  C  C440  1  0.656300  0.156500  0.609600  1.0
  C  C441  1  0.275700  0.815300  0.413600  1.0
  C  C442  1  0.724300  0.184700  0.586400  1.0
  C  C443  1  0.388300  0.891500  0.321500  1.0
  C  C444  1  0.611700  0.108500  0.678500  1.0
  C  C445  1  0.340000  0.886300  0.357900  1.0
  C  C446  1  0.660000  0.113700  0.642100  1.0
  C  C447  1  0.283600  0.918600  0.360100  1.0
  C  C448  1  0.716400  0.081400  0.639900  1.0
  C  C449  1  0.278000  0.955600  0.329000  1.0
  C  C450  1  0.722000  0.044400  0.671000  1.0
  C  C451  1  0.330700  0.960300  0.295600  1.0
  C  C452  1  0.669300  0.039700  0.704400  1.0
  C  C453  1  0.753100  0.913600  0.401300  1.0
  C  C454  1  0.246900  0.086400  0.598700  1.0
  C  C455  1  0.812800  0.990700  0.424800  1.0
  C  C456  1  0.187200  0.009300  0.575200  1.0
  C  C457  1  0.891200  0.007000  0.445600  1.0
  C  C458  1  0.108800  0.993000  0.554400  1.0
  C  C459  1  0.910400  0.946200  0.442600  1.0
  C  C460  1  0.089600  0.053800  0.557400  1.0
  C  C461  1  0.851300  0.871000  0.421000  1.0
  C  C462  1  0.148700  0.129000  0.579000  1.0
  C  C463  1  0.188400  0.886600  0.532900  1.0
  C  C464  1  0.811600  0.113400  0.467100  1.0
  C  C465  1  0.787500  0.050500  0.425200  1.0
  C  C466  1  0.212500  0.949500  0.574800  1.0
  C  C467  1  0.736800  0.048100  0.387200  1.0
  C  C468  1  0.263200  0.951900  0.612800  1.0
  C  C469  1  0.711000  0.104800  0.391000  1.0
  C  C470  1  0.289000  0.895200  0.609000  1.0
  C  C471  1  0.262800  0.835400  0.566200  1.0
  C  C472  1  0.737200  0.164600  0.433800  1.0
  C  C473  1  0.599300  0.033200  0.318300  1.0
  C  C474  1  0.400700  0.966800  0.681700  1.0
  C  C475  1  0.657800  0.105300  0.352800  1.0
  C  C476  1  0.342200  0.894700  0.647200  1.0
  C  C477  1  0.658300  0.170100  0.348100  1.0
  C  C478  1  0.341700  0.829900  0.651900  1.0
  C  C479  1  0.607700  0.168900  0.313500  1.0
  C  C480  1  0.392300  0.831100  0.686500  1.0
  C  C481  1  0.551400  0.098600  0.279900  1.0
  C  C482  1  0.448600  0.901400  0.720100  1.0
  C  C483  1  0.385100  0.703300  0.647500  1.0
  C  C484  1  0.614900  0.296700  0.352500  1.0
  C  C485  1  0.607100  0.242700  0.311000  1.0
  C  C486  1  0.392900  0.757300  0.689000  1.0
  C  C487  1  0.603000  0.257000  0.268300  1.0
  C  C488  1  0.397000  0.743000  0.731700  1.0
  C  C489  1  0.612300  0.329500  0.272300  1.0
  C  C490  1  0.387700  0.670500  0.727700  1.0
  C  C491  1  0.379400  0.619200  0.685500  1.0
  C  C492  1  0.620600  0.380800  0.314500  1.0
  C  C493  1  0.387000  0.809100  0.147400  1.0
  C  C494  1  0.613000  0.190900  0.852600  1.0
  C  C495  1  0.483700  0.835900  0.154400  1.0
  C  C496  1  0.516300  0.164100  0.845600  1.0
  C  C497  1  0.649100  0.598000  0.299100  1.0
  C  C498  1  0.350900  0.402000  0.700900  1.0
  C  C499  1  0.703700  0.655800  0.277000  1.0
  C  C500  1  0.296300  0.344200  0.723000  1.0
  C  C501  1  0.006400  0.608200  0.464100  1.0
  C  C502  1  0.993600  0.391800  0.535900  1.0
  C  C503  1  0.021800  0.598300  0.415000  1.0
  C  C504  1  0.978200  0.401700  0.585000  1.0
  C  C505  1  0.258100  0.420900  0.498900  1.0
  C  C506  1  0.741900  0.579100  0.501100  1.0
  C  C507  1  0.223500  0.405200  0.541400  1.0
  C  C508  1  0.776500  0.594800  0.458600  1.0
  C  C509  1  0.422500  0.087700  0.434200  1.0
  C  C510  1  0.577500  0.912300  0.565800  1.0
  C  C511  1  0.379700  0.059600  0.467300  1.0
  C  C512  1  0.620300  0.940400  0.532700  1.0
  C  C513  1  0.410500  0.025800  0.492400  1.0
  C  C514  1  0.589500  0.974200  0.507600  1.0
  C  C515  1  0.484200  0.018700  0.486200  1.0
  C  C516  1  0.515800  0.981300  0.513800  1.0
  C  C517  1  0.523600  0.045500  0.452100  1.0
  C  C518  1  0.476400  0.954500  0.547900  1.0
  C  C519  1  0.499100  0.081500  0.427900  1.0
  C  C520  1  0.500900  0.918500  0.572100  1.0
  C  C521  1  0.390700  0.123000  0.403800  1.0
  C  C522  1  0.609300  0.877000  0.596200  1.0
  C  C523  1  0.813300  0.839700  0.936300  1.0
  C  C524  1  0.186700  0.160300  0.063700  1.0
  C  C525  1  0.881700  0.854900  0.913500  1.0
  C  C526  1  0.118300  0.145100  0.086500  1.0
  C  C527  1  0.956500  0.919700  0.940400  1.0
  C  C528  1  0.043500  0.080300  0.059600  1.0
  C  C529  1  0.961500  0.963900  0.985100  1.0
  C  C530  1  0.038500  0.036100  0.014900  1.0
  C  C531  1  0.887000  0.943000  0.004600  1.0
  C  C532  1  0.113000  0.057000  0.995400  1.0
  C  C533  1  0.816800  0.883700  0.979500  1.0
  C  C534  1  0.183200  0.116300  0.020500  1.0
  C  C535  1  0.724400  0.771700  0.908600  1.0
  C  C536  1  0.275600  0.228300  0.091400  1.0
  N  N537  1  0.477400  0.444600  0.584400  1
  N  N538  1  0.522600  0.555400  0.415600  1
  N  N539  1  0.902100  0.321300  0.117100  1
  N  N540  1  0.097900  0.678700  0.882900  1
  N  N541  1  0.784000  0.369100  0.450200  1
  N  N542  1  0.216000  0.630900  0.549800  1
  N  N543  1  0.564400  0.829400  0.300400  1
  N  N544  1  0.435600  0.170600  0.699600  1
  N  N545  1  0.492400  0.014100  0.909400  1
  N  N546  1  0.507600  0.985900  0.090600  1
  N  N547  1  0.023500  0.352300  0.982900  1
  N  N548  1  0.976500  0.647700  0.017100  1
  N  N549  1  0.115700  0.137200  0.835300  1
  N  N550  1  0.884300  0.862800  0.164700  1
  N  N551  1  0.758200  0.087000  0.827600  1
  N  N552  1  0.241800  0.913000  0.172400  1
  N  N553  1  0.296900  0.654300  0.318300  1
  N  N554  1  0.703100  0.345700  0.681700  1
  N  N555  1  0.000700  0.767200  0.602800  1
  N  N556  1  0.999300  0.232800  0.397200  1
  N  N557  1  0.911500  0.133800  0.585700  1
  N  N558  1  0.088500  0.866200  0.414300  1
  N  N559  1  0.545000  0.480700  0.947400  1
  N  N560  1  0.455000  0.519300  0.052600  1
  N  N561  1  0.875500  0.935100  0.791300  1.0
  N  N562  1  0.124500  0.064900  0.208700  1.0
  N  N563  1  0.828100  0.113400  0.982100  1.0
  N  N564  1  0.171900  0.886600  0.017900  1.0
  N  N565  1  0.203800  0.292900  0.977100  1.0
  N  N566  1  0.796200  0.707100  0.022900  1.0
  N  N567  1  0.177200  0.466300  0.173200  1.0
  N  N568  1  0.822800  0.533700  0.826800  1.0
  N  N569  1  0.075400  0.442100  0.246600  1.0
  N  N570  1  0.924600  0.557900  0.753400  1.0
  N  N571  1  0.999200  0.883900  0.768800  1.0
  N  N572  1  0.000800  0.116100  0.231200  1.0
  N  N573  1  0.757200  0.070100  0.062600  1.0
  N  N574  1  0.242800  0.929900  0.937400  1.0
  N  N575  1  0.336300  0.253300  0.941600  1.0
  N  N576  1  0.663700  0.746700  0.058400  1.0
  N  N577  1  0.911500  0.003800  0.715600  1.0
  N  N578  1  0.088500  0.996200  0.284400  1.0
  N  N579  1  0.033200  0.957400  0.693100  1.0
  N  N580  1  0.966800  0.042600  0.306900  1.0
  N  N581  1  0.644900  0.141300  0.055100  1.0
  N  N582  1  0.355100  0.858700  0.944900  1.0
  N  N583  1  0.703400  0.171100  0.977200  1.0
  N  N584  1  0.296600  0.828900  0.022800  1.0
  N  N585  1  0.236600  0.389300  0.916600  1.0
  N  N586  1  0.763400  0.610700  0.083400  1.0
  N  N587  1  0.352200  0.342400  0.878100  1.0
  N  N588  1  0.647800  0.657600  0.121900  1.0
  N  N589  1  0.018000  0.551700  0.231000  1.0
  N  N590  1  0.982000  0.448300  0.769000  1.0
  N  N591  1  0.127000  0.577500  0.165800  1.0
  N  N592  1  0.873000  0.422500  0.834200  1.0
  N  N593  1  0.479000  0.626200  0.570800  1.0
  N  N594  1  0.521000  0.373800  0.429200  1.0
  N  N595  1  0.606300  0.754100  0.415100  1.0
  N  N596  1  0.393700  0.245900  0.584900  1.0
  N  N597  1  0.273100  0.776100  0.442200  1.0
  N  N598  1  0.726900  0.223900  0.557800  1.0
  N  N599  1  0.383700  0.926900  0.291700  1.0
  N  N600  1  0.616300  0.073100  0.708300  1.0
  N  N601  1  0.771800  0.856400  0.400200  1.0
  N  N602  1  0.228200  0.143600  0.599800  1.0
  N  N603  1  0.212800  0.830700  0.529900  1.0
  N  N604  1  0.787200  0.169300  0.470100  1.0
  N  N605  1  0.548900  0.031800  0.282500  1.0
  N  N606  1  0.451100  0.968200  0.717500  1.0
  N  N607  1  0.374900  0.632400  0.643600  1.0
  N  N608  1  0.625100  0.367600  0.356400  1.0
  N  N609  1  0.362800  0.823800  0.195700  1.0
  N  N610  1  0.637200  0.176200  0.804300  1.0
  N  N611  1  0.524500  0.917100  0.184500  1.0
  N  N612  1  0.475500  0.082900  0.815500  1.0
  N  N613  1  0.601600  0.635500  0.330400  1.0
  N  N614  1  0.398400  0.364500  0.669600  1.0
  N  N615  1  0.756100  0.730700  0.315600  1.0
  N  N616  1  0.243900  0.269300  0.684400  1.0
  N  N617  1  0.054500  0.691700  0.490700  1.0
  N  N618  1  0.945500  0.308300  0.509300  1.0
  N  N619  1  0.114500  0.638400  0.412100  1.0
  N  N620  1  0.885500  0.361600  0.587900  1.0
  N  N621  1  0.348100  0.479500  0.513300  1.0
  N  N622  1  0.651900  0.520500  0.486700  1.0
  N  N623  1  0.243100  0.481600  0.578100  1.0
  N  N624  1  0.756900  0.518400  0.421900  1.0
  O  O625  1  0.221400  0.031400  0.725200  1
  O  O626  1  0.778600  0.968600  0.274800  1
  O  O627  1  0.310400  0.070800  0.793700  1
  O  O628  1  0.689600  0.929200  0.206300  1
  O  O629  1  0.144100  0.443500  0.730200  1
  O  O630  1  0.855900  0.556500  0.269800  1
  O  O631  1  0.168200  0.439800  0.655800  1
  O  O632  1  0.831800  0.560200  0.344200  1
  O  O633  1  0.528700  0.436100  0.609100  1
  O  O634  1  0.471300  0.563900  0.390900  1
  O  O635  1  0.502000  0.463600  0.549500  1
  O  O636  1  0.498000  0.536400  0.450500  1
  O  O637  1  0.409000  0.439000  0.597100  1
  O  O638  1  0.591000  0.561000  0.402900  1
  O  O639  1  0.931700  0.392300  0.137600  1
  O  O640  1  0.068300  0.607700  0.862400  1
  O  O641  1  0.824900  0.283800  0.108900  1
  O  O642  1  0.175100  0.716200  0.891100  1
  O  O643  1  0.947700  0.287900  0.114000  1
  O  O644  1  0.052300  0.712100  0.886000  1
  O  O645  1  0.716500  0.337100  0.465100  1
  O  O646  1  0.283500  0.662900  0.534900  1
  O  O647  1  0.820800  0.330200  0.431400  1
  O  O648  1  0.179200  0.669800  0.568600  1
  O  O649  1  0.827300  0.440000  0.463400  1
  O  O650  1  0.172700  0.560000  0.536600  1
  O  O651  1  0.604600  0.790700  0.293800  1
  O  O652  1  0.395400  0.209300  0.706200  1
  O  O653  1  0.521400  0.826300  0.265100  1
  O  O654  1  0.478600  0.173700  0.734900  1
  O  O655  1  0.573700  0.877200  0.339800  1
  O  O656  1  0.426300  0.122800  0.660200  1
  O  O657  1  0.542600  0.076300  0.906400  1
  O  O658  1  0.457400  0.923700  0.093600  1
  O  O659  1  0.428400  0.973100  0.877500  1
  O  O660  1  0.571600  0.026900  0.122500  1
  O  O661  1  0.501200  0.996200  0.944700  1
  O  O662  1  0.498800  0.003800  0.055300  1
  O  O663  1  0.981600  0.346800  0.016200  1
  O  O664  1  0.018400  0.653200  0.983800  1
  O  O665  1  0.099700  0.403300  0.993300  1
  O  O666  1  0.900300  0.596700  0.006700  1
  O  O667  1  0.994200  0.304800  0.941500  1
  O  O668  1  0.005800  0.695200  0.058500  1
  O  O669  1  0.073100  0.105600  0.794100  1
  O  O670  1  0.926900  0.894400  0.205900  1
  O  O671  1  0.176300  0.200100  0.840500  1
  O  O672  1  0.823700  0.799900  0.159500  1
  O  O673  1  0.107200  0.101200  0.863200  1
  O  O674  1  0.892800  0.898800  0.136800  1
  O  O675  1  0.704000  0.053000  0.849400  1
  O  O676  1  0.296000  0.947000  0.150600  1
  O  O677  1  0.778500  0.044300  0.793600  1
  O  O678  1  0.221500  0.955700  0.206400  1
  O  O679  1  0.788000  0.154200  0.827900  1
  O  O680  1  0.212000  0.845800  0.172100  1
  O  O681  1  0.370800  0.659300  0.318200  1
  O  O682  1  0.629200  0.340700  0.681800  1
  O  O683  1  0.261700  0.636100  0.352300  1
  O  O684  1  0.738300  0.363900  0.647700  1
  O  O685  1  0.262700  0.673300  0.291000  1
  O  O686  1  0.737300  0.326700  0.709000  1
  O  O687  1  0.982300  0.789000  0.643600  1
  O  O688  1  0.017700  0.211000  0.356400  1
  O  O689  1  0.955400  0.695400  0.582900  1
  O  O690  1  0.044600  0.304600  0.417100  1
  O  O691  1  0.071700  0.799000  0.595700  1
  O  O692  1  0.928300  0.201000  0.404300  1
  O  O693  1  0.962000  0.125000  0.612500  1
  O  O694  1  0.038000  0.875000  0.387500  1
  O  O695  1  0.921100  0.201000  0.597900  1
  O  O696  1  0.078900  0.799000  0.402100  1
  O  O697  1  0.853100  0.078600  0.558800  1
  O  O698  1  0.146900  0.921400  0.441200  1
  O  O699  1  0.515000  0.493100  0.913500  1
  O  O700  1  0.485000  0.506900  0.086500  1
  O  O701  1  0.589400  0.541100  0.980400  1
  O  O702  1  0.410600  0.458900  0.019600  1
  O  O703  1  0.563000  0.424600  0.934800  1
  O  O704  1  0.437000  0.575400  0.065200  1
  O  O705  1  0.195400  0.156600  0.729800  1
  O  O706  1  0.804600  0.843400  0.270200  1
  O  O707  1  0.239600  0.126700  0.335900  1
  O  O708  1  0.760400  0.873300  0.664100  1
  O  O709  1  0.484100  0.379600  0.088200  1
  O  O710  1  0.515900  0.620400  0.911800  1
  O  O711  1  0.635000  0.777800  0.193700  1
  O  O712  1  0.365000  0.222200  0.806300  1
  O  O713  1  0.032700  0.223100  0.527400  1
  O  O714  1  0.967300  0.776900  0.472600  1
  O  O715  1  0.386900  0.172200  0.298100  1
  O  O716  1  0.613100  0.827800  0.701900  1
  O  O717  1  0.428000  0.313200  0.193600  1
  O  O718  1  0.572000  0.686800  0.806400  1
  O  O719  1  0.603500  0.697700  0.715200  1
  O  O720  1  0.396500  0.302300  0.284800  1
  O  O721  1  0.450400  0.545900  0.812900  1
  O  O722  1  0.549600  0.454100  0.187100  1
  O  O723  1  0.887300  0.327800  0.677100  1
  O  O724  1  0.112700  0.672200  0.322900  1
  O  O725  1  0.622200  0.361800  0.060300  1
  O  O726  1  0.377800  0.638200  0.939700  1
  O  O727  1  0.126200  0.289900  0.619800  1
  O  O728  1  0.873800  0.710100  0.380200  1
  O  O729  1  0.321600  0.679700  0.209800  1
  O  O730  1  0.678400  0.320300  0.790200  1
  O  O731  1  0.179900  0.289800  0.197200  1
  O  O732  1  0.820100  0.710200  0.802800  1
  O  O733  1  0.284500  0.513300  0.801600  1
  O  O734  1  0.715500  0.486700  0.198400  1
  O  O735  1  0.540700  0.343300  0.828700  1
  O  O736  1  0.459300  0.656700  0.171300  1
  O  O737  1  0.084000  0.270800  0.802400  1
  O  O738  1  0.916000  0.729200  0.197600  1
  O  O739  1  0.529700  0.808500  0.849500  1
  O  O740  1  0.470300  0.191500  0.150500  1
  O  O741  1  0.694900  0.448000  0.998800  1
  O  O742  1  0.305100  0.552000  0.001200  1
  O  O743  1  0.049300  0.498000  0.072500  1
  O  O744  1  0.950700  0.502000  0.927500  1
  O  O745  1  0.595100  0.915500  0.797900  1
  O  O746  1  0.404900  0.084500  0.202100  1
  O  O747  1  0.824600  0.771200  0.656100  1
  O  O748  1  0.175400  0.228800  0.343900  1
  O  O749  1  0.361700  0.773000  0.848800  1
  O  O750  1  0.638300  0.227000  0.151200  1
  O  O751  1  0.257400  0.324400  0.303200  1
  O  O752  1  0.742600  0.675600  0.696800  1
  O  O753  1  0.249000  0.615000  0.876400  1
  O  O754  1  0.751000  0.385000  0.123600  1
  O  O755  1  0.615800  0.908900  0.941000  1
  O  O756  1  0.384200  0.091100  0.059000  1
  O  O757  1  0.823700  0.252600  0.923500  1
  O  O758  1  0.176300  0.747400  0.076500  1
  O  O759  1  0.832000  0.465900  0.558400  1
  O  O760  1  0.168000  0.534100  0.441600  1
  O  O761  1  0.087000  0.292500  0.719300  1
  O  O762  1  0.913000  0.707500  0.280700  1
  O  O763  1  0.833400  0.951100  0.562100  1
  O  O764  1  0.166600  0.048900  0.437900  1
  O  O765  1  0.004000  0.227000  0.868800  1
  O  O766  1  0.996000  0.773000  0.131200  1
  O  O767  1  0.899000  0.484900  0.069800  1
  O  O768  1  0.101000  0.515100  0.930200  1
  O  O769  1  0.900000  0.157500  0.759800  1
  O  O770  1  0.100000  0.842500  0.240200  1
  O  O771  1  0.922000  0.213000  0.688300  1
  O  O772  1  0.078000  0.787000  0.311700  1
  O  O773  1  0.822000  0.395000  0.954100  1
  O  O774  1  0.178000  0.605000  0.045900  1
  O  O775  1  0.313000  0.449000  0.307800  1
  O  O776  1  0.687000  0.551000  0.692200  1
  O  O777  1  0.659700  0.440000  0.561800  1
  O  O778  1  0.340300  0.560000  0.438200  1
  O  O779  1  0.990000  0.579100  0.570000  1
  O  O780  1  0.010000  0.420900  0.430000  1
  O  O781  1  0.080000  0.360000  0.879200  1
  O  O782  1  0.920000  0.640000  0.120800  1
  O  O783  1  0.470000  0.608900  0.260100  1
  O  O784  1  0.530000  0.391100  0.739900  1
  O  O785  1  0.859700  0.806700  0.530300  1
  O  O786  1  0.140300  0.193300  0.469700  1
  O  O787  1  0.438100  0.151100  0.377400  1.0
  O  O788  1  0.561900  0.848900  0.622600  1.0
  O  O789  1  0.319200  0.117700  0.409000  1.0
  O  O790  1  0.680800  0.882300  0.591000  1.0
  O  O791  1  0.664500  0.750000  0.931900  1.0
  O  O792  1  0.335500  0.250000  0.068100  1.0
  O  O793  1  0.720400  0.736500  0.863800  1.0
  O  O794  1  0.279600  0.263500  0.136200  1.0
