# generated using pymatgen
data_H81Pd5C106(N14O19)2
_symmetry_space_group_name_H-M   'P 1'
_cell_length_a   18.47700000
_cell_length_b   18.90500000
_cell_length_c   20.01200000
_cell_angle_alpha   66.45200000
_cell_angle_beta   86.41000000
_cell_angle_gamma   61.91000000
_symmetry_Int_Tables_number   1
_chemical_formula_structural   H81Pd5C106(N14O19)2
_chemical_formula_sum   'H162 Pd10 C212 N56 O76'
_cell_volume   5584.91531489
_cell_formula_units_Z   2
loop_
 _symmetry_equiv_pos_site_id
 _symmetry_equiv_pos_as_xyz
  1  'x, y, z'
loop_
 _atom_site_type_symbol
 _atom_site_label
 _atom_site_symmetry_multiplicity
 _atom_site_fract_x
 _atom_site_fract_y
 _atom_site_fract_z
 _atom_site_occupancy
  H  H1  1  0.663300  0.068100  0.820000  1.0
  H  H2  1  0.336700  0.931900  0.180000  1.0
  H  H3  1  0.418900  0.162700  0.846700  1.0
  H  H4  1  0.581100  0.837300  0.153300  1.0
  H  H5  1  0.463300  0.106300  0.974600  1.0
  H  H6  1  0.536700  0.893700  0.025400  1.0
  H  H7  1  0.602100  0.032800  0.019800  1.0
  H  H8  1  0.397900  0.967200  0.980200  1.0
  H  H9  1  0.408600  0.150200  0.742600  1.0
  H  H10  1  0.591400  0.849800  0.257400  1.0
  H  H11  1  0.612800  0.181400  0.706100  1.0
  H  H12  1  0.387200  0.818600  0.293900  1.0
  H  H13  1  0.455800  0.240500  0.538100  1.0
  H  H14  1  0.544200  0.759500  0.461900  1.0
  H  H15  1  0.699400  0.167800  0.637500  1.0
  H  H16  1  0.300600  0.832200  0.362500  1.0
  H  H17  1  0.514500  0.311400  0.466100  1.0
  H  H18  1  0.485500  0.688600  0.533900  1.0
  H  H19  1  0.745100  0.275000  0.439900  1.0
  H  H20  1  0.254900  0.725000  0.560100  1.0
  H  H21  1  0.497200  0.347600  0.348100  1.0
  H  H22  1  0.502800  0.652400  0.651900  1.0
  H  H23  1  0.697100  0.378200  0.336100  1.0
  H  H24  1  0.302900  0.621800  0.663900  1.0
  H  H25  1  0.544000  0.463200  0.154400  1.0
  H  H26  1  0.456000  0.536800  0.845600  1.0
  H  H27  1  0.791500  0.356500  0.256900  1.0
  H  H28  1  0.208500  0.643500  0.743100  1.0
  H  H29  1  0.593700  0.562600  0.104200  1.0
  H  H30  1  0.406300  0.437400  0.895800  1.0
  H  H31  1  0.686200  0.602700  0.031100  1.0
  H  H32  1  0.313800  0.397300  0.968900  1.0
  H  H33  1  0.826000  0.524000  0.077100  1.0
  H  H34  1  0.174000  0.476000  0.922900  1.0
  H  H35  1  0.735600  0.152400  0.878900  1.0
  H  H36  1  0.264400  0.847600  0.121100  1.0
  H  H37  1  0.754000  0.267700  0.004200  1.0
  H  H38  1  0.246000  0.732300  0.995800  1.0
  H  H39  1  0.782000  0.136800  0.109200  1.0
  H  H40  1  0.218000  0.863200  0.890800  1.0
  H  H41  1  0.772800  0.026700  0.093900  1.0
  H  H42  1  0.227200  0.973300  0.906100  1.0
  H  H43  1  0.347100  0.608300  0.097400  1.0
  H  H44  1  0.652900  0.391700  0.902600  1.0
  H  H45  1  0.788500  0.240000  0.798800  1.0
  H  H46  1  0.211500  0.760000  0.201200  1.0
  H  H47  1  0.321600  0.492500  0.305300  1.0
  H  H48  1  0.678400  0.507500  0.694700  1.0
  H  H49  1  0.785600  0.246300  0.693700  1.0
  H  H50  1  0.214400  0.753700  0.306300  1.0
  H  H51  1  0.761000  0.491300  0.615500  1.0
  H  H52  1  0.239000  0.508700  0.384500  1.0
  H  H53  1  0.836500  0.349000  0.493200  1.0
  H  H54  1  0.163500  0.651000  0.506800  1.0
  H  H55  1  0.280800  0.392200  0.493800  1.0
  H  H56  1  0.719200  0.607800  0.506200  1.0
  H  H57  1  0.884300  0.433600  0.428100  1.0
  H  H58  1  0.115700  0.566400  0.571900  1.0
  H  H59  1  0.206200  0.303800  0.684500  1.0
  H  H60  1  0.793800  0.696200  0.315500  1.0
  H  H61  1  0.871800  0.447300  0.308200  1.0
  H  H62  1  0.128200  0.552700  0.691800  1.0
  H  H63  1  0.925000  0.642900  0.273300  1.0
  H  H64  1  0.075000  0.357100  0.726700  1.0
  H  H65  1  0.989800  0.619700  0.173700  1.0
  H  H66  1  0.010200  0.380300  0.826300  1.0
  H  H67  1  0.996000  0.509300  0.145100  1.0
  H  H68  1  0.004000  0.490700  0.854900  1.0
  H  H69  1  0.752800  0.841500  0.989400  1.0
  H  H70  1  0.247200  0.158500  0.010600  1.0
  H  H71  1  0.768300  0.879100  0.912400  1.0
  H  H72  1  0.231700  0.120900  0.087600  1.0
  H  H73  1  0.917000  0.914100  0.996900  1.0
  H  H74  1  0.083000  0.085900  0.003100  1.0
  H  H75  1  0.886500  0.897500  0.069600  1.0
  H  H76  1  0.113500  0.102500  0.930400  1.0
  H  H77  1  0.874400  0.740400  0.001400  1.0
  H  H78  1  0.125600  0.259600  0.998600  1.0
  H  H79  1  0.898100  0.807800  0.939300  1.0
  H  H80  1  0.101900  0.192200  0.060700  1.0
  H  H81  1  0.968800  0.771100  0.037300  1.0
  H  H82  1  0.031200  0.228900  0.962700  1.0
  H  H83  1  0.895500  0.772600  0.084600  1.0
  H  H84  1  0.104500  0.227400  0.915400  1.0
  H  H85  1  0.167300  0.245300  0.581600  1.0
  H  H86  1  0.832700  0.754700  0.418400  1.0
  H  H87  1  0.196700  0.253800  0.509100  1.0
  H  H88  1  0.803300  0.746200  0.490900  1.0
  H  H89  1  0.420300  0.077800  0.583200  1.0
  H  H90  1  0.579700  0.922200  0.416800  1.0
  H  H91  1  0.384900  0.048100  0.651400  1.0
  H  H92  1  0.615100  0.951900  0.348600  1.0
  H  H93  1  0.186600  0.131700  0.543400  1.0
  H  H94  1  0.813400  0.868300  0.456600  1.0
  H  H95  1  0.222800  0.098800  0.627500  1.0
  H  H96  1  0.777200  0.901200  0.372500  1.0
  H  H97  1  0.331700  0.016400  0.577000  1.0
  H  H98  1  0.668300  0.983600  0.423000  1.0
  H  H99  1  0.317500  0.104800  0.507200  1.0
  H  H100  1  0.682500  0.895200  0.492800  1.0
  H  H101  1  0.862900  0.033300  0.592300  1.0
  H  H102  1  0.137100  0.966700  0.407700  1.0
  H  H103  1  0.889100  0.071000  0.520400  1.0
  H  H104  1  0.110900  0.929000  0.479600  1.0
  H  H105  1  0.987500  0.172200  0.584400  1.0
  H  H106  1  0.012500  0.827800  0.415600  1.0
  H  H107  1  0.983600  0.114100  0.659800  1.0
  H  H108  1  0.016400  0.885900  0.340200  1.0
  H  H109  1  0.984100  0.969400  0.657800  1.0
  H  H110  1  0.015900  0.030600  0.342200  1.0
  H  H111  1  0.010000  0.960300  0.582600  1.0
  H  H112  1  0.990000  0.039700  0.417400  1.0
  H  H113  1  0.035600  0.071500  0.544600  1.0
  H  H114  1  0.964400  0.928500  0.455400  1.0
  H  H115  1  0.076600  0.014300  0.629800  1.0
  H  H116  1  0.923400  0.985700  0.370200  1.0
  H  H117  1  0.287600  0.474100  0.108400  1.0
  H  H118  1  0.712400  0.525900  0.891600  1.0
  H  H119  1  0.272800  0.426500  0.183400  1.0
  H  H120  1  0.727200  0.573500  0.816600  1.0
  H  H121  1  0.498900  0.258100  0.238600  1.0
  H  H122  1  0.501100  0.741900  0.761400  1.0
  H  H123  1  0.514000  0.303100  0.163300  1.0
  H  H124  1  0.486000  0.696900  0.836700  1.0
  H  H125  1  0.340600  0.356600  0.086500  1.0
  H  H126  1  0.659400  0.643400  0.913500  1.0
  H  H127  1  0.317300  0.308500  0.163100  1.0
  H  H128  1  0.682700  0.691500  0.836900  1.0
  H  H129  1  0.423900  0.232200  0.201000  1.0
  H  H130  1  0.576100  0.767800  0.799000  1.0
  H  H131  1  0.446100  0.272600  0.121600  1.0
  H  H132  1  0.553900  0.727400  0.878400  1.0
  H  H133  1  0.934100  0.236200  0.218300  1.0
  H  H134  1  0.065900  0.763800  0.781700  1.0
  H  H135  1  0.953300  0.273500  0.142800  1.0
  H  H136  1  0.046700  0.726500  0.857200  1.0
  H  H137  1  0.092200  0.334600  0.205800  1.0
  H  H138  1  0.907800  0.665400  0.794200  1.0
  H  H139  1  0.081800  0.291300  0.283500  1.0
  H  H140  1  0.918200  0.708700  0.716500  1.0
  H  H141  1  0.055100  0.145900  0.263100  1.0
  H  H142  1  0.944900  0.854100  0.736900  1.0
  H  H143  1  0.071700  0.169700  0.180000  1.0
  H  H144  1  0.928300  0.830300  0.820000  1.0
  H  H145  1  0.141200  0.218600  0.190300  1.0
  H  H146  1  0.858800  0.781400  0.809700  1.0
  H  H147  1  0.144200  0.169400  0.277000  1.0
  H  H148  1  0.855800  0.830600  0.723000  1.0
  H  H149  1  0.344900  0.461500  0.616600  1.0
  H  H150  1  0.655100  0.538500  0.383400  1.0
  H  H151  1  0.316100  0.396400  0.731200  1.0
  H  H152  1  0.683900  0.603600  0.268800  1.0
  H  H153  1  0.418600  0.322400  0.837800  1.0
  H  H154  1  0.581400  0.677600  0.162200  1.0
  H  H155  1  0.550100  0.310700  0.821500  1.0
  H  H156  1  0.449900  0.689300  0.178500  1.0
  H  H157  1  0.581400  0.369800  0.702700  1.0
  H  H158  1  0.418600  0.630200  0.297300  1.0
  H  H159  1  0.399500  0.455100  0.515100  1.0
  H  H160  1  0.600500  0.544900  0.484900  1.0
  H  H161  1  0.570400  0.483100  0.601500  1.0
  H  H162  1  0.429600  0.516900  0.398500  1.0
  Pd  Pd163  1  0.765240  0.973510  0.972670  1.0
  Pd  Pd164  1  0.234760  0.026490  0.027330  1.0
  Pd  Pd165  1  0.313980  0.213000  0.597190  1.0
  Pd  Pd166  1  0.686020  0.787000  0.402810  1.0
  Pd  Pd167  1  0.852320  0.174570  0.579790  1.0
  Pd  Pd168  1  0.147680  0.825430  0.420210  1.0
  Pd  Pd169  1  0.409890  0.419060  0.198850  1.0
  Pd  Pd170  1  0.590110  0.580940  0.801150  1.0
  Pd  Pd171  1  0.945940  0.366850  0.205220  1.0
  Pd  Pd172  1  0.054060  0.633150  0.794780  1.0
  C  C173  1  0.128600  0.185000  0.406300  1
  C  C174  1  0.871400  0.815000  0.593700  1
  C  C175  1  0.103700  0.284000  0.389000  1
  C  C176  1  0.896300  0.716000  0.611000  1
  C  C177  1  0.362300  0.992000  0.766100  1
  C  C178  1  0.637700  0.008000  0.233900  1
  C  C179  1  0.386100  0.952800  0.734400  1
  C  C180  1  0.613900  0.047200  0.265600  1
  C  C181  1  0.277200  0.889000  0.739900  1
  C  C182  1  0.722800  0.111000  0.260100  1
  C  C183  1  0.256000  0.937000  0.739000  1
  C  C184  1  0.744000  0.063000  0.261000  1
  C  C185  1  0.247900  0.576100  0.016700  1
  C  C186  1  0.752100  0.423900  0.983300  1
  C  C187  1  0.461000  0.479000  0.024000  1
  C  C188  1  0.539000  0.521000  0.976000  1
  C  C189  1  0.370000  0.638000  0.913000  1
  C  C190  1  0.630000  0.362000  0.087000  1
  C  C191  1  0.263000  0.757000  0.785000  1
  C  C192  1  0.737000  0.243000  0.215000  1
  C  C193  1  0.368600  0.537700  0.999600  1
  C  C194  1  0.631400  0.462300  0.000400  1
  C  C195  1  0.287100  0.583600  0.989900  1
  C  C196  1  0.712900  0.416400  0.010100  1
  C  C197  1  0.164000  0.802000  0.777000  1
  C  C198  1  0.836000  0.198000  0.223000  1
  C  C199  1  0.366500  0.732500  0.858800  1
  C  C200  1  0.633500  0.267500  0.141200  1
  C  C201  1  0.178000  0.752000  0.864000  1
  C  C202  1  0.822000  0.248000  0.136000  1
  C  C203  1  0.271100  0.648000  0.916200  1
  C  C204  1  0.728900  0.352000  0.083800  1
  C  C205  1  0.139400  0.819800  0.732500  1
  C  C206  1  0.860600  0.180200  0.267500  1
  C  C207  1  0.189200  0.896100  0.575400  1
  C  C208  1  0.810800  0.103900  0.424600  1
  C  C209  1  0.259500  0.903100  0.565700  1
  C  C210  1  0.740500  0.096900  0.434300  1
  C  C211  1  0.265000  0.937000  0.498000  1
  C  C212  1  0.735000  0.063000  0.502000  1
  C  C213  1  0.355000  0.884000  0.554000  1
  C  C214  1  0.645000  0.116000  0.446000  1
  C  C215  1  0.171700  0.861500  0.598200  1
  C  C216  1  0.828300  0.138500  0.401800  1
  C  C217  1  0.205900  0.018000  0.420800  1
  C  C218  1  0.794100  0.982000  0.579200  1
  C  C219  1  0.452000  0.826000  0.615000  1
  C  C220  1  0.548000  0.174000  0.385000  1
  C  C221  1  0.463900  0.830700  0.572800  1
  C  C222  1  0.536100  0.169300  0.427200  1
  C  C223  1  0.228200  0.998700  0.327600  1
  C  C224  1  0.771800  0.001300  0.672400  1
  C  C225  1  0.304300  0.867000  0.621500  1
  C  C226  1  0.695700  0.133000  0.378500  1
  C  C227  1  0.132300  0.025900  0.746000  1
  C  C228  1  0.867700  0.974100  0.254000  1
  C  C229  1  0.097700  0.033300  0.756000  1
  C  C230  1  0.902300  0.966700  0.244000  1
  C  C231  1  0.170600  0.410300  0.237900  1
  C  C232  1  0.829400  0.589700  0.762100  1
  C  C233  1  0.138000  0.392000  0.324000  1
  C  C234  1  0.862000  0.608000  0.676000  1
  C  C235  1  0.126000  0.405000  0.410000  1
  C  C236  1  0.874000  0.595000  0.590000  1
  C  C237  1  0.059000  0.409000  0.459300  1
  C  C238  1  0.941000  0.591000  0.540700  1
  C  C239  1  0.029000  0.451000  0.505000  1
  C  C240  1  0.971000  0.549000  0.495000  1
  C  C241  1  0.163000  0.512000  0.241000  1
  C  C242  1  0.837000  0.488000  0.759000  1
  C  C243  1  0.140900  0.596200  0.165200  1
  C  C244  1  0.859100  0.403800  0.834800  1
  C  C245  1  0.152200  0.494800  0.299600  1
  C  C246  1  0.847800  0.505200  0.700400  1
  C  C247  1  0.621700  0.076500  0.850900  1.0
  C  C248  1  0.378300  0.923500  0.149100  1.0
  C  C249  1  0.536800  0.123400  0.819300  1.0
  C  C250  1  0.463200  0.876600  0.180700  1.0
  C  C251  1  0.476100  0.133600  0.865800  1.0
  C  C252  1  0.523900  0.866400  0.134200  1.0
  C  C253  1  0.502800  0.099200  0.941800  1.0
  C  C254  1  0.497200  0.900800  0.058200  1.0
  C  C255  1  0.585600  0.055500  0.968300  1.0
  C  C256  1  0.414400  0.944500  0.031700  1.0
  C  C257  1  0.442800  0.167100  0.709900  1.0
  C  C258  1  0.557200  0.832900  0.290100  1.0
  C  C259  1  0.516900  0.159100  0.738100  1.0
  C  C260  1  0.483100  0.840900  0.261900  1.0
  C  C261  1  0.564400  0.184600  0.688500  1.0
  C  C262  1  0.435600  0.815400  0.311500  1.0
  C  C263  1  0.542900  0.214900  0.613100  1.0
  C  C264  1  0.457100  0.785100  0.386900  1.0
  C  C265  1  0.471100  0.220500  0.589400  1.0
  C  C266  1  0.528900  0.779500  0.410600  1.0
  C  C267  1  0.680000  0.203100  0.586200  1.0
  C  C268  1  0.320000  0.796900  0.413800  1.0
  C  C269  1  0.598400  0.235900  0.561100  1.0
  C  C270  1  0.401600  0.764100  0.438900  1.0
  C  C271  1  0.570900  0.287100  0.485400  1.0
  C  C272  1  0.429100  0.712900  0.514600  1.0
  C  C273  1  0.625100  0.303000  0.437700  1.0
  C  C274  1  0.374900  0.697000  0.562300  1.0
  C  C275  1  0.706500  0.265600  0.470900  1.0
  C  C276  1  0.293500  0.734400  0.529100  1.0
  C  C277  1  0.532900  0.366700  0.319600  1.0
  C  C278  1  0.467100  0.633300  0.680400  1.0
  C  C279  1  0.601400  0.352600  0.356400  1.0
  C  C280  1  0.398600  0.647400  0.643600  1.0
  C  C281  1  0.650100  0.383900  0.312900  1.0
  C  C282  1  0.349900  0.616100  0.687100  1.0
  C  C283  1  0.632800  0.423000  0.236800  1.0
  C  C284  1  0.367200  0.577000  0.763200  1.0
  C  C285  1  0.560000  0.433900  0.206400  1.0
  C  C286  1  0.440000  0.566100  0.793600  1.0
  C  C287  1  0.769600  0.407300  0.211100  1.0
  C  C288  1  0.230400  0.592700  0.788900  1.0
  C  C289  1  0.685500  0.453700  0.189100  1.0
  C  C290  1  0.314500  0.546300  0.810900  1.0
  C  C291  1  0.651900  0.529100  0.120800  1.0
  C  C292  1  0.348100  0.470900  0.879200  1.0
  C  C293  1  0.706600  0.553500  0.077900  1.0
  C  C294  1  0.293400  0.446500  0.922100  1.0
  C  C295  1  0.789800  0.505200  0.104900  1.0
  C  C296  1  0.210200  0.494800  0.895100  1.0
  C  C297  1  0.743300  0.150700  0.926200  1.0
  C  C298  1  0.256700  0.849300  0.073800  1.0
  C  C299  1  0.739200  0.224800  0.929300  1.0
  C  C300  1  0.260800  0.775200  0.070700  1.0
  C  C301  1  0.754300  0.219700  0.999100  1.0
  C  C302  1  0.245700  0.780300  0.000900  1.0
  C  C303  1  0.769800  0.142900  0.061200  1.0
  C  C304  1  0.230200  0.857100  0.938800  1.0
  C  C305  1  0.767200  0.076600  0.051400  1.0
  C  C306  1  0.232800  0.923400  0.948600  1.0
  C  C307  1  0.324500  0.613100  0.140300  1.0
  C  C308  1  0.675500  0.386900  0.859700  1.0
  C  C309  1  0.724000  0.302900  0.862200  1.0
  C  C310  1  0.276000  0.697100  0.137800  1.0
  C  C311  1  0.755100  0.296600  0.798700  1.0
  C  C312  1  0.244900  0.703400  0.201300  1.0
  C  C313  1  0.738100  0.372100  0.734700  1.0
  C  C314  1  0.261900  0.627900  0.265300  1.0
  C  C315  1  0.310300  0.544800  0.262800  1.0
  C  C316  1  0.689700  0.455200  0.737200  1.0
  C  C317  1  0.788300  0.294500  0.655300  1.0
  C  C318  1  0.211700  0.705500  0.344700  1.0
  C  C319  1  0.766500  0.369900  0.665100  1.0
  C  C320  1  0.233500  0.630100  0.334900  1.0
  C  C321  1  0.772800  0.440200  0.608600  1.0
  C  C322  1  0.227200  0.559800  0.391400  1.0
  C  C323  1  0.796700  0.434500  0.542000  1.0
  C  C324  1  0.203300  0.565500  0.458000  1.0
  C  C325  1  0.818200  0.355000  0.537000  1.0
  C  C326  1  0.181800  0.645000  0.463000  1.0
  C  C327  1  0.247700  0.404800  0.530100  1.0
  C  C328  1  0.752300  0.595200  0.469900  1.0
  C  C329  1  0.800800  0.506100  0.478300  1.0
  C  C330  1  0.199200  0.493900  0.521700  1.0
  C  C331  1  0.848700  0.492200  0.423000  1.0
  C  C332  1  0.151300  0.507800  0.577000  1.0
  C  C333  1  0.844900  0.562100  0.361700  1.0
  C  C334  1  0.155100  0.437900  0.638300  1.0
  C  C335  1  0.203600  0.352800  0.642700  1.0
  C  C336  1  0.796400  0.647200  0.357300  1.0
  C  C337  1  0.896500  0.482200  0.281300  1.0
  C  C338  1  0.103500  0.517800  0.718700  1.0
  C  C339  1  0.890800  0.548900  0.300300  1.0
  C  C340  1  0.109200  0.451100  0.699700  1.0
  C  C341  1  0.926800  0.598700  0.260600  1.0
  C  C342  1  0.073200  0.401300  0.739400  1.0
  C  C343  1  0.965900  0.584500  0.202000  1.0
  C  C344  1  0.034100  0.415500  0.798000  1.0
  C  C345  1  0.969600  0.518500  0.185400  1.0
  C  C346  1  0.030400  0.481500  0.814600  1.0
  C  C347  1  0.869400  0.799700  0.982900  1.0
  C  C348  1  0.130600  0.200300  0.017100  1.0
  C  C349  1  0.908000  0.803200  0.036100  1.0
  C  C350  1  0.092000  0.196800  0.963900  1.0
  C  C351  1  0.227400  0.129100  0.575400  1.0
  C  C352  1  0.772600  0.870900  0.424600  1.0
  C  C353  1  0.315000  0.079500  0.560700  1.0
  C  C354  1  0.685000  0.920500  0.439300  1.0
  C  C355  1  0.981300  0.003200  0.604500  1.0
  C  C356  1  0.018700  0.996800  0.395500  1.0
  C  C357  1  0.023200  0.052400  0.595600  1.0
  C  C358  1  0.976800  0.947600  0.404400  1.0
  C  C359  1  0.350000  0.339200  0.140200  1.0
  C  C360  1  0.650000  0.660800  0.859800  1.0
  C  C361  1  0.421500  0.287000  0.163000  1.0
  C  C362  1  0.578500  0.713000  0.837000  1.0
  C  C363  1  0.052100  0.194500  0.217000  1.0
  C  C364  1  0.947900  0.805500  0.783000  1.0
  C  C365  1  0.106800  0.216400  0.230000  1.0
  C  C366  1  0.893200  0.783600  0.770000  1.0
  C  C367  1  0.463300  0.422300  0.647300  1.0
  C  C368  1  0.536700  0.577700  0.352700  1.0
  C  C369  1  0.387300  0.429400  0.658200  1.0
  C  C370  1  0.612700  0.570600  0.341800  1.0
  C  C371  1  0.369300  0.392300  0.726200  1.0
  C  C372  1  0.630700  0.607700  0.273800  1.0
  C  C373  1  0.430600  0.347200  0.789800  1.0
  C  C374  1  0.569400  0.652800  0.210200  1.0
  C  C375  1  0.508700  0.340300  0.779600  1.0
  C  C376  1  0.491300  0.659700  0.220400  1.0
  C  C377  1  0.527700  0.376000  0.709200  1.0
  C  C378  1  0.472300  0.624000  0.290800  1.0
  C  C379  1  0.482900  0.462800  0.571100  1.0
  C  C380  1  0.517100  0.537200  0.428900  1.0
  C  C381  1  0.440400  0.473200  0.509500  1.0
  C  C382  1  0.559600  0.526800  0.490500  1.0
  C  C383  1  0.541300  0.489900  0.560000  1.0
  C  C384  1  0.458700  0.510100  0.440000  1.0
  N  N385  1  0.915900  0.265300  0.399500  1
  N  N386  1  0.084100  0.734700  0.600500  1
  N  N387  1  0.821100  0.061200  0.779000  1
  N  N388  1  0.178900  0.938800  0.221000  1
  N  N389  1  0.973200  0.734400  0.362300  1
  N  N390  1  0.026800  0.265600  0.637700  1
  N  N391  1  0.644900  0.684200  0.604100  1
  N  N392  1  0.355100  0.315800  0.395900  1
  N  N393  1  0.632400  0.913300  0.822000  1
  N  N394  1  0.367600  0.086700  0.178000  1
  N  N395  1  0.735400  0.732600  0.131900  1
  N  N396  1  0.264600  0.267400  0.868100  1
  N  N397  1  0.930000  0.395000  0.000700  1
  N  N398  1  0.070000  0.605000  0.999300  1
  N  N399  1  0.459700  0.720000  0.000900  1
  N  N400  1  0.540300  0.280000  0.999100  1
  N  N401  1  0.644600  0.043200  0.925200  1.0
  N  N402  1  0.355400  0.956800  0.074800  1.0
  N  N403  1  0.422100  0.199000  0.635700  1.0
  N  N404  1  0.577900  0.801000  0.364300  1.0
  N  N405  1  0.733700  0.217900  0.542800  1.0
  N  N406  1  0.266300  0.782100  0.457200  1.0
  N  N407  1  0.512800  0.404800  0.247700  1.0
  N  N408  1  0.487200  0.595200  0.752300  1.0
  N  N409  1  0.823600  0.430100  0.170900  1.0
  N  N410  1  0.176400  0.569900  0.829100  1.0
  N  N411  1  0.757200  0.078200  0.984800  1.0
  N  N412  1  0.242800  0.921800  0.015200  1.0
  N  N413  1  0.341400  0.538300  0.200000  1.0
  N  N414  1  0.658600  0.461700  0.800000  1.0
  N  N415  1  0.813900  0.287600  0.591300  1.0
  N  N416  1  0.186100  0.712400  0.408700  1.0
  N  N417  1  0.246400  0.339500  0.588700  1.0
  N  N418  1  0.753600  0.660500  0.411300  1.0
  N  N419  1  0.937000  0.467200  0.224600  1.0
  N  N420  1  0.063000  0.532800  0.775400  1.0
  N  N421  1  0.784300  0.864100  0.960900  1.0
  N  N422  1  0.215700  0.135900  0.039100  1.0
  N  N423  1  0.882700  0.895500  0.024800  1.0
  N  N424  1  0.117300  0.104500  0.975200  1.0
  N  N425  1  0.210900  0.219600  0.559200  1.0
  N  N426  1  0.789100  0.780400  0.440800  1.0
  N  N427  1  0.371900  0.088500  0.602900  1.0
  N  N428  1  0.628100  0.911500  0.397100  1.0
  N  N429  1  0.893700  0.060300  0.569500  1.0
  N  N430  1  0.106300  0.939700  0.430500  1.0
  N  N431  1  0.973600  0.128900  0.610300  1.0
  N  N432  1  0.026400  0.871100  0.389700  1.0
  N  N433  1  0.312000  0.424900  0.152500  1.0
  N  N434  1  0.688000  0.575100  0.847500  1.0
  N  N435  1  0.473400  0.302500  0.192300  1.0
  N  N436  1  0.526600  0.697500  0.807700  1.0
  N  N437  1  0.966700  0.258700  0.191800  1.0
  N  N438  1  0.033300  0.741300  0.808200  1.0
  N  N439  1  0.069800  0.301000  0.235700  1.0
  N  N440  1  0.930200  0.699000  0.764300  1.0
  O  O441  1  0.843100  0.323100  0.384500  1
  O  O442  1  0.156900  0.676900  0.615500  1
  O  O443  1  0.946300  0.210300  0.376100  1
  O  O444  1  0.053700  0.789700  0.623900  1
  O  O445  1  0.965000  0.266000  0.441000  1
  O  O446  1  0.035000  0.734000  0.559000  1
  O  O447  1  0.757300  0.129000  0.763100  1
  O  O448  1  0.242700  0.871000  0.236900  1
  O  O449  1  0.834200  0.989800  0.825600  1
  O  O450  1  0.165800  0.010200  0.174400  1
  O  O451  1  0.880600  0.057100  0.743500  1
  O  O452  1  0.119400  0.942900  0.256500  1
  O  O453  1  0.975600  0.733200  0.425400  1
  O  O454  1  0.024400  0.266800  0.574600  1
  O  O455  1  0.916700  0.727500  0.340500  1
  O  O456  1  0.083300  0.272500  0.659500  1
  O  O457  1  0.023200  0.747000  0.324300  1
  O  O458  1  0.976800  0.253000  0.675700  1
  O  O459  1  0.623900  0.640600  0.585400  1
  O  O460  1  0.376100  0.359400  0.414600  1
  O  O461  1  0.649400  0.671600  0.670800  1
  O  O462  1  0.350600  0.328400  0.329200  1
  O  O463  1  0.657800  0.742300  0.558400  1
  O  O464  1  0.342200  0.257700  0.441600  1
  O  O465  1  0.576700  0.954800  0.769100  1
  O  O466  1  0.423300  0.045200  0.230900  1
  O  O467  1  0.703900  0.905400  0.813800  1
  O  O468  1  0.296100  0.094600  0.186200  1
  O  O469  1  0.618900  0.878000  0.887100  1
  O  O470  1  0.381100  0.122000  0.112900  1
  O  O471  1  0.703100  0.811500  0.084600  1
  O  O472  1  0.296900  0.188500  0.915400  1
  O  O473  1  0.775400  0.672500  0.112800  1
  O  O474  1  0.224600  0.327500  0.887200  1
  O  O475  1  0.727500  0.719100  0.195900  1
  O  O476  1  0.272500  0.280900  0.804100  1
  O  O477  1  0.978700  0.419300  0.018100  1
  O  O478  1  0.021300  0.580700  0.981900  1
  O  O479  1  0.920200  0.320500  0.033200  1
  O  O480  1  0.079800  0.679500  0.966800  1
  O  O481  1  0.893500  0.458000  0.929900  1
  O  O482  1  0.106500  0.542000  0.070100  1
  O  O483  1  0.451000  0.652300  0.036300  1
  O  O484  1  0.549000  0.347700  0.963700  1
  O  O485  1  0.425500  0.762100  0.935700  1
  O  O486  1  0.574500  0.237900  0.064300  1
  O  O487  1  0.510000  0.735700  0.019000  1
  O  O488  1  0.490000  0.264300  0.981000  1
  O  O489  1  0.876700  0.611700  0.902600  1
  O  O490  1  0.123300  0.388300  0.097400  1
  O  O491  1  0.292100  0.114300  0.807800  1
  O  O492  1  0.707900  0.885700  0.192200  1
  O  O493  1  0.135600  0.128900  0.814600  1
  O  O494  1  0.864400  0.871100  0.185400  1
  O  O495  1  0.035200  0.849300  0.953900  1
  O  O496  1  0.964800  0.150700  0.046100  1
  O  O497  1  0.452500  0.916300  0.879000  1
  O  O498  1  0.547500  0.083700  0.121000  1
  O  O499  1  0.524700  0.846600  0.688700  1
  O  O500  1  0.475300  0.153400  0.311300  1
  O  O501  1  0.276500  0.210000  0.343100  1
  O  O502  1  0.723500  0.790000  0.656900  1
  O  O503  1  0.248000  0.294200  0.034700  1
  O  O504  1  0.752000  0.705800  0.965300  1
  O  O505  1  0.030200  0.948700  0.835400  1
  O  O506  1  0.969800  0.051300  0.164600  1
  O  O507  1  0.519200  0.046500  0.532500  1
  O  O508  1  0.480800  0.953500  0.467500  1
  O  O509  1  0.019000  0.994000  0.055000  1
  O  O510  1  0.981000  0.006000  0.945000  1
  O  O511  1  0.045600  0.727900  0.193100  1
  O  O512  1  0.954400  0.272100  0.806900  1
  O  O513  1  0.066800  0.860000  0.099300  1
  O  O514  1  0.933200  0.140000  0.900700  1
  O  O515  1  0.345500  0.040100  0.361100  1
  O  O516  1  0.654500  0.959900  0.638900  1
