# generated using pymatgen
data_Cd2B3H61C60N21F25
_symmetry_space_group_name_H-M   'P 1'
_cell_length_a   13.48830000
_cell_length_b   13.98140000
_cell_length_c   16.71710000
_cell_angle_alpha   95.87000000
_cell_angle_beta   106.61300000
_cell_angle_gamma   91.11400000
_symmetry_Int_Tables_number   1
_chemical_formula_structural   Cd2B3H61C60N21F25
_chemical_formula_sum   'Cd4 B6 H122 C120 N42 F50'
_cell_volume   3001.24078568
_cell_formula_units_Z   2
loop_
 _symmetry_equiv_pos_site_id
 _symmetry_equiv_pos_as_xyz
  1  'x, y, z'
loop_
 _atom_site_type_symbol
 _atom_site_label
 _atom_site_symmetry_multiplicity
 _atom_site_fract_x
 _atom_site_fract_y
 _atom_site_fract_z
 _atom_site_occupancy
  Cd  Cd1  1  0.253243  0.789608  0.370374  1.0
  Cd  Cd2  1  0.746757  0.210392  0.629626  1.0
  Cd  Cd3  1  0.365431  0.643391  0.196847  1.0
  Cd  Cd4  1  0.634569  0.356609  0.803153  1.0
  B  B5  1  0.637290  0.926570  0.167480  1
  B  B6  1  0.362710  0.073430  0.832520  1
  B  B7  1  0.844860  0.350080  0.147310  1
  B  B8  1  0.155140  0.649920  0.852690  1
  B  B9  1  0.177950  0.138850  0.361450  1
  B  B10  1  0.822050  0.861150  0.638550  1
  H  H11  1  0.647200  0.237600  0.196100  1
  H  H12  1  0.352800  0.762400  0.803900  1
  H  H13  1  0.614200  0.148600  0.237700  1
  H  H14  1  0.385800  0.851400  0.762300  1
  H  H15  1  0.734200  0.176100  0.251800  1
  H  H16  1  0.265800  0.823900  0.748200  1
  H  H17  1  0.036200  0.697200  0.621900  1
  H  H18  1  0.963800  0.302800  0.378100  1
  H  H19  1  0.114200  0.684100  0.565600  1
  H  H20  1  0.885800  0.315900  0.434400  1
  H  H21  1  0.072900  0.592400  0.598900  1
  H  H22  1  0.927100  0.407600  0.401100  1
  H  H23  1  0.015800  0.040500  0.156000  1
  H  H24  1  0.984200  0.959500  0.844000  1
  H  H25  1  0.938800  0.122600  0.168300  1
  H  H26  1  0.061200  0.877400  0.831700  1
  H  H27  1  0.037100  0.147800  0.137500  1
  H  H28  1  0.962900  0.852200  0.862500  1
  H  H29  1  0.212800  0.133700  0.042700  1
  H  H30  1  0.787200  0.866300  0.957300  1
  H  H31  1  0.262100  0.183700  0.980000  1
  H  H32  1  0.737900  0.816300  0.020000  1
  H  H33  1  0.199600  0.245900  0.033400  1
  H  H34  1  0.800400  0.754100  0.966600  1
  H  H35  1  0.093600  0.571700  0.582500  1
  H  H36  1  0.906400  0.428300  0.417500  1
  H  H37  1  0.067300  0.678200  0.612100  1
  H  H38  1  0.932700  0.321800  0.387900  1
  H  H39  1  0.125900  0.661400  0.541400  1
  H  H40  1  0.874100  0.338600  0.458600  1
  H  H41  1  0.899400  0.068000  0.175200  1
  H  H42  1  0.100600  0.932000  0.824800  1
  H  H43  1  0.955000  0.166000  0.164200  1
  H  H44  1  0.045000  0.834000  0.835800  1
  H  H45  1  0.011900  0.066900  0.161000  1
  H  H46  1  0.988100  0.933100  0.839000  1
  H  H47  1  0.222000  0.227300  0.976700  1
  H  H48  1  0.778000  0.772700  0.023300  1
  H  H49  1  0.177500  0.163400  0.034100  1
  H  H50  1  0.822500  0.836600  0.965900  1
  H  H51  1  0.247600  0.116200  0.979400  1
  H  H52  1  0.752400  0.883800  0.020600  1
  H  H53  1  0.883600  0.618700  0.253100  1.0
  H  H54  1  0.116400  0.381300  0.746900  1.0
  H  H55  1  0.789700  0.749500  0.200000  1.0
  H  H56  1  0.210300  0.250500  0.800000  1.0
  H  H57  1  0.879400  0.894400  0.198800  1.0
  H  H58  1  0.120600  0.105600  0.801200  1.0
  H  H59  1  0.058600  0.905200  0.250800  1.0
  H  H60  1  0.941400  0.094800  0.749200  1.0
  H  H61  1  0.998700  0.483900  0.304400  1.0
  H  H62  1  0.001300  0.516100  0.695600  1.0
  H  H63  1  0.165000  0.417400  0.385700  1.0
  H  H64  1  0.835000  0.582600  0.614300  1.0
  H  H65  1  0.355800  0.601100  0.489800  1.0
  H  H66  1  0.644200  0.398900  0.510200  1.0
  H  H67  1  0.379300  0.577700  0.401400  1.0
  H  H68  1  0.620700  0.422300  0.598600  1.0
  H  H69  1  0.989500  0.491100  0.100800  1.0
  H  H70  1  0.010500  0.508900  0.899200  1.0
  H  H71  1  0.903300  0.620700  0.038400  1.0
  H  H72  1  0.096700  0.379300  0.961600  1.0
  H  H73  1  0.997900  0.762700  0.038300  1.0
  H  H74  1  0.002100  0.237300  0.961700  1.0
  H  H75  1  0.175900  0.771300  0.100400  1.0
  H  H76  1  0.824100  0.228700  0.899600  1.0
  H  H77  1  0.093600  0.353900  0.150600  1.0
  H  H78  1  0.906400  0.646100  0.849400  1.0
  H  H79  1  0.244600  0.284200  0.249800  1.0
  H  H80  1  0.755400  0.715800  0.750200  1.0
  H  H81  1  0.458500  0.474800  0.331900  1.0
  H  H82  1  0.541500  0.525200  0.668100  1.0
  H  H83  1  0.457700  0.362000  0.303000  1.0
  H  H84  1  0.542300  0.638000  0.697000  1.0
  H  H85  1  0.250300  0.992800  0.652700  1.0
  H  H86  1  0.749700  0.007200  0.347300  1.0
  H  H87  1  0.075500  0.974400  0.644900  1.0
  H  H88  1  0.924500  0.025600  0.355100  1.0
  H  H89  1  0.961900  0.882000  0.527400  1.0
  H  H90  1  0.038100  0.118000  0.472600  1.0
  H  H91  1  0.027900  0.815900  0.421500  1.0
  H  H92  1  0.972100  0.184100  0.578500  1.0
  H  H93  1  0.433700  0.998100  0.658900  1.0
  H  H94  1  0.566300  0.001900  0.341100  1.0
  H  H95  1  0.588800  0.952000  0.611900  1.0
  H  H96  1  0.411200  0.048000  0.388100  1.0
  H  H97  1  0.610200  0.863200  0.470100  1.0
  H  H98  1  0.389800  0.136800  0.529900  1.0
  H  H99  1  0.506100  0.817600  0.402700  1.0
  H  H100  1  0.493900  0.182400  0.597300  1.0
  H  H101  1  0.547200  0.366800  0.067600  1.0
  H  H102  1  0.452800  0.633200  0.932400  1.0
  H  H103  1  0.417400  0.319900  0.942000  1.0
  H  H104  1  0.582600  0.680100  0.058000  1.0
  H  H105  1  0.266600  0.406500  0.908200  1.0
  H  H106  1  0.733400  0.593500  0.091800  1.0
  H  H107  1  0.248800  0.535400  0.001900  1.0
  H  H108  1  0.751200  0.464600  0.998100  1.0
  H  H109  1  0.681600  0.431700  0.194400  1.0
  H  H110  1  0.318400  0.568300  0.805600  1.0
  H  H111  1  0.762600  0.546600  0.321900  1.0
  H  H112  1  0.237400  0.453400  0.678100  1.0
  H  H113  1  0.584100  0.739700  0.337800  1.0
  H  H114  1  0.415900  0.260300  0.662200  1.0
  H  H115  1  0.703900  0.719800  0.375500  1.0
  H  H116  1  0.296100  0.280200  0.624500  1.0
  H  H117  1  0.535200  0.742800  0.599200  1.0
  H  H118  1  0.464800  0.257200  0.400800  1.0
  H  H119  1  0.337200  0.474800  0.571200  1.0
  H  H120  1  0.662800  0.525200  0.428800  1.0
  H  H121  1  0.338800  0.080000  0.215400  1.0
  H  H122  1  0.661200  0.920000  0.784600  1.0
  H  H123  1  0.285000  0.006100  0.134100  1.0
  H  H124  1  0.715000  0.993900  0.865900  1.0
  H  H125  1  0.402600  0.994400  0.186800  1.0
  H  H126  1  0.597400  0.005600  0.813200  1.0
  H  H127  1  0.321800  0.859100  0.951200  1.0
  H  H128  1  0.678200  0.140900  0.048800  1.0
  H  H129  1  0.442900  0.842800  0.968800  1.0
  H  H130  1  0.557100  0.157200  0.031200  1.0
  H  H131  1  0.405200  0.934300  0.015800  1.0
  H  H132  1  0.594800  0.065700  0.984200  1.0
  C  C133  1  0.667300  0.265600  0.319700  1
  C  C134  1  0.332700  0.734400  0.680300  1
  C  C135  1  0.665600  0.201800  0.245300  1
  C  C136  1  0.334400  0.798200  0.754700  1
  C  C137  1  0.966500  0.641000  0.502400  1
  C  C138  1  0.033500  0.359000  0.497600  1
  C  C139  1  0.054800  0.654800  0.578500  1
  C  C140  1  0.945200  0.345200  0.421500  1
  C  C141  1  0.920300  0.074500  0.046000  1
  C  C142  1  0.079700  0.925500  0.954000  1
  C  C143  1  0.983300  0.098300  0.134400  1
  C  C144  1  0.016700  0.901700  0.865600  1
  C  C145  1  0.343200  0.216300  0.102500  1
  C  C146  1  0.656800  0.783700  0.897500  1
  C  C147  1  0.246300  0.192900  0.033900  1
  C  C148  1  0.753700  0.807100  0.966100  1
  C  C149  1  0.975000  0.623700  0.500100  1
  C  C150  1  0.025000  0.376300  0.499900  1
  C  C151  1  0.073300  0.634600  0.564200  1
  C  C152  1  0.926700  0.365400  0.435800  1
  C  C153  1  0.898400  0.080600  0.058200  1
  C  C154  1  0.101600  0.919400  0.941800  1
  C  C155  1  0.944800  0.096600  0.146500  1
  C  C156  1  0.055200  0.903400  0.853500  1
  C  C157  1  0.327400  0.200800  0.081300  1
  C  C158  1  0.672600  0.799200  0.918700  1
  C  C159  1  0.236400  0.174900  0.012500  1
  C  C160  1  0.763600  0.825100  0.987500  1
  C  C161  1  0.025500  0.690200  0.285360  1.0
  C  C162  1  0.974500  0.309800  0.714640  1.0
  C  C163  1  0.918400  0.678500  0.253200  1.0
  C  C164  1  0.081600  0.321500  0.746800  1.0
  C  C165  1  0.863100  0.755400  0.221200  1.0
  C  C166  1  0.136900  0.244600  0.778800  1.0
  C  C167  1  0.915800  0.840700  0.220500  1.0
  C  C168  1  0.084200  0.159300  0.779500  1.0
  C  C169  1  0.022400  0.846600  0.251900  1.0
  C  C170  1  0.977600  0.153400  0.748100  1.0
  C  C171  1  0.088800  0.614500  0.325000  1.0
  C  C172  1  0.911200  0.385500  0.675000  1.0
  C  C173  1  0.064100  0.517600  0.328000  1.0
  C  C174  1  0.935900  0.482400  0.672000  1.0
  C  C175  1  0.155400  0.481700  0.372700  1.0
  C  C176  1  0.844600  0.518300  0.627300  1.0
  C  C177  1  0.339600  0.555200  0.438100  1.0
  C  C178  1  0.660400  0.444800  0.561900  1.0
  C  C179  1  0.133100  0.559500  0.137390  1.0
  C  C180  1  0.866900  0.440500  0.862610  1.0
  C  C181  1  0.026800  0.549400  0.100600  1.0
  C  C182  1  0.973200  0.450600  0.899400  1.0
  C  C183  1  0.976100  0.625900  0.063600  1.0
  C  C184  1  0.023900  0.374100  0.936400  1.0
  C  C185  1  0.031500  0.709400  0.063300  1.0
  C  C186  1  0.968500  0.290600  0.936700  1.0
  C  C187  1  0.137100  0.713800  0.100500  1.0
  C  C188  1  0.862900  0.286200  0.899500  1.0
  C  C189  1  0.190400  0.481800  0.180550  1.0
  C  C190  1  0.809600  0.518200  0.819450  1.0
  C  C191  1  0.158300  0.385800  0.180900  1.0
  C  C192  1  0.841700  0.614200  0.819100  1.0
  C  C193  1  0.241300  0.348100  0.234900  1.0
  C  C194  1  0.758700  0.651900  0.765100  1.0
  C  C195  1  0.418700  0.412700  0.324620  1.0
  C  C196  1  0.581300  0.587300  0.675380  1.0
  C  C197  1  0.238900  0.910100  0.542200  1.0
  C  C198  1  0.761100  0.089900  0.457800  1.0
  C  C199  1  0.203600  0.955200  0.606100  1.0
  C  C200  1  0.796400  0.044800  0.393900  1.0
  C  C201  1  0.100500  0.944900  0.601200  1.0
  C  C202  1  0.899500  0.055100  0.398800  1.0
  C  C203  1  0.033400  0.891100  0.532000  1.0
  C  C204  1  0.966600  0.108900  0.468000  1.0
  C  C205  1  0.074000  0.851200  0.469900  1.0
  C  C206  1  0.926000  0.148800  0.530100  1.0
  C  C207  1  0.349200  0.911900  0.547400  1.0
  C  C208  1  0.650800  0.088100  0.452600  1.0
  C  C209  1  0.434400  0.958000  0.609600  1.0
  C  C210  1  0.565600  0.042000  0.390400  1.0
  C  C211  1  0.518600  0.932500  0.583500  1.0
  C  C212  1  0.481400  0.067500  0.416500  1.0
  C  C213  1  0.545400  0.824400  0.463100  1.0
  C  C214  1  0.454600  0.175600  0.536900  1.0
  C  C215  1  0.470000  0.478600  0.106300  1.0
  C  C216  1  0.530000  0.521400  0.893700  1.0
  C  C217  1  0.485300  0.400500  0.053100  1.0
  C  C218  1  0.514700  0.599500  0.946900  1.0
  C  C219  1  0.408900  0.373200  0.979100  1.0
  C  C220  1  0.591100  0.626800  0.020900  1.0
  C  C221  1  0.319800  0.423900  0.959200  1.0
  C  C222  1  0.680200  0.576100  0.040800  1.0
  C  C223  1  0.310000  0.500500  0.015400  1.0
  C  C224  1  0.690000  0.499500  0.984600  1.0
  C  C225  1  0.550100  0.514500  0.184400  1.0
  C  C226  1  0.449900  0.485500  0.815600  1.0
  C  C227  1  0.650500  0.484600  0.216400  1.0
  C  C228  1  0.349500  0.515400  0.783600  1.0
  C  C229  1  0.694100  0.547300  0.285800  1.0
  C  C230  1  0.305900  0.452700  0.714200  1.0
  C  C231  1  0.632800  0.690200  0.360000  1.0
  C  C232  1  0.367200  0.309800  0.640000  1.0
  C  C233  1  0.572700  0.725300  0.489500  1.0
  C  C234  1  0.427300  0.274700  0.510500  1.0
  C  C235  1  0.562400  0.698700  0.564800  1.0
  C  C236  1  0.437600  0.301300  0.435200  1.0
  C  C237  1  0.409100  0.390800  0.408800  1.0
  C  C238  1  0.590900  0.609200  0.591200  1.0
  C  C239  1  0.372500  0.456600  0.460720  1.0
  C  C240  1  0.627500  0.543400  0.539280  1.0
  C  C241  1  0.362600  0.430000  0.536100  1.0
  C  C242  1  0.637400  0.570000  0.463900  1.0
  C  C243  1  0.611400  0.659800  0.438200  1.0
  C  C244  1  0.388600  0.340200  0.561800  1.0
  C  C245  1  0.299200  0.951000  0.242600  1.0
  C  C246  1  0.700800  0.049000  0.757400  1.0
  C  C247  1  0.334300  0.012900  0.190500  1.0
  C  C248  1  0.665700  0.987100  0.809500  1.0
  C  C249  1  0.386800  0.810600  0.062200  1.0
  C  C250  1  0.613200  0.189400  0.937800  1.0
  C  C251  1  0.389400  0.866200  0.994000  1.0
  C  C252  1  0.610600  0.133800  0.006000  1.0
  N  N253  1  0.669400  0.316000  0.377600  1
  N  N254  1  0.330600  0.684000  0.622400  1
  N  N255  1  0.896100  0.631400  0.445700  1
  N  N256  1  0.103900  0.368600  0.554300  1
  N  N257  1  0.881700  0.058600  0.976700  1
  N  N258  1  0.118300  0.941400  0.023300  1
  N  N259  1  0.412600  0.235100  0.156000  1
  N  N260  1  0.587400  0.764900  0.844000  1
  N  N261  1  0.901800  0.608200  0.445600  1
  N  N262  1  0.098200  0.391800  0.554400  1
  N  N263  1  0.855500  0.065200  0.989000  1
  N  N264  1  0.144500  0.934800  0.011000  1
  N  N265  1  0.407500  0.215400  0.131600  1
  N  N266  1  0.592500  0.784600  0.868400  1
  N  N267  1  0.077100  0.773310  0.283920  1.0
  N  N268  1  0.922900  0.226690  0.716080  1.0
  N  N269  1  0.228200  0.554180  0.394450  1.0
  N  N270  1  0.771800  0.445820  0.605550  1.0
  N  N271  1  0.189200  0.636280  0.366070  1.0
  N  N272  1  0.810800  0.363720  0.633930  1.0
  N  N273  1  0.187400  0.640600  0.136730  1.0
  N  N274  1  0.812600  0.359400  0.863270  1.0
  N  N275  1  0.317000  0.417880  0.262930  1.0
  N  N276  1  0.683000  0.582120  0.737070  1.0
  N  N277  1  0.287500  0.501130  0.230860  1.0
  N  N278  1  0.712500  0.498870  0.769140  1.0
  N  N279  1  0.174300  0.859320  0.473750  1.0
  N  N280  1  0.825700  0.140680  0.526250  1.0
  N  N281  1  0.484600  0.875180  0.510900  1.0
  N  N282  1  0.515400  0.124820  0.489100  1.0
  N  N283  1  0.380400  0.860750  0.487850  1.0
  N  N284  1  0.619600  0.139250  0.512150  1.0
  N  N285  1  0.383000  0.527500  0.087730  1.0
  N  N286  1  0.617000  0.472500  0.912270  1.0
  N  N287  1  0.622500  0.610880  0.294300  1.0
  N  N288  1  0.377500  0.389120  0.705700  1.0
  N  N289  1  0.533300  0.591650  0.232290  1.0
  N  N290  1  0.466700  0.408350  0.767710  1.0
  N  N291  1  0.272700  0.903700  0.284300  1.0
  N  N292  1  0.727300  0.096300  0.715700  1.0
  N  N293  1  0.383900  0.767000  0.115500  1.0
  N  N294  1  0.616100  0.233000  0.884500  1.0
  F  F295  1  0.635800  0.847100  0.110800  1
  F  F296  1  0.364200  0.152900  0.889200  1
  F  F297  1  0.551000  0.980400  0.160800  1
  F  F298  1  0.449000  0.019600  0.839200  1
  F  F299  1  0.659400  0.882400  0.240700  1
  F  F300  1  0.340600  0.117600  0.759300  1
  F  F301  1  0.722200  0.985500  0.167700  1
  F  F302  1  0.277800  0.014500  0.832300  1
  F  F303  1  0.916700  0.311300  0.110000  1
  F  F304  1  0.083300  0.688700  0.890000  1
  F  F305  1  0.866100  0.328300  0.229500  1
  F  F306  1  0.133900  0.671700  0.770500  1
  F  F307  1  0.849700  0.451110  0.148200  1
  F  F308  1  0.150300  0.548890  0.851800  1
  F  F309  1  0.745300  0.314900  0.101300  1
  F  F310  1  0.254700  0.685100  0.898700  1
  F  F311  1  0.216800  0.120200  0.445300  1
  F  F312  1  0.783200  0.879800  0.554700  1
  F  F313  1  0.258600  0.143600  0.326100  1
  F  F314  1  0.741400  0.856400  0.673900  1
  F  F315  1  0.102200  0.069800  0.318100  1
  F  F316  1  0.897800  0.930200  0.681900  1
  F  F317  1  0.134000  0.229700  0.362300  1
  F  F318  1  0.866000  0.770300  0.637700  1
  F  F319  1  0.617900  0.856300  0.098300  1
  F  F320  1  0.382100  0.143700  0.901700  1
  F  F321  1  0.558100  0.986400  0.132700  1
  F  F322  1  0.441900  0.013600  0.867300  1
  F  F323  1  0.621200  0.896500  0.240300  1
  F  F324  1  0.378800  0.103500  0.759700  1
  F  F325  1  0.731700  0.978200  0.189400  1
  F  F326  1  0.268300  0.021800  0.810600  1
  F  F327  1  0.903700  0.327500  0.092100  1
  F  F328  1  0.096300  0.672500  0.907900  1
  F  F329  1  0.879500  0.298300  0.216700  1
  F  F330  1  0.120500  0.701700  0.783300  1
  F  F331  1  0.855700  0.447600  0.173800  1
  F  F332  1  0.144300  0.552400  0.826200  1
  F  F333  1  0.741100  0.323000  0.106700  1
  F  F334  1  0.258900  0.677000  0.893300  1
  F  F335  1  0.235900  0.087900  0.424700  1
  F  F336  1  0.764100  0.912100  0.575300  1
  F  F337  1  0.231200  0.143400  0.300800  1
  F  F338  1  0.768800  0.856600  0.699200  1
  F  F339  1  0.084000  0.086700  0.322400  1
  F  F340  1  0.916000  0.913300  0.677600  1
  F  F341  1  0.161200  0.229500  0.392500  1
  F  F342  1  0.838800  0.770500  0.607500  1
  F  F343  1  0.372730  0.722490  0.316140  1.0
  F  F344  1  0.627270  0.277510  0.683860  1.0
