# generated using pymatgen
data_Cd2B3H52C48N12O6F13
_symmetry_space_group_name_H-M   'P 1'
_cell_length_a   13.88730000
_cell_length_b   14.49950000
_cell_length_c   27.17500000
_cell_angle_alpha   90.00000000
_cell_angle_beta   90.00000000
_cell_angle_gamma   99.46800000
_symmetry_Int_Tables_number   1
_chemical_formula_structural   Cd2B3H52C48N12O6F13
_chemical_formula_sum   'Cd8 B12 H208 C192 N48 O24 F52'
_cell_volume   5397.38763572
_cell_formula_units_Z   4
loop_
 _symmetry_equiv_pos_site_id
 _symmetry_equiv_pos_as_xyz
  1  'x, y, z'
loop_
 _atom_site_type_symbol
 _atom_site_label
 _atom_site_symmetry_multiplicity
 _atom_site_fract_x
 _atom_site_fract_y
 _atom_site_fract_z
 _atom_site_occupancy
  Cd  Cd1  1  0.238150  0.524170  0.637920  1.0
  Cd  Cd2  1  0.261850  0.975830  0.137920  1.0
  Cd  Cd3  1  0.761850  0.475830  0.362080  1.0
  Cd  Cd4  1  0.738150  0.024170  0.862080  1.0
  Cd  Cd5  1  0.439420  0.756200  0.635160  1.0
  Cd  Cd6  1  0.060580  0.743800  0.135160  1.0
  Cd  Cd7  1  0.560580  0.243800  0.364840  1.0
  Cd  Cd8  1  0.939420  0.256200  0.864840  1.0
  B  B9  1  0.465000  0.518300  0.800300  1
  B  B10  1  0.035000  0.981700  0.300300  1
  B  B11  1  0.535000  0.481700  0.199700  1
  B  B12  1  0.965000  0.018300  0.699700  1
  B  B13  1  0.181200  0.793100  0.805900  1
  B  B14  1  0.318800  0.706900  0.305900  1
  B  B15  1  0.818800  0.206900  0.194100  1
  B  B16  1  0.681200  0.293100  0.694100  1
  B  B17  1  0.692600  0.704900  0.007500  1
  B  B18  1  0.807400  0.795100  0.507500  1
  B  B19  1  0.307400  0.295100  0.992500  1
  B  B20  1  0.192600  0.204900  0.492500  1
  H  H21  1  0.884200  0.534700  0.988900  1
  H  H22  1  0.615800  0.965300  0.488900  1
  H  H23  1  0.115800  0.465300  0.011100  1
  H  H24  1  0.384200  0.034700  0.511100  1
  H  H25  1  0.904400  0.630300  0.019500  1
  H  H26  1  0.595600  0.869700  0.519500  1
  H  H27  1  0.095600  0.369700  0.980500  1
  H  H28  1  0.404400  0.130300  0.480500  1
  H  H29  1  0.992000  0.594000  0.991100  1
  H  H30  1  0.508000  0.906000  0.491100  1
  H  H31  1  0.008000  0.406000  0.008900  1
  H  H32  1  0.492000  0.094000  0.508900  1
  H  H33  1  0.535400  0.425900  0.987500  1
  H  H34  1  0.964600  0.074100  0.487500  1
  H  H35  1  0.464600  0.574100  0.012500  1
  H  H36  1  0.035400  0.925900  0.512500  1
  H  H37  1  0.496300  0.421500  0.043000  1
  H  H38  1  0.003700  0.078500  0.543000  1
  H  H39  1  0.503700  0.578500  0.957000  1
  H  H40  1  0.996300  0.921500  0.457000  1
  H  H41  1  0.540900  0.335600  0.020600  1
  H  H42  1  0.959100  0.164400  0.520600  1
  H  H43  1  0.459100  0.664400  0.979400  1
  H  H44  1  0.040900  0.835600  0.479400  1
  H  H45  1  0.839900  0.562300  0.766500  1
  H  H46  1  0.660100  0.937700  0.266500  1
  H  H47  1  0.160100  0.437700  0.233500  1
  H  H48  1  0.339900  0.062300  0.733500  1
  H  H49  1  0.937300  0.617100  0.741800  1
  H  H50  1  0.562700  0.882900  0.241800  1
  H  H51  1  0.062700  0.382900  0.258200  1
  H  H52  1  0.437300  0.117100  0.758200  1
  H  H53  1  0.931700  0.510300  0.758100  1
  H  H54  1  0.568300  0.989700  0.258100  1
  H  H55  1  0.068300  0.489700  0.241900  1
  H  H56  1  0.431700  0.010300  0.741900  1
  H  H57  1  0.890300  0.468500  0.725200  1
  H  H58  1  0.609700  0.031500  0.225200  1
  H  H59  1  0.109700  0.531500  0.274800  1
  H  H60  1  0.390300  0.968500  0.774800  1
  H  H61  1  0.843800  0.561000  0.734100  1
  H  H62  1  0.656200  0.939000  0.234100  1
  H  H63  1  0.156200  0.439000  0.265900  1
  H  H64  1  0.343800  0.061000  0.765900  1
  H  H65  1  0.943100  0.566500  0.703500  1
  H  H66  1  0.556900  0.933500  0.203500  1
  H  H67  1  0.056900  0.433500  0.296500  1
  H  H68  1  0.443100  0.066500  0.796500  1
  H  H69  1  0.099000  0.499000  0.732000  1.0
  H  H70  1  0.401000  0.001000  0.232000  1.0
  H  H71  1  0.901000  0.501000  0.268000  1.0
  H  H72  1  0.599000  0.999000  0.768000  1.0
  H  H73  1  0.149400  0.558600  0.777400  1.0
  H  H74  1  0.350600  0.941400  0.277400  1.0
  H  H75  1  0.850600  0.441400  0.222600  1.0
  H  H76  1  0.649400  0.058600  0.722600  1.0
  H  H77  1  0.171400  0.455200  0.767600  1.0
  H  H78  1  0.328600  0.044800  0.267600  1.0
  H  H79  1  0.828600  0.544800  0.232400  1.0
  H  H80  1  0.671400  0.955200  0.732400  1.0
  H  H81  1  0.525100  0.727200  0.763900  1.0
  H  H82  1  0.974900  0.772800  0.263900  1.0
  H  H83  1  0.474900  0.272800  0.236100  1.0
  H  H84  1  0.025100  0.227200  0.736100  1.0
  H  H85  1  0.480800  0.817200  0.780800  1.0
  H  H86  1  0.019200  0.682800  0.280800  1.0
  H  H87  1  0.519200  0.182800  0.219200  1.0
  H  H88  1  0.980800  0.317200  0.719200  1.0
  H  H89  1  0.554500  0.824100  0.735200  1.0
  H  H90  1  0.945500  0.675900  0.235200  1.0
  H  H91  1  0.445500  0.175900  0.264800  1.0
  H  H92  1  0.054500  0.324100  0.764800  1.0
  H  H93  1  0.999500  0.706900  0.547800  1.0
  H  H94  1  0.500500  0.793100  0.047800  1.0
  H  H95  1  0.000500  0.293100  0.452200  1.0
  H  H96  1  0.499500  0.206900  0.952200  1.0
  H  H97  1  0.953200  0.796000  0.612900  1.0
  H  H98  1  0.546800  0.704000  0.112900  1.0
  H  H99  1  0.046800  0.204000  0.387100  1.0
  H  H100  1  0.453200  0.296000  0.887100  1.0
  H  H101  1  0.021400  0.779400  0.691900  1.0
  H  H102  1  0.478600  0.720600  0.191900  1.0
  H  H103  1  0.978600  0.220600  0.308100  1.0
  H  H104  1  0.521400  0.279400  0.808100  1.0
  H  H105  1  0.133000  0.679700  0.701400  1.0
  H  H106  1  0.367000  0.820300  0.201400  1.0
  H  H107  1  0.867000  0.320300  0.298600  1.0
  H  H108  1  0.633000  0.179700  0.798600  1.0
  H  H109  1  0.048400  0.602600  0.482700  1.0
  H  H110  1  0.451600  0.897400  0.982700  1.0
  H  H111  1  0.951600  0.397400  0.517300  1.0
  H  H112  1  0.548400  0.102600  0.017300  1.0
  H  H113  1  0.165400  0.510000  0.443800  1.0
  H  H114  1  0.334600  0.990000  0.943800  1.0
  H  H115  1  0.834600  0.490000  0.556200  1.0
  H  H116  1  0.665400  0.010000  0.056200  1.0
  H  H117  1  0.291900  0.398200  0.505100  1.0
  H  H118  1  0.208100  0.101800  0.005100  1.0
  H  H119  1  0.708100  0.601800  0.494900  1.0
  H  H120  1  0.791900  0.898200  0.994900  1.0
  H  H121  1  0.354400  0.477400  0.538400  1.0
  H  H122  1  0.145600  0.022600  0.038400  1.0
  H  H123  1  0.645600  0.522600  0.461600  1.0
  H  H124  1  0.854400  0.977400  0.961600  1.0
  H  H125  1  0.199700  0.941300  0.547600  1.0
  H  H126  1  0.300300  0.558700  0.047600  1.0
  H  H127  1  0.800300  0.058700  0.452400  1.0
  H  H128  1  0.699700  0.441300  0.952400  1.0
  H  H129  1  0.138700  0.011900  0.616200  1.0
  H  H130  1  0.361300  0.488100  0.116200  1.0
  H  H131  1  0.861300  0.988100  0.383800  1.0
  H  H132  1  0.638700  0.511900  0.883800  1.0
  H  H133  1  0.186000  0.971700  0.695300  1.0
  H  H134  1  0.314000  0.528300  0.195300  1.0
  H  H135  1  0.814000  0.028300  0.304700  1.0
  H  H136  1  0.686000  0.471700  0.804700  1.0
  H  H137  1  0.294200  0.868900  0.703700  1.0
  H  H138  1  0.205800  0.631100  0.203700  1.0
  H  H139  1  0.705800  0.131100  0.296300  1.0
  H  H140  1  0.794200  0.368900  0.796300  1.0
  H  H141  1  0.240900  0.835700  0.481600  1.0
  H  H142  1  0.259100  0.664300  0.981600  1.0
  H  H143  1  0.759100  0.164300  0.518400  1.0
  H  H144  1  0.740900  0.335700  0.018400  1.0
  H  H145  1  0.337000  0.722200  0.442900  1.0
  H  H146  1  0.163000  0.777800  0.942900  1.0
  H  H147  1  0.663000  0.277800  0.557100  1.0
  H  H148  1  0.837000  0.222200  0.057100  1.0
  H  H149  1  0.459400  0.606900  0.539100  1.0
  H  H150  1  0.040600  0.893100  0.039100  1.0
  H  H151  1  0.540600  0.393100  0.460900  1.0
  H  H152  1  0.959400  0.106900  0.960900  1.0
  H  H153  1  0.530900  0.682400  0.507500  1.0
  H  H154  1  0.969100  0.817600  0.007500  1.0
  H  H155  1  0.469100  0.317600  0.492500  1.0
  H  H156  1  0.030900  0.182400  0.992500  1.0
  H  H157  1  0.063100  0.173200  0.623400  1.0
  H  H158  1  0.436900  0.326800  0.123400  1.0
  H  H159  1  0.936900  0.826800  0.376600  1.0
  H  H160  1  0.563100  0.673200  0.876600  1.0
  H  H161  1  0.900400  0.197900  0.613300  1.0
  H  H162  1  0.599600  0.302100  0.113300  1.0
  H  H163  1  0.099600  0.802100  0.386700  1.0
  H  H164  1  0.400400  0.697900  0.886700  1.0
  H  H165  1  0.864400  0.350200  0.617000  1.0
  H  H166  1  0.635600  0.149800  0.117000  1.0
  H  H167  1  0.135600  0.649800  0.383000  1.0
  H  H168  1  0.364400  0.850200  0.883000  1.0
  H  H169  1  0.991600  0.473600  0.627000  1.0
  H  H170  1  0.508400  0.026400  0.127000  1.0
  H  H171  1  0.008400  0.526400  0.373000  1.0
  H  H172  1  0.491600  0.973600  0.873000  1.0
  H  H173  1  0.225200  0.158700  0.656900  1.0
  H  H174  1  0.274800  0.341300  0.156900  1.0
  H  H175  1  0.774800  0.841300  0.343100  1.0
  H  H176  1  0.725200  0.658700  0.843100  1.0
  H  H177  1  0.402300  0.216700  0.675300  1.0
  H  H178  1  0.097700  0.283300  0.175300  1.0
  H  H179  1  0.597700  0.783300  0.324700  1.0
  H  H180  1  0.902300  0.716700  0.824700  1.0
  H  H181  1  0.503500  0.382600  0.690300  1.0
  H  H182  1  0.996500  0.117400  0.190300  1.0
  H  H183  1  0.496500  0.617400  0.309700  1.0
  H  H184  1  0.003500  0.882600  0.809700  1.0
  H  H185  1  0.444500  0.467900  0.685300  1.0
  H  H186  1  0.055500  0.032100  0.185300  1.0
  H  H187  1  0.555500  0.532100  0.314700  1.0
  H  H188  1  0.944500  0.967900  0.814700  1.0
  H  H189  1  0.773100  0.989500  0.624500  1.0
  H  H190  1  0.726900  0.510500  0.124500  1.0
  H  H191  1  0.226900  0.010500  0.375500  1.0
  H  H192  1  0.273100  0.489500  0.875500  1.0
  H  H193  1  0.716700  0.130400  0.610200  1.0
  H  H194  1  0.783300  0.369600  0.110200  1.0
  H  H195  1  0.283300  0.869600  0.389800  1.0
  H  H196  1  0.216700  0.630400  0.889800  1.0
  H  H197  1  0.548500  0.130600  0.606400  1.0
  H  H198  1  0.951500  0.369400  0.106400  1.0
  H  H199  1  0.451500  0.869400  0.393600  1.0
  H  H200  1  0.048500  0.630600  0.893600  1.0
  H  H201  1  0.441900  0.991200  0.614400  1.0
  H  H202  1  0.058100  0.508800  0.114400  1.0
  H  H203  1  0.558100  0.008800  0.385600  1.0
  H  H204  1  0.941900  0.491200  0.885600  1.0
  H  H205  1  0.819100  0.847200  0.659400  1.0
  H  H206  1  0.680900  0.652800  0.159400  1.0
  H  H207  1  0.180900  0.152800  0.340600  1.0
  H  H208  1  0.319100  0.347200  0.840600  1.0
  H  H209  1  0.795500  0.676900  0.680600  1.0
  H  H210  1  0.704500  0.823100  0.180600  1.0
  H  H211  1  0.204500  0.323100  0.319400  1.0
  H  H212  1  0.295500  0.176900  0.819400  1.0
  H  H213  1  0.536700  0.583400  0.684300  1.0
  H  H214  1  0.963300  0.916600  0.184300  1.0
  H  H215  1  0.463300  0.416600  0.315700  1.0
  H  H216  1  0.036700  0.083400  0.815700  1.0
  H  H217  1  0.639000  0.548300  0.691600  1.0
  H  H218  1  0.861000  0.951700  0.191600  1.0
  H  H219  1  0.361000  0.451700  0.308400  1.0
  H  H220  1  0.139000  0.048300  0.808400  1.0
  H  H221  1  0.545700  0.666900  0.421900  1.0
  H  H222  1  0.954300  0.833100  0.921900  1.0
  H  H223  1  0.454300  0.333100  0.578100  1.0
  H  H224  1  0.045700  0.166900  0.078100  1.0
  H  H225  1  0.316300  0.391600  0.420500  1.0
  H  H226  1  0.183700  0.108400  0.920500  1.0
  H  H227  1  0.683700  0.608400  0.579500  1.0
  H  H228  1  0.816300  0.891600  0.079500  1.0
  C  C229  1  0.922300  0.597900  0.990000  1
  C  C230  1  0.577700  0.902100  0.490000  1
  C  C231  1  0.077700  0.402100  0.010000  1
  C  C232  1  0.422300  0.097900  0.510000  1
  C  C233  1  0.545900  0.403800  0.020900  1
  C  C234  1  0.954100  0.096200  0.520900  1
  C  C235  1  0.454100  0.596200  0.979100  1
  C  C236  1  0.045900  0.903800  0.479100  1
  C  C237  1  0.894600  0.556400  0.744600  1
  C  C238  1  0.605400  0.943600  0.244600  1
  C  C239  1  0.105400  0.443600  0.255400  1
  C  C240  1  0.394600  0.056400  0.755400  1
  C  C241  1  0.880000  0.528000  0.710800  1
  C  C242  1  0.620000  0.972000  0.210800  1
  C  C243  1  0.120000  0.472000  0.289200  1
  C  C244  1  0.380000  0.028000  0.789200  1
  C  C245  1  0.158300  0.512800  0.752000  1.0
  C  C246  1  0.341700  0.987200  0.252000  1.0
  C  C247  1  0.841700  0.487200  0.248000  1.0
  C  C248  1  0.658300  0.012800  0.748000  1.0
  C  C249  1  0.501700  0.783700  0.752500  1.0
  C  C250  1  0.998300  0.716300  0.252500  1.0
  C  C251  1  0.498300  0.216300  0.247500  1.0
  C  C252  1  0.001700  0.283700  0.747500  1.0
  C  C253  1  0.095100  0.646200  0.587000  1.0
  C  C254  1  0.404900  0.853800  0.087000  1.0
  C  C255  1  0.904900  0.353800  0.413000  1.0
  C  C256  1  0.595100  0.146200  0.913000  1.0
  C  C257  1  0.027300  0.703100  0.579500  1.0
  C  C258  1  0.472700  0.796900  0.079500  1.0
  C  C259  1  0.972700  0.296900  0.420500  1.0
  C  C260  1  0.527300  0.203100  0.920500  1.0
  C  C261  1  0.999000  0.754900  0.617900  1.0
  C  C262  1  0.501000  0.745100  0.117900  1.0
  C  C263  1  0.001000  0.245100  0.382100  1.0
  C  C264  1  0.499000  0.254900  0.882100  1.0
  C  C265  1  0.039500  0.745300  0.664500  1.0
  C  C266  1  0.460500  0.754700  0.164500  1.0
  C  C267  1  0.960500  0.254700  0.335500  1.0
  C  C268  1  0.539500  0.245300  0.835500  1.0
  C  C269  1  0.105600  0.686100  0.669800  1.0
  C  C270  1  0.394400  0.813900  0.169800  1.0
  C  C271  1  0.894400  0.313900  0.330200  1.0
  C  C272  1  0.605600  0.186100  0.830200  1.0
  C  C273  1  0.132900  0.595300  0.547100  1.0
  C  C274  1  0.367100  0.904700  0.047100  1.0
  C  C275  1  0.867100  0.404700  0.452900  1.0
  C  C276  1  0.632900  0.095300  0.952900  1.0
  C  C277  1  0.102100  0.581300  0.498100  1.0
  C  C278  1  0.397900  0.918700  0.998100  1.0
  C  C279  1  0.897900  0.418700  0.501900  1.0
  C  C280  1  0.602100  0.081300  0.001900  1.0
  C  C281  1  0.166200  0.530400  0.477100  1.0
  C  C282  1  0.333800  0.969600  0.977100  1.0
  C  C283  1  0.833800  0.469600  0.522900  1.0
  C  C284  1  0.666200  0.030400  0.022900  1.0
  C  C285  1  0.314600  0.466300  0.508100  1.0
  C  C286  1  0.185400  0.033700  0.008100  1.0
  C  C287  1  0.685400  0.533700  0.491900  1.0
  C  C288  1  0.814600  0.966300  0.991900  1.0
  C  C289  1  0.277900  0.859500  0.587400  1.0
  C  C290  1  0.222100  0.640500  0.087400  1.0
  C  C291  1  0.722100  0.140500  0.412600  1.0
  C  C292  1  0.777900  0.359500  0.912600  1.0
  C  C293  1  0.216900  0.925500  0.579900  1.0
  C  C294  1  0.283100  0.574500  0.079900  1.0
  C  C295  1  0.783100  0.074500  0.420100  1.0
  C  C296  1  0.716900  0.425500  0.920100  1.0
  C  C297  1  0.181600  0.967800  0.620400  1.0
  C  C298  1  0.318400  0.532200  0.120400  1.0
  C  C299  1  0.818400  0.032200  0.379600  1.0
  C  C300  1  0.681600  0.467800  0.879600  1.0
  C  C301  1  0.210100  0.944700  0.666900  1.0
  C  C302  1  0.289900  0.555300  0.166900  1.0
  C  C303  1  0.789900  0.055300  0.333100  1.0
  C  C304  1  0.710100  0.444700  0.833100  1.0
  C  C305  1  0.273300  0.882500  0.671600  1.0
  C  C306  1  0.226700  0.617500  0.171600  1.0
  C  C307  1  0.726700  0.117500  0.328400  1.0
  C  C308  1  0.773300  0.382500  0.828400  1.0
  C  C309  1  0.313600  0.808400  0.546800  1.0
  C  C310  1  0.186400  0.691600  0.046800  1.0
  C  C311  1  0.686400  0.191600  0.453200  1.0
  C  C312  1  0.813600  0.308400  0.953200  1.0
  C  C313  1  0.286300  0.803100  0.497500  1.0
  C  C314  1  0.213700  0.696900  0.997500  1.0
  C  C315  1  0.713700  0.196900  0.502500  1.0
  C  C316  1  0.786300  0.303100  0.002500  1.0
  C  C317  1  0.338800  0.740600  0.476400  1.0
  C  C318  1  0.161200  0.759400  0.976400  1.0
  C  C319  1  0.661200  0.259400  0.523600  1.0
  C  C320  1  0.838800  0.240600  0.023600  1.0
  C  C321  1  0.464100  0.646000  0.509100  1.0
  C  C322  1  0.035900  0.854000  0.009100  1.0
  C  C323  1  0.535900  0.354000  0.490900  1.0
  C  C324  1  0.964100  0.146000  0.990900  1.0
  C  C325  1  0.118300  0.313300  0.632900  1.0
  C  C326  1  0.381700  0.186700  0.132900  1.0
  C  C327  1  0.881700  0.686700  0.367100  1.0
  C  C328  1  0.618300  0.813300  0.867100  1.0
  C  C329  1  0.046800  0.234300  0.624700  1.0
  C  C330  1  0.453200  0.265700  0.124700  1.0
  C  C331  1  0.953200  0.765700  0.375300  1.0
  C  C332  1  0.546800  0.734300  0.875300  1.0
  C  C333  1  0.951100  0.249400  0.618600  1.0
  C  C334  1  0.548900  0.250600  0.118600  1.0
  C  C335  1  0.048900  0.750600  0.381400  1.0
  C  C336  1  0.451100  0.749400  0.881400  1.0
  C  C337  1  0.929600  0.339100  0.620300  1.0
  C  C338  1  0.570400  0.160900  0.120300  1.0
  C  C339  1  0.070400  0.660900  0.379700  1.0
  C  C340  1  0.429600  0.839100  0.879700  1.0
  C  C341  1  0.005800  0.411700  0.627100  1.0
  C  C342  1  0.494200  0.088300  0.127100  1.0
  C  C343  1  0.994200  0.588300  0.372900  1.0
  C  C344  1  0.505800  0.911700  0.872900  1.0
  C  C345  1  0.219600  0.301400  0.643800  1.0
  C  C346  1  0.280400  0.198600  0.143800  1.0
  C  C347  1  0.780400  0.698600  0.356200  1.0
  C  C348  1  0.719600  0.801400  0.856200  1.0
  C  C349  1  0.258300  0.221500  0.655900  1.0
  C  C350  1  0.241700  0.278500  0.155900  1.0
  C  C351  1  0.741700  0.778500  0.344100  1.0
  C  C352  1  0.758300  0.721500  0.844100  1.0
  C  C353  1  0.355000  0.253900  0.665900  1.0
  C  C354  1  0.145000  0.246100  0.165900  1.0
  C  C355  1  0.645000  0.746100  0.334100  1.0
  C  C356  1  0.855000  0.753900  0.834100  1.0
  C  C357  1  0.460500  0.412000  0.668300  1.0
  C  C358  1  0.039500  0.088000  0.168300  1.0
  C  C359  1  0.539500  0.588000  0.331700  1.0
  C  C360  1  0.960500  0.912000  0.831700  1.0
  C  C361  1  0.636800  0.909900  0.629400  1.0
  C  C362  1  0.863200  0.590100  0.129400  1.0
  C  C363  1  0.363200  0.090100  0.370600  1.0
  C  C364  1  0.136800  0.409900  0.870600  1.0
  C  C365  1  0.705100  0.991300  0.623000  1.0
  C  C366  1  0.794900  0.508700  0.123000  1.0
  C  C367  1  0.294900  0.008700  0.377000  1.0
  C  C368  1  0.205100  0.491300  0.877000  1.0
  C  C369  1  0.671900  0.074000  0.614400  1.0
  C  C370  1  0.828100  0.426000  0.114400  1.0
  C  C371  1  0.328100  0.926000  0.385600  1.0
  C  C372  1  0.171900  0.574000  0.885600  1.0
  C  C373  1  0.573000  0.074000  0.611800  1.0
  C  C374  1  0.927000  0.426000  0.111800  1.0
  C  C375  1  0.427000  0.926000  0.388200  1.0
  C  C376  1  0.073000  0.574000  0.888200  1.0
  C  C377  1  0.510000  0.990800  0.617300  1.0
  C  C378  1  0.990000  0.509200  0.117300  1.0
  C  C379  1  0.490000  0.009200  0.382700  1.0
  C  C380  1  0.010000  0.490800  0.882700  1.0
  C  C381  1  0.668000  0.822200  0.642600  1.0
  C  C382  1  0.832000  0.677800  0.142600  1.0
  C  C383  1  0.332000  0.177800  0.357400  1.0
  C  C384  1  0.168000  0.322200  0.857400  1.0
  C  C385  1  0.760000  0.803800  0.657700  1.0
  C  C386  1  0.740000  0.696200  0.157700  1.0
  C  C387  1  0.240000  0.196200  0.342300  1.0
  C  C388  1  0.260000  0.303800  0.842300  1.0
  C  C389  1  0.746800  0.710700  0.669300  1.0
  C  C390  1  0.753200  0.789300  0.169300  1.0
  C  C391  1  0.253200  0.289300  0.330700  1.0
  C  C392  1  0.246800  0.210700  0.830700  1.0
  C  C393  1  0.600600  0.580900  0.668700  1.0
  C  C394  1  0.899400  0.919100  0.168700  1.0
  C  C395  1  0.399400  0.419100  0.331300  1.0
  C  C396  1  0.100600  0.080900  0.831300  1.0
  C  C397  1  0.377500  0.501100  0.463370  1.0
  C  C398  1  0.122500  0.998900  0.963370  1.0
  C  C399  1  0.622500  0.498900  0.536630  1.0
  C  C400  1  0.877500  0.001100  0.036630  1.0
  C  C401  1  0.445600  0.582800  0.463790  1.0
  C  C402  1  0.054400  0.917200  0.963790  1.0
  C  C403  1  0.554400  0.417200  0.536210  1.0
  C  C404  1  0.945600  0.082800  0.036210  1.0
  C  C405  1  0.499100  0.611000  0.421620  1.0
  C  C406  1  0.000900  0.889000  0.921620  1.0
  C  C407  1  0.500900  0.389000  0.578380  1.0
  C  C408  1  0.999100  0.111000  0.078380  1.0
  C  C409  1  0.515500  0.442500  0.620970  1.0
  C  C410  1  0.984500  0.057500  0.120970  1.0
  C  C411  1  0.484500  0.557500  0.379030  1.0
  C  C412  1  0.015500  0.942500  0.879030  1.0
  C  C413  1  0.583600  0.524300  0.621390  1.0
  C  C414  1  0.916400  0.975700  0.121390  1.0
  C  C415  1  0.416400  0.475700  0.378610  1.0
  C  C416  1  0.083600  0.024300  0.878610  1.0
  C  C417  1  0.362900  0.447500  0.420780  1.0
  C  C418  1  0.137100  0.052500  0.920780  1.0
  C  C419  1  0.637100  0.552500  0.579220  1.0
  C  C420  1  0.862900  0.947500  0.079220  1.0
  N  N421  1  0.133600  0.636500  0.632400  1.0
  N  N422  1  0.366400  0.863500  0.132400  1.0
  N  N423  1  0.866400  0.363500  0.367600  1.0
  N  N424  1  0.633600  0.136500  0.867600  1.0
  N  N425  1  0.230400  0.514200  0.512000  1.0
  N  N426  1  0.269600  0.985800  0.012000  1.0
  N  N427  1  0.769600  0.485800  0.488000  1.0
  N  N428  1  0.730400  0.014200  0.988000  1.0
  N  N429  1  0.210500  0.554200  0.555000  1.0
  N  N430  1  0.289500  0.945800  0.055000  1.0
  N  N431  1  0.789500  0.445800  0.445000  1.0
  N  N432  1  0.710500  0.054200  0.945000  1.0
  N  N433  1  0.307500  0.839500  0.633200  1.0
  N  N434  1  0.192500  0.660500  0.133200  1.0
  N  N435  1  0.692500  0.160500  0.366800  1.0
  N  N436  1  0.807500  0.339500  0.866800  1.0
  N  N437  1  0.392900  0.710600  0.512100  1.0
  N  N438  1  0.107100  0.789400  0.012100  1.0
  N  N439  1  0.607100  0.289400  0.487900  1.0
  N  N440  1  0.892900  0.210600  0.987900  1.0
  N  N441  1  0.379100  0.752600  0.555900  1.0
  N  N442  1  0.120900  0.747400  0.055900  1.0
  N  N443  1  0.620900  0.247400  0.444100  1.0
  N  N444  1  0.879100  0.252600  0.944100  1.0
  N  N445  1  0.098800  0.400400  0.633700  1.0
  N  N446  1  0.401200  0.099600  0.133700  1.0
  N  N447  1  0.901200  0.599600  0.366300  1.0
  N  N448  1  0.598800  0.900400  0.866300  1.0
  N  N449  1  0.371000  0.346500  0.660000  1.0
  N  N450  1  0.129000  0.153500  0.160000  1.0
  N  N451  1  0.629000  0.653500  0.340000  1.0
  N  N452  1  0.871000  0.846500  0.840000  1.0
  N  N453  1  0.288900  0.379100  0.646200  1.0
  N  N454  1  0.211100  0.120900  0.146200  1.0
  N  N455  1  0.711100  0.620900  0.353800  1.0
  N  N456  1  0.788900  0.879100  0.853800  1.0
  N  N457  1  0.540100  0.909400  0.626400  1.0
  N  N458  1  0.959900  0.590600  0.126400  1.0
  N  N459  1  0.459900  0.090600  0.373600  1.0
  N  N460  1  0.040100  0.409400  0.873600  1.0
  N  N461  1  0.651300  0.675600  0.661600  1.0
  N  N462  1  0.848700  0.824400  0.161600  1.0
  N  N463  1  0.348700  0.324400  0.338400  1.0
  N  N464  1  0.151300  0.175600  0.838400  1.0
  N  N465  1  0.602000  0.742400  0.644900  1.0
  N  N466  1  0.898000  0.757600  0.144900  1.0
  N  N467  1  0.398000  0.257600  0.355100  1.0
  N  N468  1  0.102000  0.242400  0.855100  1.0
  O  O469  1  0.902200  0.648300  0.947300  1
  O  O470  1  0.597800  0.851700  0.447300  1
  O  O471  1  0.097800  0.351700  0.052700  1
  O  O472  1  0.402200  0.148300  0.552700  1
  O  O473  1  0.638900  0.444300  0.037300  1
  O  O474  1  0.861100  0.055700  0.537300  1
  O  O475  1  0.361100  0.555700  0.962700  1
  O  O476  1  0.138900  0.944300  0.462700  1
  O  O477  1  0.857000  0.525800  0.695700  1
  O  O478  1  0.643000  0.974200  0.195700  1
  O  O479  1  0.143000  0.474200  0.304300  1
  O  O480  1  0.357000  0.025800  0.804300  1
  O  O481  1  0.822900  0.509800  0.664700  1
  O  O482  1  0.677100  0.990200  0.164700  1
  O  O483  1  0.177100  0.490200  0.335300  1
  O  O484  1  0.322900  0.009800  0.835300  1
  O  O485  1  0.238000  0.549700  0.721600  1.0
  O  O486  1  0.262000  0.950300  0.221600  1.0
  O  O487  1  0.762000  0.450300  0.278400  1.0
  O  O488  1  0.738000  0.049700  0.778400  1.0
  O  O489  1  0.423700  0.759000  0.720800  1.0
  O  O490  1  0.076300  0.741000  0.220800  1.0
  O  O491  1  0.576300  0.241000  0.279200  1.0
  O  O492  1  0.923700  0.259000  0.779200  1.0
  F  F493  1  0.450500  0.516500  0.850100  1
  F  F494  1  0.049500  0.983500  0.350100  1
  F  F495  1  0.549500  0.483500  0.149900  1
  F  F496  1  0.950500  0.016500  0.649900  1
  F  F497  1  0.557800  0.566300  0.789300  1
  F  F498  1  0.942200  0.933700  0.289300  1
  F  F499  1  0.442200  0.433700  0.210700  1
  F  F500  1  0.057800  0.066300  0.710700  1
  F  F501  1  0.396800  0.567300  0.778200  1
  F  F502  1  0.103200  0.932700  0.278200  1
  F  F503  1  0.603200  0.432700  0.221800  1
  F  F504  1  0.896800  0.067300  0.721800  1
  F  F505  1  0.453200  0.428800  0.781800  1
  F  F506  1  0.046800  0.071200  0.281800  1
  F  F507  1  0.546800  0.571200  0.218200  1
  F  F508  1  0.953200  0.928800  0.718200  1
  F  F509  1  0.088900  0.745900  0.793100  1
  F  F510  1  0.411100  0.754100  0.293100  1
  F  F511  1  0.911100  0.254100  0.206900  1
  F  F512  1  0.588900  0.245900  0.706900  1
  F  F513  1  0.252100  0.747200  0.785600  1
  F  F514  1  0.247900  0.752800  0.285600  1
  F  F515  1  0.747900  0.252800  0.214400  1
  F  F516  1  0.752100  0.247200  0.714400  1
  F  F517  1  0.190600  0.795900  0.856620  1
  F  F518  1  0.309400  0.704100  0.356620  1
  F  F519  1  0.809400  0.204100  0.143380  1
  F  F520  1  0.690600  0.295900  0.643380  1
  F  F521  1  0.192200  0.884500  0.788200  1
  F  F522  1  0.307800  0.615500  0.288200  1
  F  F523  1  0.807800  0.115500  0.211800  1
  F  F524  1  0.692200  0.384500  0.711800  1
  F  F525  1  0.702400  0.654400  0.964200  1
  F  F526  1  0.797600  0.845600  0.464200  1
  F  F527  1  0.297600  0.345600  0.035800  1
  F  F528  1  0.202400  0.154400  0.535800  1
  F  F529  1  0.639400  0.774900  0.997800  1
  F  F530  1  0.860600  0.725100  0.497800  1
  F  F531  1  0.360600  0.225100  0.002200  1
  F  F532  1  0.139400  0.274900  0.502200  1
  F  F533  1  0.647100  0.642900  0.043300  1
  F  F534  1  0.852900  0.857100  0.543300  1
  F  F535  1  0.352900  0.357100  0.956700  1
  F  F536  1  0.147100  0.142900  0.456700  1
  F  F537  1  0.785400  0.744000  0.024700  1
  F  F538  1  0.714600  0.756000  0.524700  1
  F  F539  1  0.214600  0.256000  0.975300  1
  F  F540  1  0.285400  0.244000  0.475300  1
  F  F541  1  0.384200  0.605700  0.641140  1.0
  F  F542  1  0.115800  0.894300  0.141140  1.0
  F  F543  1  0.615800  0.394300  0.358860  1.0
  F  F544  1  0.884200  0.105700  0.858860  1.0
