# generated using pymatgen
data_H84Pt3C77S5N12(O14F5)3
_symmetry_space_group_name_H-M   'P 1'
_cell_length_a   19.44860000
_cell_length_b   19.44860000
_cell_length_c   21.19422773
_cell_angle_alpha   62.68911778
_cell_angle_beta   62.68911778
_cell_angle_gamma   60.00000000
_symmetry_Int_Tables_number   1
_chemical_formula_structural   H84Pt3C77S5N12(O14F5)3
_chemical_formula_sum   'H168 Pt6 C154 S10 N24 O84 F30'
_cell_volume   5888.22331932
_cell_formula_units_Z   2
loop_
 _symmetry_equiv_pos_site_id
 _symmetry_equiv_pos_as_xyz
  1  'x, y, z'
loop_
 _atom_site_type_symbol
 _atom_site_label
 _atom_site_symmetry_multiplicity
 _atom_site_fract_x
 _atom_site_fract_y
 _atom_site_fract_z
 _atom_site_occupancy
  C  C1  1  0.114867  0.114867  0.655400  1
  C  C2  1  0.885133  0.885133  0.344600  1
  C  C3  1  0.314767  0.314767  0.055700  1
  C  C4  1  0.685233  0.685233  0.944300  1
  C  C5  1  0.487100  0.057100  0.076700  1
  C  C6  1  0.379100  0.487100  0.076700  1
  C  C7  1  0.057100  0.379100  0.076700  1
  C  C8  1  0.620900  0.942900  0.923300  1
  C  C9  1  0.942900  0.512900  0.923300  1
  C  C10  1  0.512900  0.620900  0.923300  1
  C  C11  1  0.165400  0.909800  0.904700  1
  C  C12  1  0.020100  0.165400  0.904700  1
  C  C13  1  0.909800  0.020100  0.904700  1
  C  C14  1  0.979900  0.090200  0.095300  1
  C  C15  1  0.090200  0.834600  0.095300  1
  C  C16  1  0.834600  0.979900  0.095300  1
  C  C17  1  0.289980  0.015280  0.151460  1.0
  C  C18  1  0.543280  0.289980  0.151460  1.0
  C  C19  1  0.015280  0.543280  0.151460  1.0
  C  C20  1  0.456720  0.984720  0.848540  1.0
  C  C21  1  0.984720  0.710020  0.848540  1.0
  C  C22  1  0.710020  0.456720  0.848540  1.0
  C  C23  1  0.213130  0.138530  0.092210  1.0
  C  C24  1  0.556130  0.213130  0.092210  1.0
  C  C25  1  0.138530  0.556130  0.092210  1.0
  C  C26  1  0.443870  0.861470  0.907790  1.0
  C  C27  1  0.861470  0.786870  0.907790  1.0
  C  C28  1  0.786870  0.443870  0.907790  1.0
  C  C29  1  0.166260  0.117860  0.175820  1.0
  C  C30  1  0.540060  0.166260  0.175820  1.0
  C  C31  1  0.117860  0.540060  0.175820  1.0
  C  C32  1  0.459940  0.882140  0.824180  1.0
  C  C33  1  0.882140  0.833740  0.824180  1.0
  C  C34  1  0.833740  0.459940  0.824180  1.0
  C  C35  1  0.451700  0.648300  0.160700  1.0
  C  C36  1  0.739300  0.451700  0.160700  1.0
  C  C37  1  0.648300  0.739300  0.160700  1.0
  C  C38  1  0.260700  0.351700  0.839300  1.0
  C  C39  1  0.351700  0.548300  0.839300  1.0
  C  C40  1  0.548300  0.260700  0.839300  1.0
  C  C41  1  0.365300  0.680600  0.102200  1.0
  C  C42  1  0.851900  0.365300  0.102200  1.0
  C  C43  1  0.680600  0.851900  0.102200  1.0
  C  C44  1  0.148100  0.319400  0.897800  1.0
  C  C45  1  0.319400  0.634700  0.897800  1.0
  C  C46  1  0.634700  0.148100  0.897800  1.0
  C  C47  1  0.315400  0.687500  0.181400  1.0
  C  C48  1  0.815700  0.315400  0.181400  1.0
  C  C49  1  0.687500  0.815700  0.181400  1.0
  C  C50  1  0.184300  0.312500  0.818600  1.0
  C  C51  1  0.312500  0.684600  0.818600  1.0
  C  C52  1  0.684600  0.184300  0.818600  1.0
  C  C53  1  0.548300  0.695700  0.162500  1.0
  C  C54  1  0.593500  0.548300  0.162500  1.0
  C  C55  1  0.695700  0.593500  0.162500  1.0
  C  C56  1  0.406500  0.304300  0.837500  1.0
  C  C57  1  0.304300  0.451700  0.837500  1.0
  C  C58  1  0.451700  0.406500  0.837500  1.0
  C  C59  1  0.535100  0.631500  0.159200  1.0
  C  C60  1  0.674200  0.535100  0.159200  1.0
  C  C61  1  0.631500  0.674200  0.159200  1.0
  C  C62  1  0.325800  0.368500  0.840800  1.0
  C  C63  1  0.368500  0.464900  0.840800  1.0
  C  C64  1  0.464900  0.325800  0.840800  1.0
  C  C65  1  0.489550  0.779650  0.156950  1.0
  C  C66  1  0.573850  0.489550  0.156950  1.0
  C  C67  1  0.779650  0.573850  0.156950  1.0
  C  C68  1  0.426150  0.220350  0.843050  1.0
  C  C69  1  0.220350  0.510450  0.843050  1.0
  C  C70  1  0.510450  0.426150  0.843050  1.0
  C  C71  1  0.460920  0.826720  0.094940  1.0
  C  C72  1  0.617420  0.460920  0.094940  1.0
  C  C73  1  0.826720  0.617420  0.094940  1.0
  C  C74  1  0.382580  0.173280  0.905060  1.0
  C  C75  1  0.173280  0.539080  0.905060  1.0
  C  C76  1  0.539080  0.382580  0.905060  1.0
  C  C77  1  0.396280  0.903680  0.093560  1.0
  C  C78  1  0.606480  0.396280  0.093560  1.0
  C  C79  1  0.903680  0.606480  0.093560  1.0
  C  C80  1  0.393520  0.096320  0.906440  1.0
  C  C81  1  0.096320  0.603720  0.906440  1.0
  C  C82  1  0.603720  0.393520  0.906440  1.0
  C  C83  1  0.360260  0.933560  0.154220  1.0
  C  C84  1  0.551960  0.360260  0.154220  1.0
  C  C85  1  0.933560  0.551960  0.154220  1.0
  C  C86  1  0.448040  0.066440  0.845780  1.0
  C  C87  1  0.066440  0.639740  0.845780  1.0
  C  C88  1  0.639740  0.448040  0.845780  1.0
  C  C89  1  0.388890  0.886490  0.216230  1.0
  C  C90  1  0.508390  0.388890  0.216230  1.0
  C  C91  1  0.886490  0.508390  0.216230  1.0
  C  C92  1  0.491610  0.113510  0.783770  1.0
  C  C93  1  0.113510  0.611110  0.783770  1.0
  C  C94  1  0.611110  0.491610  0.783770  1.0
  C  C95  1  0.453540  0.809440  0.217580  1.0
  C  C96  1  0.519440  0.453540  0.217580  1.0
  C  C97  1  0.809440  0.519440  0.217580  1.0
  C  C98  1  0.480560  0.190560  0.782420  1.0
  C  C99  1  0.190560  0.546460  0.782420  1.0
  C  C100  1  0.546460  0.480560  0.782420  1.0
  C  C101  1  0.082960  0.876960  0.382220  1.0
  C  C102  1  0.657860  0.082960  0.382220  1.0
  C  C103  1  0.876960  0.657860  0.382220  1.0
  C  C104  1  0.342140  0.123040  0.617780  1.0
  C  C105  1  0.123040  0.917040  0.617780  1.0
  C  C106  1  0.917040  0.342140  0.617780  1.0
  C  C107  1  0.229100  0.805700  0.315200  1.0
  C  C108  1  0.650000  0.229100  0.315200  1.0
  C  C109  1  0.805700  0.650000  0.315200  1.0
  C  C110  1  0.350000  0.194300  0.684800  1.0
  C  C111  1  0.194300  0.770900  0.684800  1.0
  C  C112  1  0.770900  0.350000  0.684800  1.0
  C  C113  1  0.126700  0.923500  0.248000  1.0
  C  C114  1  0.701800  0.126700  0.248000  1.0
  C  C115  1  0.923500  0.701800  0.248000  1.0
  C  C116  1  0.298200  0.076500  0.752000  1.0
  C  C117  1  0.076500  0.873300  0.752000  1.0
  C  C118  1  0.873300  0.298200  0.752000  1.0
  C  C119  1  0.213700  0.983800  0.441500  1.0
  C  C120  1  0.361000  0.213700  0.441500  1.0
  C  C121  1  0.983800  0.361000  0.441500  1.0
  C  C122  1  0.639000  0.016200  0.558500  1.0
  C  C123  1  0.016200  0.786300  0.558500  1.0
  C  C124  1  0.786300  0.639000  0.558500  1.0
  C  C125  1  0.123300  0.111800  0.370400  1.0
  C  C126  1  0.394500  0.123300  0.370400  1.0
  C  C127  1  0.111800  0.394500  0.370400  1.0
  C  C128  1  0.605500  0.888200  0.629600  1.0
  C  C129  1  0.888200  0.876700  0.629600  1.0
  C  C130  1  0.876700  0.605500  0.629600  1.0
  C  C131  1  0.279300  0.060200  0.320000  1.0
  C  C132  1  0.340500  0.279300  0.320000  1.0
  C  C133  1  0.060200  0.340500  0.320000  1.0
  C  C134  1  0.659500  0.939800  0.680000  1.0
  C  C135  1  0.939800  0.720700  0.680000  1.0
  C  C136  1  0.720700  0.659500  0.680000  1.0
  C  C137  1  0.097590  0.876290  0.447830  1.0
  C  C138  1  0.578290  0.097590  0.447830  1.0
  C  C139  1  0.876290  0.578290  0.447830  1.0
  C  C140  1  0.421710  0.123710  0.552170  1.0
  C  C141  1  0.123710  0.902410  0.552170  1.0
  C  C142  1  0.902410  0.421710  0.552170  1.0
  C  C143  1  0.142700  0.922300  0.428000  1.0
  C  C144  1  0.507000  0.142700  0.428000  1.0
  C  C145  1  0.922300  0.507000  0.428000  1.0
  C  C146  1  0.493000  0.077700  0.572000  1.0
  C  C147  1  0.077700  0.857300  0.572000  1.0
  C  C148  1  0.857300  0.493000  0.572000  1.0
  C  C149  1  0.155210  0.936710  0.478070  1.0
  C  C150  1  0.430010  0.155210  0.478070  1.0
  C  C151  1  0.936710  0.430010  0.478070  1.0
  C  C152  1  0.569990  0.063290  0.521930  1.0
  C  C153  1  0.063290  0.844790  0.521930  1.0
  C  C154  1  0.844790  0.569990  0.521930  1.0
  F  F155  1  0.183500  0.970500  0.858500  1
  F  F156  1  0.987500  0.183500  0.858500  1
  F  F157  1  0.970500  0.987500  0.858500  1
  F  F158  1  0.012500  0.029500  0.141500  1
  F  F159  1  0.029500  0.816500  0.141500  1
  F  F160  1  0.816500  0.012500  0.141500  1
  F  F161  1  0.098700  0.940100  0.948800  1
  F  F162  1  0.012400  0.098700  0.948800  1
  F  F163  1  0.940100  0.012400  0.948800  1
  F  F164  1  0.987600  0.059900  0.051200  1
  F  F165  1  0.059900  0.901300  0.051200  1
  F  F166  1  0.901300  0.987600  0.051200  1
  F  F167  1  0.144600  0.889400  0.870500  1
  F  F168  1  0.095500  0.144600  0.870500  1
  F  F169  1  0.889400  0.095500  0.870500  1
  F  F170  1  0.904500  0.110600  0.129500  1
  F  F171  1  0.110600  0.855400  0.129500  1
  F  F172  1  0.855400  0.904500  0.129500  1
  F  F173  1  0.130150  0.036650  0.684350  1.0
  F  F174  1  0.148850  0.130150  0.684350  1.0
  F  F175  1  0.036650  0.148850  0.684350  1.0
  F  F176  1  0.851150  0.963350  0.315650  1.0
  F  F177  1  0.963350  0.869850  0.315650  1.0
  F  F178  1  0.869850  0.851150  0.315650  1.0
  F  F179  1  0.378660  0.333360  0.025220  1.0
  F  F180  1  0.262760  0.378660  0.025220  1.0
  F  F181  1  0.333360  0.262760  0.025220  1.0
  F  F182  1  0.737240  0.666640  0.974780  1.0
  F  F183  1  0.666640  0.621340  0.974780  1.0
  F  F184  1  0.621340  0.737240  0.974780  1.0
  H  H185  1  0.180000  0.147300  0.063200  1.0
  H  H186  1  0.609500  0.180000  0.063200  1.0
  H  H187  1  0.147300  0.609500  0.063200  1.0
  H  H188  1  0.390500  0.852700  0.936800  1.0
  H  H189  1  0.852700  0.820000  0.936800  1.0
  H  H190  1  0.820000  0.390500  0.936800  1.0
  H  H191  1  0.224400  0.189600  0.075200  1.0
  H  H192  1  0.510800  0.224400  0.075200  1.0
  H  H193  1  0.189600  0.510800  0.075200  1.0
  H  H194  1  0.489200  0.810400  0.924800  1.0
  H  H195  1  0.810400  0.775600  0.924800  1.0
  H  H196  1  0.775600  0.489200  0.924800  1.0
  H  H197  1  0.153200  0.160800  0.196700  1.0
  H  H198  1  0.489300  0.153200  0.196700  1.0
  H  H199  1  0.160800  0.489300  0.196700  1.0
  H  H200  1  0.510700  0.839200  0.803300  1.0
  H  H201  1  0.839200  0.846800  0.803300  1.0
  H  H202  1  0.846800  0.510700  0.803300  1.0
  H  H203  1  0.114100  0.112100  0.185900  1.0
  H  H204  1  0.587900  0.114100  0.185900  1.0
  H  H205  1  0.112100  0.587900  0.185900  1.0
  H  H206  1  0.412100  0.887900  0.814100  1.0
  H  H207  1  0.887900  0.885900  0.814100  1.0
  H  H208  1  0.885900  0.412100  0.814100  1.0
  H  H209  1  0.361700  0.635200  0.095900  1.0
  H  H210  1  0.907200  0.361700  0.095900  1.0
  H  H211  1  0.635200  0.907200  0.095900  1.0
  H  H212  1  0.092800  0.364800  0.904100  1.0
  H  H213  1  0.364800  0.638300  0.904100  1.0
  H  H214  1  0.638300  0.092800  0.904100  1.0
  H  H215  1  0.343700  0.733300  0.065000  1.0
  H  H216  1  0.858000  0.343700  0.065000  1.0
  H  H217  1  0.733300  0.858000  0.065000  1.0
  H  H218  1  0.142000  0.266700  0.935000  1.0
  H  H219  1  0.266700  0.656300  0.935000  1.0
  H  H220  1  0.656300  0.142000  0.935000  1.0
  H  H221  1  0.275700  0.745100  0.180800  1.0
  H  H222  1  0.798400  0.275700  0.180800  1.0
  H  H223  1  0.745100  0.798400  0.180800  1.0
  H  H224  1  0.201600  0.254900  0.819200  1.0
  H  H225  1  0.254900  0.724300  0.819200  1.0
  H  H226  1  0.724300  0.201600  0.819200  1.0
  H  H227  1  0.284600  0.649200  0.210200  1.0
  H  H228  1  0.856000  0.284600  0.210200  1.0
  H  H229  1  0.649200  0.856000  0.210200  1.0
  H  H230  1  0.144000  0.350800  0.789800  1.0
  H  H231  1  0.350800  0.715400  0.789800  1.0
  H  H232  1  0.715400  0.144000  0.789800  1.0
  H  H233  1  0.485500  0.806300  0.053600  1.0
  H  H234  1  0.654600  0.485500  0.053600  1.0
  H  H235  1  0.806300  0.654600  0.053600  1.0
  H  H236  1  0.345400  0.193700  0.946400  1.0
  H  H237  1  0.193700  0.514500  0.946400  1.0
  H  H238  1  0.514500  0.345400  0.946400  1.0
  H  H239  1  0.376800  0.935800  0.051200  1.0
  H  H240  1  0.636200  0.376800  0.051200  1.0
  H  H241  1  0.935800  0.636200  0.051200  1.0
  H  H242  1  0.363800  0.064200  0.948800  1.0
  H  H243  1  0.064200  0.623200  0.948800  1.0
  H  H244  1  0.623200  0.363800  0.948800  1.0
  H  H245  1  0.364300  0.906900  0.257600  1.0
  H  H246  1  0.471200  0.364300  0.257600  1.0
  H  H247  1  0.906900  0.471200  0.257600  1.0
  H  H248  1  0.528800  0.093100  0.742400  1.0
  H  H249  1  0.093100  0.635700  0.742400  1.0
  H  H250  1  0.635700  0.528800  0.742400  1.0
  H  H251  1  0.473100  0.777300  0.260000  1.0
  H  H252  1  0.489600  0.473100  0.260000  1.0
  H  H253  1  0.777300  0.489600  0.260000  1.0
  H  H254  1  0.510400  0.222700  0.740000  1.0
  H  H255  1  0.222700  0.526900  0.740000  1.0
  H  H256  1  0.526900  0.510400  0.740000  1.0
  H  H257  1  0.030400  0.922600  0.373700  1.0
  H  H258  1  0.673300  0.030400  0.373700  1.0
  H  H259  1  0.922600  0.673300  0.373700  1.0
  H  H260  1  0.326700  0.077400  0.626300  1.0
  H  H261  1  0.077400  0.969600  0.626300  1.0
  H  H262  1  0.969600  0.326700  0.626300  1.0
  H  H263  1  0.079300  0.823700  0.392600  1.0
  H  H264  1  0.704400  0.079300  0.392600  1.0
  H  H265  1  0.823700  0.704400  0.392600  1.0
  H  H266  1  0.295600  0.176300  0.607400  1.0
  H  H267  1  0.176300  0.920700  0.607400  1.0
  H  H268  1  0.920700  0.295600  0.607400  1.0
  H  H269  1  0.211800  0.767000  0.314000  1.0
  H  H270  1  0.707200  0.211800  0.314000  1.0
  H  H271  1  0.767000  0.707200  0.314000  1.0
  H  H272  1  0.292800  0.233000  0.686000  1.0
  H  H273  1  0.233000  0.788200  0.686000  1.0
  H  H274  1  0.788200  0.292800  0.686000  1.0
  H  H275  1  0.244100  0.783800  0.360800  1.0
  H  H276  1  0.611300  0.244100  0.360800  1.0
  H  H277  1  0.783800  0.611300  0.360800  1.0
  H  H278  1  0.388700  0.216200  0.639200  1.0
  H  H279  1  0.216200  0.755900  0.639200  1.0
  H  H280  1  0.755900  0.388700  0.639200  1.0
  H  H281  1  0.277300  0.812400  0.272000  1.0
  H  H282  1  0.638300  0.277300  0.272000  1.0
  H  H283  1  0.812400  0.638300  0.272000  1.0
  H  H284  1  0.361700  0.187600  0.728000  1.0
  H  H285  1  0.187600  0.722700  0.728000  1.0
  H  H286  1  0.722700  0.361700  0.728000  1.0
  H  H287  1  0.067400  0.932800  0.265700  1.0
  H  H288  1  0.734100  0.067400  0.265700  1.0
  H  H289  1  0.932800  0.734100  0.265700  1.0
  H  H290  1  0.265900  0.067200  0.734300  1.0
  H  H291  1  0.067200  0.932600  0.734300  1.0
  H  H292  1  0.932600  0.265900  0.734300  1.0
  H  H293  1  0.157800  0.883500  0.219500  1.0
  H  H294  1  0.739200  0.157800  0.219500  1.0
  H  H295  1  0.883500  0.739200  0.219500  1.0
  H  H296  1  0.260800  0.116500  0.780500  1.0
  H  H297  1  0.116500  0.842200  0.780500  1.0
  H  H298  1  0.842200  0.260800  0.780500  1.0
  H  H299  1  0.134700  0.976300  0.215900  1.0
  H  H300  1  0.673100  0.134700  0.215900  1.0
  H  H301  1  0.976300  0.673100  0.215900  1.0
  H  H302  1  0.326900  0.023700  0.784100  1.0
  H  H303  1  0.023700  0.865300  0.784100  1.0
  H  H304  1  0.865300  0.326900  0.784100  1.0
  H  H305  1  0.271800  0.944300  0.438500  1.0
  H  H306  1  0.345400  0.271800  0.438500  1.0
  H  H307  1  0.944300  0.345400  0.438500  1.0
  H  H308  1  0.654600  0.055700  0.561500  1.0
  H  H309  1  0.055700  0.728200  0.561500  1.0
  H  H310  1  0.728200  0.654600  0.561500  1.0
  H  H311  1  0.198400  0.020000  0.470300  1.0
  H  H312  1  0.311300  0.198400  0.470300  1.0
  H  H313  1  0.020000  0.311300  0.470300  1.0
  H  H314  1  0.688700  0.980000  0.529700  1.0
  H  H315  1  0.980000  0.801600  0.529700  1.0
  H  H316  1  0.801600  0.688700  0.529700  1.0
  H  H317  1  0.135200  0.160100  0.359600  1.0
  H  H318  1  0.345100  0.135200  0.359600  1.0
  H  H319  1  0.160100  0.345100  0.359600  1.0
  H  H320  1  0.654900  0.839900  0.640400  1.0
  H  H321  1  0.839900  0.864800  0.640400  1.0
  H  H322  1  0.864800  0.654900  0.640400  1.0
  H  H323  1  0.086200  0.099700  0.421100  1.0
  H  H324  1  0.393000  0.086200  0.421100  1.0
  H  H325  1  0.099700  0.393000  0.421100  1.0
  H  H326  1  0.607000  0.900300  0.578900  1.0
  H  H327  1  0.900300  0.913800  0.578900  1.0
  H  H328  1  0.913800  0.607000  0.578900  1.0
  H  H329  1  0.096600  0.123800  0.335000  1.0
  H  H330  1  0.444600  0.096600  0.335000  1.0
  H  H331  1  0.123800  0.444600  0.335000  1.0
  H  H332  1  0.555400  0.876200  0.665000  1.0
  H  H333  1  0.876200  0.903400  0.665000  1.0
  H  H334  1  0.903400  0.555400  0.665000  1.0
  H  H335  1  0.278700  0.091400  0.268400  1.0
  H  H336  1  0.361500  0.278700  0.268400  1.0
  H  H337  1  0.091400  0.361500  0.268400  1.0
  H  H338  1  0.638500  0.908600  0.731600  1.0
  H  H339  1  0.908600  0.721300  0.731600  1.0
  H  H340  1  0.721300  0.638500  0.731600  1.0
  H  H341  1  0.329800  0.009800  0.320900  1.0
  H  H342  1  0.339500  0.329800  0.320900  1.0
  H  H343  1  0.009800  0.339500  0.320900  1.0
  H  H344  1  0.660500  0.990200  0.679100  1.0
  H  H345  1  0.990200  0.670200  0.679100  1.0
  H  H346  1  0.670200  0.660500  0.679100  1.0
  H  H347  1  0.278600  0.094800  0.342500  1.0
  H  H348  1  0.284100  0.278600  0.342500  1.0
  H  H349  1  0.094800  0.284100  0.342500  1.0
  H  H350  1  0.715900  0.905200  0.657500  1.0
  H  H351  1  0.905200  0.721400  0.657500  1.0
  H  H352  1  0.721400  0.715900  0.657500  1.0
  N  N353  1  0.228560  0.035760  0.206720  1.0
  N  N354  1  0.528960  0.228560  0.206720  1.0
  N  N355  1  0.035760  0.528960  0.206720  1.0
  N  N356  1  0.471040  0.964240  0.793280  1.0
  N  N357  1  0.964240  0.771440  0.793280  1.0
  N  N358  1  0.771440  0.471040  0.793280  1.0
  N  N359  1  0.383630  0.662430  0.212510  1.0
  N  N360  1  0.741430  0.383630  0.212510  1.0
  N  N361  1  0.662430  0.741430  0.212510  1.0
  N  N362  1  0.258570  0.337570  0.787490  1.0
  N  N363  1  0.337570  0.616370  0.787490  1.0
  N  N364  1  0.616370  0.258570  0.787490  1.0
  N  N365  1  0.157630  0.890130  0.313010  1.0
  N  N366  1  0.639230  0.157630  0.313010  1.0
  N  N367  1  0.890130  0.639230  0.313010  1.0
  N  N368  1  0.360770  0.109870  0.686990  1.0
  N  N369  1  0.109870  0.842370  0.686990  1.0
  N  N370  1  0.842370  0.360770  0.686990  1.0
  N  N371  1  0.204700  0.036400  0.362900  1.0
  N  N372  1  0.396000  0.204700  0.362900  1.0
  N  N373  1  0.036400  0.396000  0.362900  1.0
  N  N374  1  0.604000  0.963600  0.637100  1.0
  N  N375  1  0.963600  0.795300  0.637100  1.0
  N  N376  1  0.795300  0.604000  0.637100  1.0
  O  O377  1  0.448900  0.059200  0.149600  1
  O  O378  1  0.342300  0.448900  0.149600  1
  O  O379  1  0.059200  0.342300  0.149600  1
  O  O380  1  0.657700  0.940800  0.850400  1
  O  O381  1  0.940800  0.551100  0.850400  1
  O  O382  1  0.551100  0.657700  0.850400  1
  O  O383  1  0.341000  0.901700  0.683000  1
  O  O384  1  0.074300  0.341000  0.683000  1
  O  O385  1  0.901700  0.074300  0.683000  1
  O  O386  1  0.925700  0.098300  0.317000  1
  O  O387  1  0.098300  0.659000  0.317000  1
  O  O388  1  0.659000  0.925700  0.317000  1
  O  O389  1  0.497600  0.944600  0.285200  1
  O  O390  1  0.272600  0.497600  0.285200  1
  O  O391  1  0.944600  0.272600  0.285200  1
  O  O392  1  0.727400  0.055400  0.714800  1
  O  O393  1  0.055400  0.502400  0.714800  1
  O  O394  1  0.502400  0.727400  0.714800  1
  O  O395  1  0.429100  0.842100  0.400700  1
  O  O396  1  0.328100  0.429100  0.400700  1
  O  O397  1  0.842100  0.328100  0.400700  1
  O  O398  1  0.671900  0.157900  0.599300  1
  O  O399  1  0.157900  0.570900  0.599300  1
  O  O400  1  0.570900  0.671900  0.599300  1
  O  O401  1  0.380800  0.618900  0.357500  1
  O  O402  1  0.642800  0.380800  0.357500  1
  O  O403  1  0.618900  0.642800  0.357500  1
  O  O404  1  0.357200  0.381100  0.642500  1
  O  O405  1  0.381100  0.619200  0.642500  1
  O  O406  1  0.619200  0.357200  0.642500  1
  O  O407  1  0.248600  0.865900  0.987200  1
  O  O408  1  0.898300  0.248600  0.987200  1
  O  O409  1  0.865900  0.898300  0.987200  1
  O  O410  1  0.101700  0.134100  0.012800  1
  O  O411  1  0.134100  0.751400  0.012800  1
  O  O412  1  0.751400  0.101700  0.012800  1
  O  O413  1  0.211800  0.764800  0.989000  1
  O  O414  1  0.034400  0.211800  0.989000  1
  O  O415  1  0.764800  0.034400  0.989000  1
  O  O416  1  0.965600  0.235200  0.011000  1
  O  O417  1  0.235200  0.788200  0.011000  1
  O  O418  1  0.788200  0.965600  0.011000  1
  O  O419  1  0.314200  0.813000  0.883700  1
  O  O420  1  0.989100  0.314200  0.883700  1
  O  O421  1  0.813000  0.989100  0.883700  1
  O  O422  1  0.010900  0.187000  0.116300  1
  O  O423  1  0.187000  0.685800  0.116300  1
  O  O424  1  0.685800  0.010900  0.116300  1
  O  O425  1  0.321900  0.717900  0.464300  1
  O  O426  1  0.495900  0.321900  0.464300  1
  O  O427  1  0.717900  0.495900  0.464300  1
  O  O428  1  0.504100  0.282100  0.535700  1
  O  O429  1  0.282100  0.678100  0.535700  1
  O  O430  1  0.678100  0.504100  0.535700  1
  O  O431  1  0.217100  0.977700  0.012800  1
  O  O432  1  0.792400  0.217100  0.012800  1
  O  O433  1  0.977700  0.792400  0.012800  1
  O  O434  1  0.207600  0.022300  0.987200  1
  O  O435  1  0.022300  0.782900  0.987200  1
  O  O436  1  0.782900  0.207600  0.987200  1
  O  O437  1  0.092840  0.135740  0.540380  1.0
  O  O438  1  0.231040  0.092840  0.540380  1.0
  O  O439  1  0.135740  0.231040  0.540380  1.0
  O  O440  1  0.768960  0.864260  0.459620  1.0
  O  O441  1  0.864260  0.907160  0.459620  1.0
  O  O442  1  0.907160  0.768960  0.459620  1.0
  O  O443  1  0.269890  0.349190  0.171530  1.0
  O  O444  1  0.209390  0.269890  0.171530  1.0
  O  O445  1  0.349190  0.209390  0.171530  1.0
  O  O446  1  0.790610  0.650810  0.828470  1.0
  O  O447  1  0.650810  0.730110  0.828470  1.0
  O  O448  1  0.730110  0.790610  0.828470  1.0
  O  O449  1  0.288030  0.069830  0.083210  1.0
  O  O450  1  0.558930  0.288030  0.083210  1.0
  O  O451  1  0.069830  0.558930  0.083210  1.0
  O  O452  1  0.441070  0.930170  0.916790  1.0
  O  O453  1  0.930170  0.711970  0.916790  1.0
  O  O454  1  0.711970  0.441070  0.916790  1.0
  O  O455  1  0.448060  0.663460  0.093320  1.0
  O  O456  1  0.795160  0.448060  0.093320  1.0
  O  O457  1  0.663460  0.795160  0.093320  1.0
  O  O458  1  0.204840  0.336540  0.906680  1.0
  O  O459  1  0.336540  0.551940  0.906680  1.0
  O  O460  1  0.551940  0.204840  0.906680  1.0
  Pt  Pt461  1  0.186770  0.973250  0.321470  1.0
  Pt  Pt462  1  0.518510  0.186770  0.321470  1.0
  Pt  Pt463  1  0.973250  0.518510  0.321470  1.0
  Pt  Pt464  1  0.481490  0.026750  0.678530  1.0
  Pt  Pt465  1  0.026750  0.813230  0.678530  1.0
  Pt  Pt466  1  0.813230  0.481490  0.678530  1.0
  S  S467  1  0.147777  0.147777  0.556670  1
  S  S468  1  0.852223  0.852223  0.443330  1
  S  S469  1  0.282107  0.282107  0.153680  1
  S  S470  1  0.717893  0.717893  0.846320  1
  S  S471  1  0.244600  0.828600  0.945800  1
  S  S472  1  0.981000  0.244600  0.945800  1
  S  S473  1  0.828600  0.981000  0.945800  1
  S  S474  1  0.019000  0.171400  0.054200  1
  S  S475  1  0.171400  0.755400  0.054200  1
  S  S476  1  0.755400  0.019000  0.054200  1
