# generated using pymatgen
data_Mo2H44C76N4O17
_symmetry_space_group_name_H-M   'P 1'
_cell_length_a   12.32350000
_cell_length_b   12.32350000
_cell_length_c   15.00875498
_cell_angle_alpha   114.23899459
_cell_angle_beta   114.23899459
_cell_angle_gamma   90.00000000
_symmetry_Int_Tables_number   1
_chemical_formula_structural   Mo2H44C76N4O17
_chemical_formula_sum   'Mo4 H88 C152 N8 O34'
_cell_volume   1855.83493049
_cell_formula_units_Z   2
loop_
 _symmetry_equiv_pos_site_id
 _symmetry_equiv_pos_as_xyz
  1  'x, y, z'
loop_
 _atom_site_type_symbol
 _atom_site_label
 _atom_site_symmetry_multiplicity
 _atom_site_fract_x
 _atom_site_fract_y
 _atom_site_fract_z
 _atom_site_occupancy
  C  C1  1  0.341600  0.172200  0.257200  1
  C  C2  1  0.915600  0.085000  0.257200  1
  C  C3  1  0.085000  0.341600  0.257200  1
  C  C4  1  0.172200  0.915600  0.257200  1
  C  C5  1  0.658400  0.827800  0.742800  1
  C  C6  1  0.084400  0.915000  0.742800  1
  C  C7  1  0.915000  0.658400  0.742800  1
  C  C8  1  0.827800  0.084400  0.742800  1
  C  C9  1  0.471300  0.198200  0.270400  1
  C  C10  1  0.799100  0.072200  0.270400  1
  C  C11  1  0.072200  0.471300  0.270400  1
  C  C12  1  0.198200  0.799100  0.270400  1
  C  C13  1  0.528700  0.801800  0.729600  1
  C  C14  1  0.200900  0.927800  0.729600  1
  C  C15  1  0.927800  0.528700  0.729600  1
  C  C16  1  0.801800  0.200900  0.729600  1
  C  C17  1  0.570600  0.239900  0.372800  1
  C  C18  1  0.802200  0.132900  0.372800  1
  C  C19  1  0.132900  0.570600  0.372800  1
  C  C20  1  0.239900  0.802200  0.372800  1
  C  C21  1  0.429400  0.760100  0.627200  1
  C  C22  1  0.197800  0.867100  0.627200  1
  C  C23  1  0.867100  0.429400  0.627200  1
  C  C24  1  0.760100  0.197800  0.627200  1
  C  C25  1  0.687300  0.263200  0.384600  1
  C  C26  1  0.697300  0.121400  0.384600  1
  C  C27  1  0.121400  0.687300  0.384600  1
  C  C28  1  0.263200  0.697300  0.384600  1
  C  C29  1  0.312700  0.736800  0.615400  1
  C  C30  1  0.302700  0.878600  0.615400  1
  C  C31  1  0.878600  0.312700  0.615400  1
  C  C32  1  0.736800  0.302700  0.615400  1
  C  C33  1  0.704850  0.244950  0.294100  1
  C  C34  1  0.589250  0.049150  0.294100  1
  C  C35  1  0.049150  0.704850  0.294100  1
  C  C36  1  0.244950  0.589250  0.294100  1
  C  C37  1  0.295150  0.755050  0.705900  1
  C  C38  1  0.410750  0.950850  0.705900  1
  C  C39  1  0.950850  0.295150  0.705900  1
  C  C40  1  0.755050  0.410750  0.705900  1
  C  C41  1  0.605540  0.203240  0.191680  1
  C  C42  1  0.586140  0.988440  0.191680  1
  C  C43  1  0.988440  0.605540  0.191680  1
  C  C44  1  0.203240  0.586140  0.191680  1
  C  C45  1  0.394460  0.796760  0.808320  1
  C  C46  1  0.413860  0.011560  0.808320  1
  C  C47  1  0.011560  0.394460  0.808320  1
  C  C48  1  0.796760  0.413860  0.808320  1
  C  C49  1  0.488700  0.179800  0.179800  1
  C  C50  1  0.691100  0.000000  0.179800  1
  C  C51  1  0.000000  0.488700  0.179800  1
  C  C52  1  0.179800  0.691100  0.179800  1
  C  C53  1  0.511300  0.820200  0.820200  1
  C  C54  1  0.308900  1.000000  0.820200  1
  C  C55  1  1.000000  0.511300  0.820200  1
  C  C56  1  0.820200  0.308900  0.820200  1
  C  C57  1  0.624220  0.183520  0.094640  1
  C  C58  1  0.470420  0.911120  0.094640  1
  C  C59  1  0.911120  0.624220  0.094640  1
  C  C60  1  0.183520  0.470420  0.094640  1
  C  C61  1  0.375780  0.816480  0.905360  1
  C  C62  1  0.529580  0.088880  0.905360  1
  C  C63  1  0.088880  0.375780  0.905360  1
  C  C64  1  0.816480  0.529580  0.905360  1
  C  C65  1  0.728130  0.228830  0.097060  1
  C  C66  1  0.368930  0.868230  0.097060  1
  C  C67  1  0.868230  0.728130  0.097060  1
  C  C68  1  0.228830  0.368930  0.097060  1
  C  C69  1  0.271870  0.771170  0.902940  1
  C  C70  1  0.631070  0.131770  0.902940  1
  C  C71  1  0.131770  0.271870  0.902940  1
  C  C72  1  0.771170  0.631070  0.902940  1
  C  C73  1  0.731400  0.203000  0.000000  1
  C  C74  1  0.268600  0.797000  0.000000  1
  C  C75  1  0.797000  0.731400  0.000000  1
  C  C76  1  0.203000  0.268600  1.000000  1
  C  C77  1  0.711800  0.156400  0.000000  1.0
  C  C78  1  0.288200  0.843600  0.000000  1.0
  C  C79  1  0.843600  0.711800  0.000000  1.0
  C  C80  1  0.156400  0.288200  0.000000  1.0
  C  C81  1  0.342400  0.238600  0.289600  1.0
  C  C82  1  0.947200  0.051000  0.289600  1.0
  C  C83  1  0.051000  0.342400  0.289600  1.0
  C  C84  1  0.238600  0.947200  0.289600  1.0
  C  C85  1  0.657600  0.761400  0.710400  1.0
  C  C86  1  0.052800  0.949000  0.710400  1.0
  C  C87  1  0.949000  0.657600  0.710400  1.0
  C  C88  1  0.761400  0.052800  0.710400  1.0
  C  C89  1  0.453600  0.288600  0.287400  1.0
  C  C90  1  0.833800  0.998800  0.287400  1.0
  C  C91  1  0.998800  0.453600  0.287400  1.0
  C  C92  1  0.288600  0.833800  0.287400  1.0
  C  C93  1  0.546400  0.711400  0.712600  1.0
  C  C94  1  0.166200  0.001200  0.712600  1.0
  C  C95  1  0.001200  0.546400  0.712600  1.0
  C  C96  1  0.711400  0.166200  0.712600  1.0
  C  C97  1  0.543500  0.380100  0.383600  1.0
  C  C98  1  0.840100  0.003500  0.383600  1.0
  C  C99  1  0.003500  0.543500  0.383600  1.0
  C  C100  1  0.380100  0.840100  0.383600  1.0
  C  C101  1  0.456500  0.619900  0.616400  1.0
  C  C102  1  0.159900  0.996500  0.616400  1.0
  C  C103  1  0.996500  0.456500  0.616400  1.0
  C  C104  1  0.619900  0.159900  0.616400  1.0
  C  C105  1  0.650600  0.420500  0.386200  1.0
  C  C106  1  0.735600  0.965700  0.386200  1.0
  C  C107  1  0.965700  0.650600  0.386200  1.0
  C  C108  1  0.420500  0.735600  0.386200  1.0
  C  C109  1  0.349400  0.579500  0.613800  1.0
  C  C110  1  0.264400  0.034300  0.613800  1.0
  C  C111  1  0.034300  0.349400  0.613800  1.0
  C  C112  1  0.579500  0.264400  0.613800  1.0
  C  C113  1  0.667700  0.369300  0.292600  1.0
  C  C114  1  0.624900  0.923300  0.292600  1.0
  C  C115  1  0.923300  0.667700  0.292600  1.0
  C  C116  1  0.369300  0.624900  0.292600  1.0
  C  C117  1  0.332300  0.630700  0.707400  1.0
  C  C118  1  0.375100  0.076700  0.707400  1.0
  C  C119  1  0.076700  0.332300  0.707400  1.0
  C  C120  1  0.630700  0.375100  0.707400  1.0
  C  C121  1  0.577800  0.277700  0.196400  1.0
  C  C122  1  0.618600  0.918700  0.196400  1.0
  C  C123  1  0.918700  0.577800  0.196400  1.0
  C  C124  1  0.277700  0.618600  0.196400  1.0
  C  C125  1  0.422200  0.722300  0.803600  1.0
  C  C126  1  0.381400  0.081300  0.803600  1.0
  C  C127  1  0.081300  0.422200  0.803600  1.0
  C  C128  1  0.722300  0.381400  0.803600  1.0
  C  C129  1  0.470700  0.237400  0.193800  1.0
  C  C130  1  0.723100  0.956400  0.193800  1.0
  C  C131  1  0.956400  0.470700  0.193800  1.0
  C  C132  1  0.237400  0.723100  0.193800  1.0
  C  C133  1  0.529300  0.762600  0.806200  1.0
  C  C134  1  0.276900  0.043600  0.806200  1.0
  C  C135  1  0.043600  0.529300  0.806200  1.0
  C  C136  1  0.762600  0.276900  0.806200  1.0
  C  C137  1  0.591830  0.220430  0.094660  1.0
  C  C138  1  0.502830  0.874230  0.094660  1.0
  C  C139  1  0.874230  0.591830  0.094660  1.0
  C  C140  1  0.220430  0.502830  0.094660  1.0
  C  C141  1  0.408170  0.779570  0.905340  1.0
  C  C142  1  0.497170  0.125770  0.905340  1.0
  C  C143  1  0.125770  0.408170  0.905340  1.0
  C  C144  1  0.779570  0.497170  0.905340  1.0
  C  C145  1  0.704230  0.210530  0.097060  1.0
  C  C146  1  0.392830  0.886530  0.097060  1.0
  C  C147  1  0.886530  0.704230  0.097060  1.0
  C  C148  1  0.210530  0.392830  0.097060  1.0
  C  C149  1  0.295770  0.789470  0.902940  1.0
  C  C150  1  0.607170  0.113470  0.902940  1.0
  C  C151  1  0.113470  0.295770  0.902940  1.0
  C  C152  1  0.789470  0.607170  0.902940  1.0
  H  H153  1  0.558600  0.252600  0.435400  1
  H  H154  1  0.876800  0.182800  0.435400  1
  H  H155  1  0.182800  0.558600  0.435400  1
  H  H156  1  0.252600  0.876800  0.435400  1
  H  H157  1  0.441400  0.747400  0.564600  1
  H  H158  1  0.123200  0.817200  0.564600  1
  H  H159  1  0.817200  0.441400  0.564600  1
  H  H160  1  0.747400  0.123200  0.564600  1
  H  H161  1  0.756000  0.292100  0.455400  1
  H  H162  1  0.699400  0.163300  0.455400  1
  H  H163  1  0.163300  0.756000  0.455400  1
  H  H164  1  0.292100  0.699400  0.455400  1
  H  H165  1  0.244000  0.707900  0.544600  1
  H  H166  1  0.300600  0.836700  0.544600  1
  H  H167  1  0.836700  0.244000  0.544600  1
  H  H168  1  0.707900  0.300600  0.544600  1
  H  H169  1  0.785500  0.261100  0.302400  1
  H  H170  1  0.516900  0.041300  0.302400  1
  H  H171  1  0.041300  0.785500  0.302400  1
  H  H172  1  0.261100  0.516900  0.302400  1
  H  H173  1  0.214500  0.738900  0.697600  1
  H  H174  1  0.483100  0.958700  0.697600  1
  H  H175  1  0.958700  0.214500  0.697600  1
  H  H176  1  0.738900  0.483100  0.697600  1
  H  H177  1  0.420100  0.151000  0.109000  1
  H  H178  1  0.688900  0.958000  0.109000  1
  H  H179  1  0.958000  0.420100  0.109000  1
  H  H180  1  0.151000  0.688900  0.109000  1
  H  H181  1  0.579900  0.849000  0.891000  1
  H  H182  1  0.311100  0.042000  0.891000  1
  H  H183  1  0.042000  0.579900  0.891000  1
  H  H184  1  0.849000  0.311100  0.891000  1
  H  H185  1  0.797100  0.278500  0.165600  1
  H  H186  1  0.368500  0.887100  0.165600  1
  H  H187  1  0.887100  0.797100  0.165600  1
  H  H188  1  0.278500  0.368500  0.165600  1
  H  H189  1  0.202900  0.721500  0.834400  1
  H  H190  1  0.631500  0.112900  0.834400  1
  H  H191  1  0.112900  0.202900  0.834400  1
  H  H192  1  0.721500  0.631500  0.834400  1
  H  H193  1  0.802000  0.235400  0.000000  1
  H  H194  1  0.198000  0.764600  0.000000  1
  H  H195  1  0.764600  0.802000  0.000000  1
  H  H196  1  0.235400  0.198000  1.000000  1
  H  H197  1  0.789300  0.148600  1.000000  1.0
  H  H198  1  0.210700  0.851400  0.000000  1.0
  H  H199  1  0.851400  0.789300  1.000000  1.0
  H  H200  1  0.148600  0.210700  0.000000  1.0
  H  H201  1  0.531600  0.415500  0.448200  1.0
  H  H202  1  0.916600  0.032700  0.448200  1.0
  H  H203  1  0.032700  0.531600  0.448200  1.0
  H  H204  1  0.415500  0.916600  0.448200  1.0
  H  H205  1  0.468400  0.584500  0.551800  1.0
  H  H206  1  0.083400  0.967300  0.551800  1.0
  H  H207  1  0.967300  0.468400  0.551800  1.0
  H  H208  1  0.584500  0.083400  0.551800  1.0
  H  H209  1  0.712600  0.483600  0.452400  1.0
  H  H210  1  0.739800  0.968800  0.452400  1.0
  H  H211  1  0.968800  0.712600  0.452400  1.0
  H  H212  1  0.483600  0.739800  0.452400  1.0
  H  H213  1  0.287400  0.516400  0.547600  1.0
  H  H214  1  0.260200  0.031200  0.547600  1.0
  H  H215  1  0.031200  0.287400  0.547600  1.0
  H  H216  1  0.516400  0.260200  0.547600  1.0
  H  H217  1  0.741600  0.397000  0.294200  1.0
  H  H218  1  0.552600  0.897200  0.294200  1.0
  H  H219  1  0.897200  0.741600  0.294200  1.0
  H  H220  1  0.397000  0.552600  0.294200  1.0
  H  H221  1  0.258400  0.603000  0.705800  1.0
  H  H222  1  0.447400  0.102800  0.705800  1.0
  H  H223  1  0.102800  0.258400  0.705800  1.0
  H  H224  1  0.603000  0.447400  0.705800  1.0
  H  H225  1  0.408700  0.174300  0.127600  1.0
  H  H226  1  0.718900  0.953300  0.127600  1.0
  H  H227  1  0.953300  0.408700  0.127600  1.0
  H  H228  1  0.174300  0.718900  0.127600  1.0
  H  H229  1  0.591300  0.825700  0.872400  1.0
  H  H230  1  0.281100  0.046700  0.872400  1.0
  H  H231  1  0.046700  0.591300  0.872400  1.0
  H  H232  1  0.825700  0.281100  0.872400  1.0
  H  H233  1  0.776300  0.240800  0.165600  1.0
  H  H234  1  0.389300  0.924800  0.165600  1.0
  H  H235  1  0.924800  0.776300  0.165600  1.0
  H  H236  1  0.240800  0.389300  0.165600  1.0
  H  H237  1  0.223700  0.759200  0.834400  1.0
  H  H238  1  0.610700  0.075200  0.834400  1.0
  H  H239  1  0.075200  0.223700  0.834400  1.0
  H  H240  1  0.759200  0.610700  0.834400  1.0
  Mo  Mo241  1  0.185020  0.185020  0.370040  1.0
  Mo  Mo242  1  0.814980  0.814980  0.629960  1.0
  Mo  Mo243  1  0.099000  0.099000  0.198000  1.0
  Mo  Mo244  1  0.901000  0.901000  0.802000  1.0
  N  N245  1  0.525800  0.114300  0.000000  1
  N  N246  1  0.474200  0.885700  0.000000  1
  N  N247  1  0.885700  0.525800  1.000000  1
  N  N248  1  0.114300  0.474200  0.000000  1
  N  N249  1  0.489200  0.178500  1.000000  1.0
  N  N250  1  0.510800  0.821500  0.000000  1.0
  N  N251  1  0.821500  0.489200  0.000000  1.0
  N  N252  1  0.178500  0.510800  0.000000  1.0
  O  O253  1  0.335000  0.206200  0.346600  1
  O  O254  1  0.011600  0.140400  0.346600  1
  O  O255  1  0.140400  0.335000  0.346600  1
  O  O256  1  0.206200  0.011600  0.346600  1
  O  O257  1  0.665000  0.793800  0.653400  1
  O  O258  1  0.988400  0.859600  0.653400  1
  O  O259  1  0.859600  0.665000  0.653400  1
  O  O260  1  0.793800  0.988400  0.653400  1
  O  O261  1  0.246000  0.121500  0.166800  1
  O  O262  1  0.920800  0.045300  0.166800  1
  O  O263  1  0.045300  0.246000  0.166800  1
  O  O264  1  0.121500  0.920800  0.166800  1
  O  O265  1  0.754000  0.878500  0.833200  1
  O  O266  1  0.079200  0.954700  0.833200  1
  O  O267  1  0.954700  0.754000  0.833200  1
  O  O268  1  0.878500  0.079200  0.833200  1
  O  O269  1  0.283230  0.283230  0.566460  1
  O  O270  1  0.716770  0.716770  0.433540  1
  O  O271  1  0.344800  0.267800  0.385200  1.0
  O  O272  1  0.040400  0.117400  0.385200  1.0
  O  O273  1  0.117400  0.344800  0.385200  1.0
  O  O274  1  0.267800  0.040400  0.385200  1.0
  O  O275  1  0.655200  0.732200  0.614800  1.0
  O  O276  1  0.959600  0.882600  0.614800  1.0
  O  O277  1  0.882600  0.655200  0.614800  1.0
  O  O278  1  0.732200  0.959600  0.614800  1.0
  O  O279  1  0.257000  0.172000  0.201400  1.0
  O  O280  1  0.944400  0.029400  0.201400  1.0
  O  O281  1  0.029400  0.257000  0.201400  1.0
  O  O282  1  0.172000  0.944400  0.201400  1.0
  O  O283  1  0.743000  0.828000  0.798600  1.0
  O  O284  1  0.055600  0.970600  0.798600  1.0
  O  O285  1  0.970600  0.743000  0.798600  1.0
  O  O286  1  0.828000  0.055600  0.798600  1.0
