# generated using pymatgen
data_MoH8C16O5
_symmetry_space_group_name_H-M   'P 1'
_cell_length_a   11.62000000
_cell_length_b   26.16500000
_cell_length_c   52.45000000
_cell_angle_alpha   90.00000000
_cell_angle_beta   93.31400000
_cell_angle_gamma   90.00000000
_symmetry_Int_Tables_number   1
_chemical_formula_structural   MoH8C16O5
_chemical_formula_sum   'Mo24 H192 C384 O120'
_cell_volume   15920.08896342
_cell_formula_units_Z   24
loop_
 _symmetry_equiv_pos_site_id
 _symmetry_equiv_pos_as_xyz
  1  'x, y, z'
loop_
 _atom_site_type_symbol
 _atom_site_label
 _atom_site_symmetry_multiplicity
 _atom_site_fract_x
 _atom_site_fract_y
 _atom_site_fract_z
 _atom_site_occupancy
  Mo  Mo1  1  0.859900  0.316570  0.092276  1
  Mo  Mo2  1  0.140100  0.816570  0.407724  1
  Mo  Mo3  1  0.140100  0.683430  0.907724  1
  Mo  Mo4  1  0.859900  0.183430  0.592276  1
  Mo  Mo5  1  0.906930  0.386700  0.110188  1
  Mo  Mo6  1  0.093070  0.886700  0.389812  1
  Mo  Mo7  1  0.093070  0.613300  0.889812  1
  Mo  Mo8  1  0.906930  0.113300  0.610188  1
  Mo  Mo9  1  0.233950  0.574060  0.291904  1
  Mo  Mo10  1  0.766050  0.074060  0.208096  1
  Mo  Mo11  1  0.766050  0.425940  0.708096  1
  Mo  Mo12  1  0.233950  0.925940  0.791904  1
  Mo  Mo13  1  0.170400  0.571780  0.253203  1
  Mo  Mo14  1  0.829600  0.071780  0.246797  1
  Mo  Mo15  1  0.829600  0.428220  0.746797  1
  Mo  Mo16  1  0.170400  0.928220  0.753203  1
  Mo  Mo17  1  0.012110  0.811710  0.075787  1
  Mo  Mo18  1  0.987890  0.311710  0.424213  1
  Mo  Mo19  1  0.987890  0.188290  0.924213  1
  Mo  Mo20  1  0.012110  0.688290  0.575787  1
  Mo  Mo21  1  0.016040  0.743680  0.097612  1
  Mo  Mo22  1  0.983960  0.243680  0.402388  1
  Mo  Mo23  1  0.983960  0.256320  0.902388  1
  Mo  Mo24  1  0.016040  0.756320  0.597612  1
  H  H25  1  0.516100  0.358800  0.049800  1
  H  H26  1  0.483900  0.858800  0.450200  1
  H  H27  1  0.483900  0.641200  0.950200  1
  H  H28  1  0.516100  0.141200  0.549800  1
  H  H29  1  0.380000  0.402800  0.023200  1
  H  H30  1  0.620000  0.902800  0.476800  1
  H  H31  1  0.620000  0.597200  0.976800  1
  H  H32  1  0.380000  0.097200  0.523200  1
  H  H33  1  0.390200  0.491000  0.017600  1
  H  H34  1  0.609800  0.991000  0.482400  1
  H  H35  1  0.609800  0.509000  0.982400  1
  H  H36  1  0.390200  0.009000  0.517600  1
  H  H37  1  0.659700  0.493300  0.071100  1
  H  H38  1  0.340300  0.993300  0.428900  1
  H  H39  1  0.340300  0.506700  0.928900  1
  H  H40  1  0.659700  0.006700  0.571100  1
  H  H41  1  0.467800  0.671400  0.006700  1
  H  H42  1  0.532200  0.171400  0.493300  1
  H  H43  1  0.532200  0.328600  0.993300  1
  H  H44  1  0.467800  0.828600  0.506700  1
  H  H45  1  0.538000  0.751300  0.996500  1
  H  H46  1  0.462000  0.251300  0.503500  1
  H  H47  1  0.462000  0.248700  0.003500  1
  H  H48  1  0.538000  0.748700  0.496500  1
  H  H49  1  0.678500  0.789400  0.024400  1
  H  H50  1  0.321500  0.289400  0.475600  1
  H  H51  1  0.321500  0.210600  0.975600  1
  H  H52  1  0.678500  0.710600  0.524400  1
  H  H53  1  0.722800  0.654700  0.061500  1
  H  H54  1  0.277200  0.154700  0.438500  1
  H  H55  1  0.277200  0.345300  0.938500  1
  H  H56  1  0.722800  0.845300  0.561500  1
  H  H57  1  0.040700  0.328400  0.016800  1
  H  H58  1  0.959300  0.828400  0.483200  1
  H  H59  1  0.959300  0.671600  0.983200  1
  H  H60  1  0.040700  0.171600  0.516800  1
  H  H61  1  0.134500  0.354200  0.981500  1
  H  H62  1  0.865500  0.854200  0.518500  1
  H  H63  1  0.865500  0.645800  0.018500  1
  H  H64  1  0.134500  0.145800  0.481500  1
  H  H65  1  0.189200  0.441600  0.977000  1
  H  H66  1  0.810800  0.941600  0.523000  1
  H  H67  1  0.810800  0.558400  0.023000  1
  H  H68  1  0.189200  0.058400  0.477000  1
  H  H69  1  0.073900  0.469500  0.047000  1
  H  H70  1  0.926100  0.969500  0.453000  1
  H  H71  1  0.926100  0.530500  0.953000  1
  H  H72  1  0.073900  0.030500  0.547000  1
  H  H73  1  0.263200  0.620600  0.973100  1
  H  H74  1  0.736800  0.120600  0.526900  1
  H  H75  1  0.736800  0.379400  0.026900  1
  H  H76  1  0.263200  0.879400  0.473100  1
  H  H77  1  0.273800  0.714700  0.972200  1
  H  H78  1  0.726200  0.214700  0.527800  1
  H  H79  1  0.726200  0.285300  0.027800  1
  H  H80  1  0.273800  0.785300  0.472200  1
  H  H81  1  0.210200  0.760400  0.006200  1
  H  H82  1  0.789800  0.260400  0.493800  1
  H  H83  1  0.789800  0.239600  0.993800  1
  H  H84  1  0.210200  0.739600  0.506200  1
  H  H85  1  0.141400  0.629600  0.043600  1
  H  H86  1  0.858600  0.129600  0.456400  1
  H  H87  1  0.858600  0.370400  0.956400  1
  H  H88  1  0.141400  0.870400  0.543600  1
  H  H89  1  0.676200  0.235400  0.155100  1
  H  H90  1  0.323800  0.735400  0.344900  1
  H  H91  1  0.323800  0.764600  0.844900  1
  H  H92  1  0.676200  0.264600  0.655100  1
  H  H93  1  0.618700  0.203200  0.194200  1
  H  H94  1  0.381300  0.703200  0.305800  1
  H  H95  1  0.381300  0.796800  0.805800  1
  H  H96  1  0.618700  0.296800  0.694200  1
  H  H97  1  0.673200  0.246900  0.231700  1
  H  H98  1  0.326800  0.746900  0.268300  1
  H  H99  1  0.326800  0.753100  0.768300  1
  H  H100  1  0.673200  0.253100  0.731700  1
  H  H101  1  0.802500  0.362600  0.191400  1
  H  H102  1  0.197500  0.862600  0.308600  1
  H  H103  1  0.197500  0.637400  0.808600  1
  H  H104  1  0.802500  0.137400  0.691400  1
  H  H105  1  0.778700  0.352900  0.307400  1
  H  H106  1  0.221300  0.852900  0.192600  1
  H  H107  1  0.221300  0.647100  0.692600  1
  H  H108  1  0.778700  0.147100  0.807400  1
  H  H109  1  0.838000  0.409100  0.340300  1
  H  H110  1  0.162000  0.909100  0.159700  1
  H  H111  1  0.162000  0.590900  0.659700  1
  H  H112  1  0.838000  0.090900  0.840300  1
  H  H113  1  0.956400  0.479300  0.331000  1
  H  H114  1  0.043600  0.979300  0.169000  1
  H  H115  1  0.043600  0.520700  0.669000  1
  H  H116  1  0.956400  0.020700  0.831000  1
  H  H117  1  0.919400  0.445700  0.255400  1
  H  H118  1  0.080600  0.945700  0.244600  1
  H  H119  1  0.080600  0.554300  0.744600  1
  H  H120  1  0.919400  0.054300  0.755400  1
  H  H121  1  0.164900  0.210700  0.117200  1
  H  H122  1  0.835100  0.710700  0.382800  1
  H  H123  1  0.835100  0.789300  0.882800  1
  H  H124  1  0.164900  0.289300  0.617200  1
  H  H125  1  0.310900  0.171400  0.142900  1
  H  H126  1  0.689100  0.671400  0.357100  1
  H  H127  1  0.689100  0.828600  0.857100  1
  H  H128  1  0.310900  0.328600  0.642900  1
  H  H129  1  0.416700  0.218800  0.174000  1
  H  H130  1  0.583300  0.718800  0.326000  1
  H  H131  1  0.583300  0.781200  0.826000  1
  H  H132  1  0.416700  0.281200  0.674000  1
  H  H133  1  0.226400  0.344100  0.157100  1
  H  H134  1  0.773600  0.844100  0.342900  1
  H  H135  1  0.773600  0.655900  0.842900  1
  H  H136  1  0.226400  0.155900  0.657100  1
  H  H137  1  0.534400  0.314300  0.252400  1
  H  H138  1  0.465600  0.814300  0.247600  1
  H  H139  1  0.465600  0.685700  0.747600  1
  H  H140  1  0.534400  0.185700  0.752400  1
  H  H141  1  0.571900  0.360100  0.289700  1
  H  H142  1  0.428100  0.860100  0.210300  1
  H  H143  1  0.428100  0.639900  0.710300  1
  H  H144  1  0.571900  0.139900  0.789700  1
  H  H145  1  0.475200  0.438400  0.295400  1
  H  H146  1  0.524800  0.938400  0.204600  1
  H  H147  1  0.524800  0.561600  0.704600  1
  H  H148  1  0.475200  0.061600  0.795400  1
  H  H149  1  0.323300  0.426300  0.225000  1
  H  H150  1  0.676700  0.926300  0.275000  1
  H  H151  1  0.676700  0.573700  0.775000  1
  H  H152  1  0.323300  0.073700  0.725000  1
  H  H153  1  0.045800  0.717600  0.320800  1
  H  H154  1  0.954200  0.217600  0.179200  1
  H  H155  1  0.954200  0.282400  0.679200  1
  H  H156  1  0.045800  0.782400  0.820800  1
  H  H157  1  0.965000  0.800000  0.322400  1
  H  H158  1  0.035000  0.300000  0.177600  1
  H  H159  1  0.035000  0.200000  0.677600  1
  H  H160  1  0.965000  0.700000  0.822400  1
  H  H161  1  0.889400  0.839600  0.285700  1
  H  H162  1  0.110600  0.339600  0.214300  1
  H  H163  1  0.110600  0.160400  0.714300  1
  H  H164  1  0.889400  0.660400  0.785700  1
  H  H165  1  0.990800  0.721500  0.243000  1
  H  H166  1  0.009200  0.221500  0.257000  1
  H  H167  1  0.009200  0.278500  0.757000  1
  H  H168  1  0.990800  0.778500  0.743000  1
  H  H169  1  0.788300  0.924700  0.205200  1
  H  H170  1  0.211700  0.424700  0.294800  1
  H  H171  1  0.211700  0.075300  0.794800  1
  H  H172  1  0.788300  0.575300  0.705200  1
  H  H173  1  0.755900  0.961400  0.165100  1
  H  H174  1  0.244100  0.461400  0.334900  1
  H  H175  1  0.244100  0.038600  0.834900  1
  H  H176  1  0.755900  0.538600  0.665100  1
  H  H177  1  0.807600  0.916000  0.127900  1
  H  H178  1  0.192400  0.416000  0.372100  1
  H  H179  1  0.192400  0.084000  0.872100  1
  H  H180  1  0.807600  0.584000  0.627900  1
  H  H181  1  0.913200  0.797900  0.172900  1
  H  H182  1  0.086800  0.297900  0.327100  1
  H  H183  1  0.086800  0.202100  0.827100  1
  H  H184  1  0.913200  0.702100  0.672900  1
  H  H185  1  0.582100  0.656500  0.285400  1
  H  H186  1  0.417900  0.156500  0.214600  1
  H  H187  1  0.417900  0.343500  0.714600  1
  H  H188  1  0.582100  0.843500  0.785400  1
  H  H189  1  0.727600  0.708900  0.273900  1
  H  H190  1  0.272400  0.208900  0.226100  1
  H  H191  1  0.272400  0.291100  0.726100  1
  H  H192  1  0.727600  0.791100  0.773900  1
  H  H193  1  0.709400  0.758100  0.235800  1
  H  H194  1  0.290600  0.258100  0.264200  1
  H  H195  1  0.290600  0.241900  0.764200  1
  H  H196  1  0.709400  0.741900  0.735800  1
  H  H197  1  0.408900  0.682800  0.217000  1
  H  H198  1  0.591100  0.182800  0.283000  1
  H  H199  1  0.591100  0.317200  0.783000  1
  H  H200  1  0.408900  0.817200  0.717000  1
  H  H201  1  0.591800  0.862100  0.162900  1
  H  H202  1  0.408200  0.362100  0.337100  1
  H  H203  1  0.408200  0.137900  0.837100  1
  H  H204  1  0.591800  0.637900  0.662900  1
  H  H205  1  0.500400  0.920900  0.132200  1
  H  H206  1  0.499600  0.420900  0.367800  1
  H  H207  1  0.499600  0.079100  0.867800  1
  H  H208  1  0.500400  0.579100  0.632200  1
  H  H209  1  0.341500  0.891000  0.107100  1
  H  H210  1  0.658500  0.391000  0.392900  1
  H  H211  1  0.658500  0.109000  0.892900  1
  H  H212  1  0.341500  0.609000  0.607100  1
  H  H213  1  0.333000  0.763700  0.150100  1
  H  H214  1  0.667000  0.263700  0.349900  1
  H  H215  1  0.667000  0.236300  0.849900  1
  H  H216  1  0.333000  0.736300  0.650100  1
  C  C217  1  0.695300  0.397500  0.078670  1
  C  C218  1  0.304700  0.897500  0.421330  1
  C  C219  1  0.304700  0.602500  0.921330  1
  C  C220  1  0.695300  0.102500  0.578670  1
  C  C221  1  0.602500  0.424900  0.062820  1
  C  C222  1  0.397500  0.924900  0.437180  1
  C  C223  1  0.397500  0.575100  0.937180  1
  C  C224  1  0.602500  0.075100  0.562820  1
  C  C225  1  0.518100  0.395000  0.048410  1
  C  C226  1  0.481900  0.895000  0.451590  1
  C  C227  1  0.481900  0.605000  0.951590  1
  C  C228  1  0.518100  0.105000  0.548410  1
  C  C229  1  0.439200  0.421500  0.032280  1
  C  C230  1  0.560800  0.921500  0.467720  1
  C  C231  1  0.560800  0.578500  0.967720  1
  C  C232  1  0.439200  0.078500  0.532280  1
  C  C233  1  0.443800  0.474100  0.029000  1
  C  C234  1  0.556200  0.974100  0.471000  1
  C  C235  1  0.556200  0.525900  0.971000  1
  C  C236  1  0.443800  0.025900  0.529000  1
  C  C237  1  0.529900  0.502000  0.043200  1
  C  C238  1  0.470100  0.002000  0.456800  1
  C  C239  1  0.470100  0.498000  0.956800  1
  C  C240  1  0.529900  0.998000  0.543200  1
  C  C241  1  0.605100  0.474700  0.060590  1
  C  C242  1  0.394900  0.974700  0.439410  1
  C  C243  1  0.394900  0.525300  0.939410  1
  C  C244  1  0.605100  0.025300  0.560590  1
  C  C245  1  0.539400  0.555800  0.040800  1
  C  C246  1  0.460600  0.055800  0.459200  1
  C  C247  1  0.460600  0.444200  0.959200  1
  C  C248  1  0.539400  0.944200  0.540800  1
  C  C249  1  0.563000  0.601000  0.037070  1
  C  C250  1  0.437000  0.101000  0.462930  1
  C  C251  1  0.437000  0.399000  0.962930  1
  C  C252  1  0.563000  0.899000  0.537070  1
  C  C253  1  0.590900  0.654300  0.034100  1
  C  C254  1  0.409100  0.154300  0.465900  1
  C  C255  1  0.409100  0.345700  0.965900  1
  C  C256  1  0.590900  0.845700  0.534100  1
  C  C257  1  0.534400  0.684500  0.015900  1
  C  C258  1  0.465600  0.184500  0.484100  1
  C  C259  1  0.465600  0.315500  0.984100  1
  C  C260  1  0.534400  0.815500  0.515900  1
  C  C261  1  0.571600  0.732900  0.010600  1
  C  C262  1  0.428400  0.232900  0.489400  1
  C  C263  1  0.428400  0.267100  0.989400  1
  C  C264  1  0.571600  0.767100  0.510600  1
  C  C265  1  0.658700  0.754400  0.026200  1
  C  C266  1  0.341300  0.254400  0.473800  1
  C  C267  1  0.341300  0.245600  0.973800  1
  C  C268  1  0.658700  0.745600  0.526200  1
  C  C269  1  0.718300  0.723400  0.045030  1
  C  C270  1  0.281700  0.223400  0.454970  1
  C  C271  1  0.281700  0.276600  0.954970  1
  C  C272  1  0.718300  0.776600  0.545030  1
  C  C273  1  0.683600  0.675000  0.048710  1
  C  C274  1  0.316400  0.175000  0.451290  1
  C  C275  1  0.316400  0.325000  0.951290  1
  C  C276  1  0.683600  0.825000  0.548710  1
  C  C277  1  0.821800  0.745600  0.060590  1
  C  C278  1  0.178200  0.245600  0.439410  1
  C  C279  1  0.178200  0.254400  0.939410  1
  C  C280  1  0.821800  0.754400  0.560590  1
  C  C281  1  0.994700  0.380200  0.059290  1
  C  C282  1  0.005300  0.880200  0.440710  1
  C  C283  1  0.005300  0.619800  0.940710  1
  C  C284  1  0.994700  0.119800  0.559290  1
  C  C285  1  0.049700  0.396600  0.036020  1
  C  C286  1  0.950300  0.896600  0.463980  1
  C  C287  1  0.950300  0.603400  0.963980  1
  C  C288  1  0.049700  0.103400  0.536020  1
  C  C289  1  0.066800  0.362700  0.015700  1
  C  C290  1  0.933200  0.862700  0.484300  1
  C  C291  1  0.933200  0.637300  0.984300  1
  C  C292  1  0.066800  0.137300  0.515700  1
  C  C293  1  0.120100  0.378100  0.994600  1
  C  C294  1  0.879900  0.878100  0.505400  1
  C  C295  1  0.879900  0.621900  0.005400  1
  C  C296  1  0.120100  0.121900  0.494600  1
  C  C297  1  0.154600  0.430300  0.992020  1
  C  C298  1  0.845400  0.930300  0.507980  1
  C  C299  1  0.845400  0.569700  0.007980  1
  C  C300  1  0.154600  0.069700  0.492020  1
  C  C301  1  0.136500  0.464500  0.011900  1
  C  C302  1  0.863500  0.964500  0.488100  1
  C  C303  1  0.863500  0.535500  0.988100  1
  C  C304  1  0.136500  0.035500  0.511900  1
  C  C305  1  0.085100  0.446300  0.033440  1
  C  C306  1  0.914900  0.946300  0.466560  1
  C  C307  1  0.914900  0.553700  0.966560  1
  C  C308  1  0.085100  0.053700  0.533440  1
  C  C309  1  0.168700  0.518400  0.010200  1
  C  C310  1  0.831300  0.018400  0.489800  1
  C  C311  1  0.831300  0.481600  0.989800  1
  C  C312  1  0.168700  0.981600  0.510200  1
  C  C313  1  0.187800  0.563400  0.009170  1
  C  C314  1  0.812200  0.063400  0.490830  1
  C  C315  1  0.812200  0.436600  0.990830  1
  C  C316  1  0.187800  0.936600  0.509170  1
  C  C317  1  0.203200  0.618000  0.008270  1
  C  C318  1  0.796800  0.118000  0.491730  1
  C  C319  1  0.796800  0.382000  0.991730  1
  C  C320  1  0.203200  0.882000  0.508270  1
  C  C321  1  0.240700  0.640500  0.987110  1
  C  C322  1  0.759300  0.140500  0.512890  1
  C  C323  1  0.759300  0.359500  0.012890  1
  C  C324  1  0.240700  0.859500  0.487110  1
  C  C325  1  0.245800  0.697500  0.986490  1
  C  C326  1  0.754200  0.197500  0.513510  1
  C  C327  1  0.754200  0.302500  0.013510  1
  C  C328  1  0.245800  0.802500  0.486490  1
  C  C329  1  0.210000  0.724100  0.006620  1
  C  C330  1  0.790000  0.224100  0.493380  1
  C  C331  1  0.790000  0.275900  0.993380  1
  C  C332  1  0.210000  0.775900  0.506620  1
  C  C333  1  0.171700  0.698000  0.028700  1
  C  C334  1  0.828300  0.198000  0.471300  1
  C  C335  1  0.828300  0.302000  0.971300  1
  C  C336  1  0.171700  0.802000  0.528700  1
  C  C337  1  0.168000  0.646700  0.029120  1
  C  C338  1  0.832000  0.146700  0.470880  1
  C  C339  1  0.832000  0.353300  0.970880  1
  C  C340  1  0.168000  0.853300  0.529120  1
  C  C341  1  0.123000  0.726700  0.049680  1
  C  C342  1  0.877000  0.226700  0.450320  1
  C  C343  1  0.877000  0.273300  0.950320  1
  C  C344  1  0.123000  0.773300  0.549680  1
  C  C345  1  0.783700  0.321100  0.144660  1
  C  C346  1  0.216300  0.821100  0.355340  1
  C  C347  1  0.216300  0.678900  0.855340  1
  C  C348  1  0.783700  0.178900  0.644660  1
  C  C349  1  0.740300  0.301100  0.169240  1
  C  C350  1  0.259700  0.801100  0.330760  1
  C  C351  1  0.259700  0.698900  0.830760  1
  C  C352  1  0.740300  0.198900  0.669240  1
  C  C353  1  0.690300  0.254700  0.170360  1
  C  C354  1  0.309700  0.754700  0.329640  1
  C  C355  1  0.309700  0.745300  0.829640  1
  C  C356  1  0.690300  0.245300  0.670360  1
  C  C357  1  0.659200  0.234600  0.193560  1
  C  C358  1  0.340800  0.734600  0.306440  1
  C  C359  1  0.340800  0.765400  0.806440  1
  C  C360  1  0.659200  0.265400  0.693560  1
  C  C361  1  0.688800  0.261800  0.215760  1
  C  C362  1  0.311200  0.761800  0.284240  1
  C  C363  1  0.311200  0.738200  0.784240  1
  C  C364  1  0.688800  0.238200  0.715760  1
  C  C365  1  0.741700  0.311100  0.215650  1
  C  C366  1  0.258300  0.811100  0.284350  1
  C  C367  1  0.258300  0.688900  0.784350  1
  C  C368  1  0.741700  0.188900  0.715650  1
  C  C369  1  0.767000  0.330100  0.192450  1
  C  C370  1  0.233000  0.830100  0.307550  1
  C  C371  1  0.233000  0.669900  0.807550  1
  C  C372  1  0.767000  0.169900  0.692450  1
  C  C373  1  0.775700  0.336000  0.238890  1
  C  C374  1  0.224300  0.836000  0.261110  1
  C  C375  1  0.224300  0.664000  0.761110  1
  C  C376  1  0.775700  0.164000  0.738890  1
  C  C377  1  0.803900  0.358500  0.257040  1
  C  C378  1  0.196100  0.858500  0.242960  1
  C  C379  1  0.196100  0.641500  0.742960  1
  C  C380  1  0.803900  0.141500  0.757040  1
  C  C381  1  0.841300  0.392500  0.277960  1
  C  C382  1  0.158700  0.892500  0.222040  1
  C  C383  1  0.158700  0.607500  0.722040  1
  C  C384  1  0.841300  0.107500  0.777960  1
  C  C385  1  0.820300  0.382800  0.303440  1
  C  C386  1  0.179700  0.882800  0.196560  1
  C  C387  1  0.179700  0.617200  0.696560  1
  C  C388  1  0.820300  0.117200  0.803440  1
  C  C389  1  0.858200  0.415400  0.323320  1
  C  C390  1  0.141800  0.915400  0.176680  1
  C  C391  1  0.141800  0.584600  0.676680  1
  C  C392  1  0.858200  0.084600  0.823320  1
  C  C393  1  0.926700  0.457700  0.317620  1
  C  C394  1  0.073300  0.957700  0.182380  1
  C  C395  1  0.073300  0.542300  0.682380  1
  C  C396  1  0.926700  0.042300  0.817620  1
  C  C397  1  0.951400  0.467900  0.292360  1
  C  C398  1  0.048600  0.967900  0.207640  1
  C  C399  1  0.048600  0.532100  0.707640  1
  C  C400  1  0.951400  0.032100  0.792360  1
  C  C401  1  0.906500  0.437000  0.272630  1
  C  C402  1  0.093500  0.937000  0.227370  1
  C  C403  1  0.093500  0.563000  0.727370  1
  C  C404  1  0.906500  0.063000  0.772630  1
  C  C405  1  0.031300  0.509400  0.285670  1
  C  C406  1  0.968700  0.009400  0.214330  1
  C  C407  1  0.968700  0.490600  0.714330  1
  C  C408  1  0.031300  0.990600  0.785670  1
  C  C409  1  0.078100  0.308500  0.122270  1
  C  C410  1  0.921900  0.808500  0.377730  1
  C  C411  1  0.921900  0.691500  0.877730  1
  C  C412  1  0.078100  0.191500  0.622270  1
  C  C413  1  0.179700  0.281500  0.135840  1
  C  C414  1  0.820300  0.781500  0.364160  1
  C  C415  1  0.820300  0.718500  0.864160  1
  C  C416  1  0.179700  0.218500  0.635840  1
  C  C417  1  0.205700  0.229000  0.130510  1
  C  C418  1  0.794300  0.729000  0.369490  1
  C  C419  1  0.794300  0.771000  0.869490  1
  C  C420  1  0.205700  0.271000  0.630510  1
  C  C421  1  0.292100  0.206300  0.145590  1
  C  C422  1  0.707900  0.706300  0.354410  1
  C  C423  1  0.707900  0.793700  0.854410  1
  C  C424  1  0.292100  0.293700  0.645590  1
  C  C425  1  0.352800  0.234400  0.164950  1
  C  C426  1  0.647200  0.734400  0.335050  1
  C  C427  1  0.647200  0.765600  0.835050  1
  C  C428  1  0.352800  0.265600  0.664950  1
  C  C429  1  0.322900  0.283600  0.171180  1
  C  C430  1  0.677100  0.783600  0.328820  1
  C  C431  1  0.677100  0.716400  0.828820  1
  C  C432  1  0.322900  0.216400  0.671180  1
  C  C433  1  0.240400  0.308600  0.154950  1
  C  C434  1  0.759600  0.808600  0.345050  1
  C  C435  1  0.759600  0.691400  0.845050  1
  C  C436  1  0.240400  0.191400  0.654950  1
  C  C437  1  0.375700  0.311700  0.192540  1
  C  C438  1  0.624300  0.811700  0.307460  1
  C  C439  1  0.624300  0.688300  0.807460  1
  C  C440  1  0.375700  0.188300  0.692540  1
  C  C441  1  0.402300  0.335700  0.210850  1
  C  C442  1  0.597700  0.835700  0.289150  1
  C  C443  1  0.597700  0.664300  0.789150  1
  C  C444  1  0.402300  0.164300  0.710850  1
  C  C445  1  0.425000  0.365700  0.234240  1
  C  C446  1  0.575000  0.865700  0.265760  1
  C  C447  1  0.575000  0.634300  0.765760  1
  C  C448  1  0.425000  0.134300  0.734240  1
  C  C449  1  0.498500  0.346600  0.254390  1
  C  C450  1  0.501500  0.846600  0.245610  1
  C  C451  1  0.501500  0.653400  0.745610  1
  C  C452  1  0.498500  0.153400  0.754390  1
  C  C453  1  0.519600  0.373100  0.276640  1
  C  C454  1  0.480400  0.873100  0.223360  1
  C  C455  1  0.480400  0.626900  0.723360  1
  C  C456  1  0.519600  0.126900  0.776640  1
  C  C457  1  0.463000  0.419600  0.279960  1
  C  C458  1  0.537000  0.919600  0.220040  1
  C  C459  1  0.537000  0.580400  0.720040  1
  C  C460  1  0.463000  0.080400  0.779960  1
  C  C461  1  0.389600  0.437800  0.260650  1
  C  C462  1  0.610400  0.937800  0.239350  1
  C  C463  1  0.610400  0.562200  0.739350  1
  C  C464  1  0.389600  0.062200  0.760650  1
  C  C465  1  0.372500  0.412000  0.238190  1
  C  C466  1  0.627500  0.912000  0.261810  1
  C  C467  1  0.627500  0.588000  0.761810  1
  C  C468  1  0.372500  0.088000  0.738190  1
  C  C469  1  0.326700  0.487500  0.265020  1
  C  C470  1  0.673300  0.987500  0.234980  1
  C  C471  1  0.673300  0.512500  0.734980  1
  C  C472  1  0.326700  0.012500  0.765020  1
  C  C473  1  0.083400  0.661500  0.279190  1
  C  C474  1  0.916600  0.161500  0.220810  1
  C  C475  1  0.916600  0.338500  0.720810  1
  C  C476  1  0.083400  0.838500  0.779190  1
  C  C477  1  0.026900  0.710500  0.281330  1
  C  C478  1  0.973100  0.210500  0.218670  1
  C  C479  1  0.973100  0.289500  0.718670  1
  C  C480  1  0.026900  0.789500  0.781330  1
  C  C481  1  0.018700  0.734400  0.305600  1
  C  C482  1  0.981300  0.234400  0.194400  1
  C  C483  1  0.981300  0.265600  0.694400  1
  C  C484  1  0.018700  0.765600  0.805600  1
  C  C485  1  0.969400  0.783300  0.306380  1
  C  C486  1  0.030600  0.283300  0.193620  1
  C  C487  1  0.030600  0.216700  0.693620  1
  C  C488  1  0.969400  0.716700  0.806380  1
  C  C489  1  0.927300  0.807600  0.284510  1
  C  C490  1  0.072700  0.307600  0.215490  1
  C  C491  1  0.072700  0.192400  0.715490  1
  C  C492  1  0.927300  0.692400  0.784510  1
  C  C493  1  0.939600  0.786200  0.261040  1
  C  C494  1  0.060400  0.286200  0.238960  1
  C  C495  1  0.060400  0.213800  0.738960  1
  C  C496  1  0.939600  0.713800  0.761040  1
  C  C497  1  0.986400  0.737000  0.259270  1
  C  C498  1  0.013600  0.237000  0.240730  1
  C  C499  1  0.013600  0.263000  0.740730  1
  C  C500  1  0.986400  0.763000  0.759270  1
  C  C501  1  0.902500  0.813200  0.237270  1
  C  C502  1  0.097500  0.313200  0.262730  1
  C  C503  1  0.097500  0.186800  0.762730  1
  C  C504  1  0.902500  0.686800  0.737270  1
  C  C505  1  0.874600  0.834100  0.217460  1
  C  C506  1  0.125400  0.334100  0.282540  1
  C  C507  1  0.125400  0.165900  0.782540  1
  C  C508  1  0.874600  0.665900  0.717460  1
  C  C509  1  0.849700  0.855900  0.193040  1
  C  C510  1  0.150300  0.355900  0.306960  1
  C  C511  1  0.150300  0.144100  0.806960  1
  C  C512  1  0.849700  0.644100  0.693040  1
  C  C513  1  0.806000  0.905900  0.190390  1
  C  C514  1  0.194000  0.405900  0.309610  1
  C  C515  1  0.194000  0.094100  0.809610  1
  C  C516  1  0.806000  0.594100  0.690390  1
  C  C517  1  0.788700  0.928200  0.166650  1
  C  C518  1  0.211300  0.428200  0.333350  1
  C  C519  1  0.211300  0.071800  0.833350  1
  C  C520  1  0.788700  0.571800  0.666650  1
  C  C521  1  0.820000  0.901200  0.144350  1
  C  C522  1  0.180000  0.401200  0.355650  1
  C  C523  1  0.180000  0.098800  0.855650  1
  C  C524  1  0.820000  0.598800  0.644350  1
  C  C525  1  0.867200  0.854400  0.147060  1
  C  C526  1  0.132800  0.354400  0.352940  1
  C  C527  1  0.132800  0.145600  0.852940  1
  C  C528  1  0.867200  0.645600  0.647060  1
  C  C529  1  0.881300  0.831200  0.171450  1
  C  C530  1  0.118700  0.331200  0.328550  1
  C  C531  1  0.118700  0.168800  0.828550  1
  C  C532  1  0.881300  0.668800  0.671450  1
  C  C533  1  0.907100  0.826400  0.123830  1
  C  C534  1  0.092900  0.326400  0.376170  1
  C  C535  1  0.092900  0.173600  0.876170  1
  C  C536  1  0.907100  0.673600  0.623830  1
  C  C537  1  0.385800  0.629800  0.259490  1
  C  C538  1  0.614200  0.129800  0.240510  1
  C  C539  1  0.614200  0.370200  0.740510  1
  C  C540  1  0.385800  0.870200  0.759490  1
  C  C541  1  0.481700  0.663000  0.252440  1
  C  C542  1  0.518300  0.163000  0.247560  1
  C  C543  1  0.518300  0.337000  0.747560  1
  C  C544  1  0.481700  0.837000  0.752440  1
  C  C545  1  0.576600  0.672700  0.269190  1
  C  C546  1  0.423400  0.172700  0.230810  1
  C  C547  1  0.423400  0.327300  0.730810  1
  C  C548  1  0.576600  0.827300  0.769190  1
  C  C549  1  0.661300  0.704900  0.262600  1
  C  C550  1  0.338700  0.204900  0.237400  1
  C  C551  1  0.338700  0.295100  0.737400  1
  C  C552  1  0.661300  0.795100  0.762600  1
  C  C553  1  0.654000  0.732800  0.239500  1
  C  C554  1  0.346000  0.232800  0.260500  1
  C  C555  1  0.346000  0.267200  0.760500  1
  C  C556  1  0.654000  0.767200  0.739500  1
  C  C557  1  0.557800  0.720800  0.221800  1
  C  C558  1  0.442200  0.220800  0.278200  1
  C  C559  1  0.442200  0.279200  0.778200  1
  C  C560  1  0.557800  0.779200  0.721800  1
  C  C561  1  0.474000  0.688600  0.228480  1
  C  C562  1  0.526000  0.188600  0.271520  1
  C  C563  1  0.526000  0.311400  0.771520  1
  C  C564  1  0.474000  0.811400  0.728480  1
  C  C565  1  0.538900  0.749700  0.198000  1
  C  C566  1  0.461100  0.249700  0.302000  1
  C  C567  1  0.461100  0.250300  0.802000  1
  C  C568  1  0.538900  0.750300  0.698000  1
  C  C569  1  0.512700  0.776800  0.180680  1
  C  C570  1  0.487300  0.276800  0.319320  1
  C  C571  1  0.487300  0.223200  0.819320  1
  C  C572  1  0.512700  0.723200  0.680680  1
  C  C573  1  0.468700  0.810500  0.160020  1
  C  C574  1  0.531300  0.310500  0.339980  1
  C  C575  1  0.531300  0.189500  0.839980  1
  C  C576  1  0.468700  0.689500  0.660020  1
  C  C577  1  0.520300  0.853400  0.154300  1
  C  C578  1  0.479700  0.353400  0.345700  1
  C  C579  1  0.479700  0.146600  0.845700  1
  C  C580  1  0.520300  0.646600  0.654300  1
  C  C581  1  0.468900  0.888000  0.135000  1
  C  C582  1  0.531100  0.388000  0.365000  1
  C  C583  1  0.531100  0.112000  0.865000  1
  C  C584  1  0.468900  0.612000  0.635000  1
  C  C585  1  0.373100  0.871000  0.120900  1
  C  C586  1  0.626900  0.371000  0.379100  1
  C  C587  1  0.626900  0.129000  0.879100  1
  C  C588  1  0.373100  0.629000  0.620900  1
  C  C589  1  0.322700  0.825500  0.126580  1
  C  C590  1  0.677300  0.325500  0.373420  1
  C  C591  1  0.677300  0.174500  0.873420  1
  C  C592  1  0.322700  0.674500  0.626580  1
  C  C593  1  0.369100  0.795100  0.146120  1
  C  C594  1  0.630900  0.295100  0.353880  1
  C  C595  1  0.630900  0.204900  0.853880  1
  C  C596  1  0.369100  0.704900  0.646120  1
  C  C597  1  0.213000  0.808500  0.111970  1
  C  C598  1  0.787000  0.308500  0.388030  1
  C  C599  1  0.787000  0.191500  0.888030  1
  C  C600  1  0.213000  0.691500  0.611970  1
  O  O601  1  0.707200  0.348200  0.075740  1
  O  O602  1  0.292800  0.848200  0.424260  1
  O  O603  1  0.292800  0.651800  0.924260  1
  O  O604  1  0.707200  0.151800  0.575740  1
  O  O605  1  0.759900  0.422800  0.094190  1
  O  O606  1  0.240100  0.922800  0.405810  1
  O  O607  1  0.240100  0.577200  0.905810  1
  O  O608  1  0.759900  0.077200  0.594190  1
  O  O609  1  0.859300  0.788900  0.055050  1
  O  O610  1  0.140700  0.288900  0.444950  1
  O  O611  1  0.140700  0.211100  0.944950  1
  O  O612  1  0.859300  0.711100  0.555050  1
  O  O613  1  0.862100  0.716700  0.077900  1
  O  O614  1  0.137900  0.216700  0.422100  1
  O  O615  1  0.137900  0.283300  0.922100  1
  O  O616  1  0.862100  0.783300  0.577900  1
  O  O617  1  0.947200  0.335700  0.059120  1
  O  O618  1  0.052800  0.835700  0.440880  1
  O  O619  1  0.052800  0.664300  0.940880  1
  O  O620  1  0.947200  0.164300  0.559120  1
  O  O621  1  0.992100  0.409600  0.078530  1
  O  O622  1  0.007900  0.909600  0.421470  1
  O  O623  1  0.007900  0.590400  0.921470  1
  O  O624  1  0.992100  0.090400  0.578530  1
  O  O625  1  0.104600  0.775800  0.046810  1
  O  O626  1  0.895400  0.275800  0.453190  1
  O  O627  1  0.895400  0.224200  0.953190  1
  O  O628  1  0.104600  0.724200  0.546810  1
  O  O629  1  0.104600  0.702600  0.069810  1
  O  O630  1  0.895400  0.202600  0.430190  1
  O  O631  1  0.895400  0.297400  0.930190  1
  O  O632  1  0.104600  0.797400  0.569810  1
  O  O633  1  0.776200  0.291000  0.125070  1
  O  O634  1  0.223800  0.791000  0.374930  1
  O  O635  1  0.223800  0.709000  0.874930  1
  O  O636  1  0.776200  0.209000  0.625070  1
  O  O637  1  0.828600  0.365200  0.143930  1
  O  O638  1  0.171400  0.865200  0.356070  1
  O  O639  1  0.171400  0.634800  0.856070  1
  O  O640  1  0.828600  0.134800  0.643930  1
  O  O641  1  0.098000  0.527800  0.303330  1
  O  O642  1  0.902000  0.027800  0.196670  1
  O  O643  1  0.902000  0.472200  0.696670  1
  O  O644  1  0.098000  0.972200  0.803330  1
  O  O645  1  0.031100  0.524000  0.262740  1
  O  O646  1  0.968900  0.024000  0.237260  1
  O  O647  1  0.968900  0.476000  0.737260  1
  O  O648  1  0.031100  0.976000  0.762740  1
  O  O649  1  0.013000  0.279500  0.107110  1
  O  O650  1  0.987000  0.779500  0.392890  1
  O  O651  1  0.987000  0.720500  0.892890  1
  O  O652  1  0.013000  0.220500  0.607110  1
  O  O653  1  0.061100  0.354600  0.126550  1
  O  O654  1  0.938900  0.854600  0.373450  1
  O  O655  1  0.938900  0.645400  0.873450  1
  O  O656  1  0.061100  0.145400  0.626550  1
  O  O657  1  0.333400  0.508000  0.286970  1
  O  O658  1  0.666600  0.008000  0.213030  1
  O  O659  1  0.666600  0.492000  0.713030  1
  O  O660  1  0.333400  0.992000  0.786970  1
  O  O661  1  0.263900  0.505200  0.245970  1
  O  O662  1  0.736100  0.005200  0.254030  1
  O  O663  1  0.736100  0.494800  0.754030  1
  O  O664  1  0.263900  0.994800  0.745970  1
  O  O665  1  0.140000  0.642700  0.298400  1
  O  O666  1  0.860000  0.142700  0.201600  1
  O  O667  1  0.860000  0.357300  0.701600  1
  O  O668  1  0.140000  0.857300  0.798400  1
  O  O669  1  0.076200  0.638840  0.257270  1
  O  O670  1  0.923800  0.138840  0.242730  1
  O  O671  1  0.923800  0.361160  0.742730  1
  O  O672  1  0.076200  0.861160  0.757270  1
  O  O673  1  0.922500  0.852100  0.103550  1
  O  O674  1  0.077500  0.352100  0.396450  1
  O  O675  1  0.077500  0.147900  0.896450  1
  O  O676  1  0.922500  0.647900  0.603550  1
  O  O677  1  0.928900  0.779600  0.126900  1
  O  O678  1  0.071100  0.279600  0.373100  1
  O  O679  1  0.071100  0.220400  0.873100  1
  O  O680  1  0.928900  0.720400  0.626900  1
  O  O681  1  0.379300  0.616700  0.282740  1
  O  O682  1  0.620700  0.116700  0.217260  1
  O  O683  1  0.620700  0.383300  0.717260  1
  O  O684  1  0.379300  0.883300  0.782740  1
  O  O685  1  0.310100  0.616200  0.241820  1
  O  O686  1  0.689900  0.116200  0.258180  1
  O  O687  1  0.689900  0.383800  0.758180  1
  O  O688  1  0.310100  0.883800  0.741820  1
  O  O689  1  0.167000  0.837400  0.094900  1
  O  O690  1  0.833000  0.337400  0.405100  1
  O  O691  1  0.833000  0.162600  0.905100  1
  O  O692  1  0.167000  0.662600  0.594900  1
  O  O693  1  0.172100  0.765500  0.117870  1
  O  O694  1  0.827900  0.265500  0.382130  1
  O  O695  1  0.827900  0.234500  0.882130  1
  O  O696  1  0.172100  0.734500  0.617870  1
  O  O697  1  0.013100  0.891700  0.049480  1
  O  O698  1  0.986900  0.391700  0.450520  1
  O  O699  1  0.986900  0.108300  0.950520  1
  O  O700  1  0.013100  0.608300  0.549480  1
  O  O701  1  0.011300  0.663000  0.123240  1
  O  O702  1  0.988700  0.163000  0.376760  1
  O  O703  1  0.988700  0.337000  0.876760  1
  O  O704  1  0.011300  0.837000  0.623240  1
  O  O705  1  0.953800  0.472400  0.129440  1
  O  O706  1  0.046200  0.972400  0.370560  1
  O  O707  1  0.046200  0.527600  0.870560  1
  O  O708  1  0.953800  0.027600  0.629440  1
  O  O709  1  0.779200  0.236900  0.071390  1
  O  O710  1  0.220800  0.736900  0.428610  1
  O  O711  1  0.220800  0.763100  0.928610  1
  O  O712  1  0.779200  0.263100  0.571390  1
  O  O713  1  0.091200  0.567500  0.207620  1
  O  O714  1  0.908800  0.067500  0.292380  1
  O  O715  1  0.908800  0.432500  0.792380  1
  O  O716  1  0.091200  0.932500  0.707620  1
  O  O717  1  0.303500  0.572200  0.338170  1
  O  O718  1  0.696500  0.072200  0.161830  1
  O  O719  1  0.696500  0.427800  0.661830  1
  O  O720  1  0.303500  0.927800  0.838170  1
