# generated using pymatgen
data_Mo2H60C68N4O11
_symmetry_space_group_name_H-M   'P 1'
_cell_length_a   13.91400000
_cell_length_b   14.26300000
_cell_length_c   17.48400000
_cell_angle_alpha   72.77800000
_cell_angle_beta   87.74200000
_cell_angle_gamma   67.93000000
_symmetry_Int_Tables_number   1
_chemical_formula_structural   Mo2H60C68N4O11
_chemical_formula_sum   'Mo4 H120 C136 N8 O22'
_cell_volume   3061.24252769
_cell_formula_units_Z   2
loop_
 _symmetry_equiv_pos_site_id
 _symmetry_equiv_pos_as_xyz
  1  'x, y, z'
loop_
 _atom_site_type_symbol
 _atom_site_label
 _atom_site_symmetry_multiplicity
 _atom_site_fract_x
 _atom_site_fract_y
 _atom_site_fract_z
 _atom_site_occupancy
  Mo  Mo1  1  0.282750  0.335970  0.619090  1.0
  Mo  Mo2  1  0.717250  0.664030  0.380910  1.0
  Mo  Mo3  1  0.351040  0.229370  0.733340  1.0
  Mo  Mo4  1  0.648960  0.770630  0.266660  1.0
  H  H5  1  0.606200  0.131500  0.928400  1
  H  H6  1  0.393800  0.868500  0.071600  1
  H  H7  1  0.627500  0.011300  0.982200  1
  H  H8  1  0.372500  0.988700  0.017800  1
  H  H9  1  0.763300  0.085200  0.882100  1
  H  H10  1  0.236700  0.914800  0.117900  1
  H  H11  1  0.793400  0.978200  0.956800  1
  H  H12  1  0.206600  0.021800  0.043200  1
  H  H13  1  0.789200  0.982900  0.802800  1
  H  H14  1  0.210800  0.017100  0.197200  1
  H  H15  1  0.792000  0.882600  0.877100  1
  H  H16  1  0.208000  0.117400  0.122900  1
  H  H17  1  0.546800  0.965200  0.756900  1
  H  H18  1  0.453200  0.034800  0.243100  1
  H  H19  1  0.656600  0.867100  0.779500  1
  H  H20  1  0.343400  0.132900  0.220500  1
  H  H21  1  0.647500  0.976600  0.714400  1
  H  H22  1  0.352500  0.023400  0.285600  1
  H  H23  1  0.057700  0.318800  0.514400  1
  H  H24  1  0.942300  0.681200  0.485600  1
  H  H25  1  0.991000  0.443800  0.475500  1
  H  H26  1  0.009000  0.556200  0.524500  1
  H  H27  1  0.982100  0.307300  0.407700  1
  H  H28  1  0.017900  0.692700  0.592300  1
  H  H29  1  0.966600  0.426300  0.354400  1
  H  H30  1  0.033400  0.573700  0.645600  1
  H  H31  1  0.148500  0.238800  0.377000  1
  H  H32  1  0.851500  0.761200  0.623000  1
  H  H33  1  0.109900  0.342100  0.298600  1
  H  H34  1  0.890100  0.657900  0.701400  1
  H  H35  1  0.315900  0.382500  0.392000  1
  H  H36  1  0.684100  0.617500  0.608000  1
  H  H37  1  0.279400  0.386100  0.305200  1
  H  H38  1  0.720600  0.613900  0.694800  1
  H  H39  1  0.328200  0.274800  0.374300  1
  H  H40  1  0.671800  0.725200  0.625700  1
  H  H41  1  0.557600  0.041200  0.008300  1
  H  H42  1  0.442400  0.958800  0.991700  1
  H  H43  1  0.578100  0.141300  0.949600  1
  H  H44  1  0.421900  0.858700  0.050400  1
  H  H45  1  0.517300  0.116600  0.105200  1
  H  H46  1  0.482700  0.883400  0.894800  1
  H  H47  1  0.561100  0.203400  0.053300  1
  H  H48  1  0.438900  0.796600  0.946700  1
  H  H49  1  0.362100  0.249800  0.083800  1
  H  H50  1  0.637900  0.750200  0.916200  1
  H  H51  1  0.401000  0.326000  0.012600  1
  H  H52  1  0.599000  0.674000  0.987400  1
  H  H53  1  0.230900  0.248100  0.908900  1
  H  H54  1  0.769100  0.751900  0.091100  1
  H  H55  1  0.229100  0.352900  0.926300  1
  H  H56  1  0.770900  0.647100  0.073700  1
  H  H57  1  0.206200  0.263400  0.995600  1
  H  H58  1  0.793800  0.736600  0.004400  1
  H  H59  1  0.558100  0.405800  0.502900  1.0
  H  H60  1  0.441900  0.594200  0.497100  1.0
  H  H61  1  0.721200  0.400800  0.463900  1.0
  H  H62  1  0.278800  0.599200  0.536100  1.0
  H  H63  1  0.871400  0.271400  0.539400  1.0
  H  H64  1  0.128600  0.728600  0.460600  1.0
  H  H65  1  0.694500  0.154200  0.700800  1.0
  H  H66  1  0.305500  0.845800  0.299200  1.0
  H  H67  1  0.161700  0.055300  0.712300  1.0
  H  H68  1  0.838300  0.944700  0.287700  1.0
  H  H69  1  0.295600  0.983000  0.812600  1.0
  H  H70  1  0.704400  0.017000  0.187400  1.0
  H  H71  1  0.271000  0.898500  0.942900  1.0
  H  H72  1  0.729000  0.101500  0.057100  1.0
  H  H73  1  0.974900  0.955600  0.872300  1.0
  H  H74  1  0.025100  0.044400  0.127700  1.0
  H  H75  1  0.239200  0.692700  0.187300  1.0
  H  H76  1  0.760800  0.307300  0.812700  1.0
  H  H77  1  0.221200  0.599400  0.317900  1.0
  H  H78  1  0.778800  0.400600  0.682100  1.0
  H  H79  1  0.057200  0.608800  0.358400  1.0
  H  H80  1  0.942800  0.391200  0.641600  1.0
  H  H81  1  0.926700  0.806100  0.137400  1.0
  H  H82  1  0.073300  0.193900  0.862600  1.0
  H  H83  1  0.806500  0.343100  0.341800  1.0
  H  H84  1  0.193500  0.656900  0.658200  1.0
  H  H85  1  0.828900  0.200500  0.295300  1.0
  H  H86  1  0.171100  0.799500  0.704700  1.0
  H  H87  1  0.766400  0.227800  0.167100  1.0
  H  H88  1  0.233600  0.772200  0.832900  1.0
  H  H89  1  0.661500  0.544600  0.127700  1.0
  H  H90  1  0.338500  0.455400  0.872300  1.0
  H  H91  1  0.611400  0.276700  0.931200  1.0
  H  H92  1  0.388600  0.723300  0.068800  1.0
  H  H93  1  0.556200  0.294000  0.802300  1.0
  H  H94  1  0.443800  0.706000  0.197700  1.0
  H  H95  1  0.507900  0.457700  0.702200  1.0
  H  H96  1  0.492100  0.542300  0.297800  1.0
  H  H97  1  0.569800  0.586500  0.862400  1.0
  H  H98  1  0.430200  0.413500  0.137600  1.0
  H  H99  1  0.442600  0.793100  0.509700  1.0
  H  H100  1  0.557400  0.206900  0.490300  1.0
  H  H101  1  0.383700  0.964500  0.421300  1.0
  H  H102  1  0.616300  0.035500  0.578700  1.0
  H  H103  1  0.337200  0.110400  0.469900  1.0
  H  H104  1  0.662800  0.889600  0.530100  1.0
  H  H105  1  0.412700  0.910900  0.697700  1.0
  H  H106  1  0.587300  0.089100  0.302300  1.0
  H  H107  1  0.317200  0.421900  0.367100  1.0
  H  H108  1  0.682800  0.578100  0.632900  1.0
  H  H109  1  0.350600  0.302800  0.427200  1.0
  H  H110  1  0.649400  0.697200  0.572800  1.0
  H  H111  1  0.316100  0.257500  0.323700  1.0
  H  H112  1  0.683900  0.742500  0.676300  1.0
  H  H113  1  0.260300  0.379800  0.270400  1.0
  H  H114  1  0.739700  0.620200  0.729600  1.0
  H  H115  1  0.109300  0.361800  0.292600  1.0
  H  H116  1  0.890700  0.638200  0.707400  1.0
  H  H117  1  0.164500  0.247500  0.358600  1.0
  H  H118  1  0.835500  0.752500  0.641400  1.0
  H  H119  1  0.022300  0.419700  0.482200  1.0
  H  H120  1  0.977700  0.580300  0.517800  1.0
  H  H121  1  0.019100  0.318700  0.461700  1.0
  H  H122  1  0.980900  0.681300  0.538300  1.0
  H  H123  1  0.969900  0.434100  0.397400  1.0
  H  H124  1  0.030100  0.565900  0.602600  1.0
  C  C125  1  0.576300  0.042900  0.863800  1
  C  C126  1  0.423700  0.957100  0.136200  1
  C  C127  1  0.633800  0.056500  0.928600  1
  C  C128  1  0.366200  0.943500  0.071400  1
  C  C129  1  0.745700  0.022500  0.907900  1
  C  C130  1  0.254300  0.977500  0.092100  1
  C  C131  1  0.753600  0.959400  0.850600  1
  C  C132  1  0.246400  0.040600  0.149400  1
  C  C133  1  0.622200  0.944600  0.764500  1
  C  C134  1  0.377800  0.055400  0.235500  1
  C  C135  1  0.145400  0.400000  0.448700  1
  C  C136  1  0.854600  0.600000  0.551300  1
  C  C137  1  0.046000  0.380800  0.466200  1
  C  C138  1  0.954000  0.619200  0.533800  1
  C  C139  1  0.015100  0.360100  0.392800  1
  C  C140  1  0.984900  0.639900  0.607200  1
  C  C141  1  0.117800  0.317400  0.358000  1
  C  C142  1  0.882200  0.682600  0.642000  1
  C  C143  1  0.284600  0.350400  0.363000  1
  C  C144  1  0.715400  0.649600  0.637000  1
  C  C145  1  0.423600  0.158300  0.941200  1
  C  C146  1  0.576400  0.841700  0.058800  1
  C  C147  1  0.528700  0.119600  0.985900  1
  C  C148  1  0.471300  0.880400  0.014100  1
  C  C149  1  0.510200  0.170400  0.052400  1
  C  C150  1  0.489800  0.829600  0.947600  1
  C  C151  1  0.400900  0.253600  0.035000  1
  C  C152  1  0.599100  0.746400  0.965000  1
  C  C153  1  0.246800  0.276300  0.949500  1
  C  C154  1  0.753200  0.723700  0.050500  1
  C  C155  1  0.507000  0.281000  0.630500  1.0
  C  C156  1  0.493000  0.719000  0.369500  1.0
  C  C157  1  0.611100  0.279200  0.606200  1.0
  C  C158  1  0.388900  0.720800  0.393800  1.0
  C  C159  1  0.619100  0.353500  0.534800  1.0
  C  C160  1  0.380900  0.646500  0.465200  1.0
  C  C161  1  0.715900  0.349900  0.511600  1.0
  C  C162  1  0.284100  0.650100  0.488400  1.0
  C  C163  1  0.805200  0.273500  0.556500  1.0
  C  C164  1  0.194800  0.726500  0.443500  1.0
  C  C165  1  0.798400  0.198100  0.628000  1.0
  C  C166  1  0.201600  0.801900  0.372000  1.0
  C  C167  1  0.700200  0.203300  0.652200  1.0
  C  C168  1  0.299800  0.796700  0.347800  1.0
  C  C169  1  0.891200  0.123600  0.678100  1.0
  C  C170  1  0.108800  0.876400  0.321900  1.0
  C  C171  1  0.967500  0.068800  0.723200  1.0
  C  C172  1  0.032500  0.931200  0.276800  1.0
  C  C173  1  0.054000  0.014200  0.782700  1.0
  C  C174  1  0.946000  0.985800  0.217300  1.0
  C  C175  1  0.151000  0.020800  0.765500  1.0
  C  C176  1  0.849000  0.979200  0.234500  1.0
  C  C177  1  0.230300  0.977700  0.824800  1.0
  C  C178  1  0.769700  0.022300  0.175200  1.0
  C  C179  1  0.215900  0.926800  0.902000  1.0
  C  C180  1  0.784100  0.073200  0.098000  1.0
  C  C181  1  0.120800  0.916200  0.921000  1.0
  C  C182  1  0.879200  0.083800  0.079000  1.0
  C  C183  1  0.040100  0.961200  0.860400  1.0
  C  C184  1  0.959900  0.038800  0.139600  1.0
  C  C185  1  0.107200  0.861200  0.001900  1.0
  C  C186  1  0.892800  0.138800  0.998100  1.0
  C  C187  1  0.096500  0.815300  0.068300  1.0
  C  C188  1  0.903500  0.184700  0.931700  1.0
  C  C189  1  0.084800  0.757900  0.149500  1.0
  C  C190  1  0.915200  0.242100  0.850500  1.0
  C  C191  1  0.172200  0.696500  0.203600  1.0
  C  C192  1  0.827800  0.303500  0.796400  1.0
  C  C193  1  0.161500  0.641100  0.281100  1.0
  C  C194  1  0.838500  0.358900  0.718900  1.0
  C  C195  1  0.064300  0.646400  0.305100  1.0
  C  C196  1  0.935700  0.353600  0.694900  1.0
  C  C197  1  0.977000  0.706600  0.251200  1.0
  C  C198  1  0.023000  0.293400  0.748800  1.0
  C  C199  1  0.986700  0.763500  0.173700  1.0
  C  C200  1  0.013300  0.236500  0.826300  1.0
  C  C201  1  0.872900  0.713200  0.276900  1.0
  C  C202  1  0.127100  0.286800  0.723100  1.0
  C  C203  1  0.715100  0.549300  0.268900  1.0
  C  C204  1  0.284900  0.450700  0.731100  1.0
  C  C205  1  0.732000  0.457800  0.238500  1.0
  C  C206  1  0.268000  0.542200  0.761500  1.0
  C  C207  1  0.781500  0.355100  0.288600  1.0
  C  C208  1  0.218500  0.644900  0.711400  1.0
  C  C209  1  0.794400  0.270900  0.261000  1.0
  C  C210  1  0.205600  0.729100  0.739000  1.0
  C  C211  1  0.758000  0.287100  0.184900  1.0
  C  C212  1  0.242000  0.712900  0.815100  1.0
  C  C213  1  0.709200  0.388500  0.133600  1.0
  C  C214  1  0.290800  0.611500  0.866400  1.0
  C  C215  1  0.695900  0.474200  0.162000  1.0
  C  C216  1  0.304100  0.525800  0.838000  1.0
  C  C217  1  0.669800  0.404600  0.054900  1.0
  C  C218  1  0.330200  0.595400  0.945100  1.0
  C  C219  1  0.635600  0.416900  0.988500  1.0
  C  C220  1  0.364400  0.583100  0.011500  1.0
  C  C221  1  0.597600  0.430100  0.909300  1.0
  C  C222  1  0.402400  0.569900  0.090700  1.0
  C  C223  1  0.592100  0.343500  0.890700  1.0
  C  C224  1  0.407900  0.656500  0.109300  1.0
  C  C225  1  0.559000  0.353700  0.814400  1.0
  C  C226  1  0.441000  0.646300  0.185600  1.0
  C  C227  1  0.529700  0.451000  0.755100  1.0
  C  C228  1  0.470300  0.549000  0.244900  1.0
  C  C229  1  0.532200  0.539400  0.773300  1.0
  C  C230  1  0.467800  0.460600  0.226700  1.0
  C  C231  1  0.567000  0.527000  0.850100  1.0
  C  C232  1  0.433000  0.473000  0.149900  1.0
  C  C233  1  0.496500  0.641600  0.714100  1.0
  C  C234  1  0.503500  0.358400  0.285900  1.0
  C  C235  1  0.465700  0.728700  0.667500  1.0
  C  C236  1  0.534300  0.271300  0.332500  1.0
  C  C237  1  0.430600  0.834900  0.612400  1.0
  C  C238  1  0.569400  0.165100  0.387600  1.0
  C  C239  1  0.423600  0.851900  0.530000  1.0
  C  C240  1  0.576400  0.148100  0.470000  1.0
  C  C241  1  0.389100  0.953600  0.477500  1.0
  C  C242  1  0.610900  0.046400  0.522500  1.0
  C  C243  1  0.362300  0.040400  0.506100  1.0
  C  C244  1  0.637700  0.959600  0.493900  1.0
  C  C245  1  0.372600  0.023900  0.588300  1.0
  C  C246  1  0.627400  0.976100  0.411700  1.0
  C  C247  1  0.406200  0.921700  0.641500  1.0
  C  C248  1  0.593800  0.078300  0.358500  1.0
  C  C249  1  0.349600  0.114700  0.620200  1.0
  C  C250  1  0.650400  0.885300  0.379800  1.0
  C  C251  1  0.196000  0.397000  0.432000  1.0
  C  C252  1  0.804000  0.603000  0.568000  1.0
  C  C253  1  0.293900  0.362400  0.389700  1.0
  C  C254  1  0.706100  0.637600  0.610300  1.0
  C  C255  1  0.264300  0.327800  0.323500  1.0
  C  C256  1  0.735700  0.672200  0.676500  1.0
  C  C257  1  0.159100  0.322100  0.340900  1.0
  C  C258  1  0.840900  0.677900  0.659100  1.0
  C  C259  1  0.026200  0.387200  0.439400  1.0
  C  C260  1  0.973800  0.612800  0.560600  1.0
  N  N261  1  0.645500  0.981800  0.828200  1
  N  N262  1  0.354500  0.018200  0.171800  1
  N  N263  1  0.180900  0.362000  0.389100  1
  N  N264  1  0.819100  0.638000  0.610900  1
  N  N265  1  0.357600  0.223500  0.975700  1
  N  N266  1  0.642400  0.776500  0.024300  1
  N  N267  1  0.126300  0.370900  0.405000  1.0
  N  N268  1  0.873700  0.629100  0.595000  1.0
  O  O269  1  0.483600  0.074400  0.851800  1
  O  O270  1  0.516400  0.925600  0.148200  1
  O  O271  1  0.407400  0.128600  0.887400  1
  O  O272  1  0.592600  0.871400  0.112600  1
  O  O273  1  0.427300  0.338700  0.580850  1.0
  O  O274  1  0.572700  0.661300  0.419150  1.0
  O  O275  1  0.500500  0.223800  0.700520  1.0
  O  O276  1  0.499500  0.776200  0.299480  1.0
  O  O277  1  0.865600  0.659600  0.347990  1.0
  O  O278  1  0.134400  0.340400  0.652010  1.0
  O  O279  1  0.793400  0.770100  0.226970  1.0
  O  O280  1  0.206600  0.229900  0.773030  1.0
  O  O281  1  0.743600  0.531900  0.341570  1.0
  O  O282  1  0.256400  0.468100  0.658430  1.0
  O  O283  1  0.670700  0.643700  0.221160  1.0
  O  O284  1  0.329300  0.356300  0.778840  1.0
  O  O285  1  0.306000  0.209200  0.572040  1.0
  O  O286  1  0.694000  0.790800  0.427960  1.0
  O  O287  1  0.374300  0.097000  0.693490  1.0
  O  O288  1  0.625700  0.903000  0.306510  1.0
  O  O289  1  0.185400  0.437600  0.484620  1.0
  O  O290  1  0.814600  0.562400  0.515380  1.0
