# generated using pymatgen
data_Mo2H65C63S4(NO6)2
_symmetry_space_group_name_H-M   'P 1'
_cell_length_a   18.87174868
_cell_length_b   18.87174868
_cell_length_c   21.21500000
_cell_angle_alpha   90.18656118
_cell_angle_beta   90.18656118
_cell_angle_gamma   109.18546355
_symmetry_Int_Tables_number   1
_chemical_formula_structural   Mo2H65C63S4(NO6)2
_chemical_formula_sum   'Mo8 H260 C252 S16 N8 O48'
_cell_volume   7135.82075983
_cell_formula_units_Z   4
loop_
 _symmetry_equiv_pos_site_id
 _symmetry_equiv_pos_as_xyz
  1  'x, y, z'
loop_
 _atom_site_type_symbol
 _atom_site_label
 _atom_site_symmetry_multiplicity
 _atom_site_fract_x
 _atom_site_fract_y
 _atom_site_fract_z
 _atom_site_occupancy
  C  C1  1  0.579300  0.468900  0.008400  1
  C  C2  1  0.531100  0.420700  0.491600  1
  C  C3  1  0.420700  0.531100  0.991600  1
  C  C4  1  0.468900  0.579300  0.508400  1
  C  C5  1  0.656100  0.408100  0.084800  1
  C  C6  1  0.591900  0.343900  0.415200  1
  C  C7  1  0.343900  0.591900  0.915200  1
  C  C8  1  0.408100  0.656100  0.584800  1
  C  C9  1  0.610600  0.680200  0.939600  1
  C  C10  1  0.319800  0.389400  0.560400  1
  C  C11  1  0.389400  0.319800  0.060400  1
  C  C12  1  0.680200  0.610600  0.439600  1
  C  C13  1  0.657000  0.639400  0.832700  1
  C  C14  1  0.360600  0.343000  0.667300  1
  C  C15  1  0.343000  0.360600  0.167300  1
  C  C16  1  0.639400  0.657000  0.332700  1
  C  C17  1  0.491400  0.898400  0.054300  1
  C  C18  1  0.101600  0.508600  0.445700  1
  C  C19  1  0.508600  0.101600  0.945700  1
  C  C20  1  0.898400  0.491400  0.554300  1
  C  C21  1  0.861100  0.063700  0.015400  1.0
  C  C22  1  0.936300  0.138900  0.484600  1.0
  C  C23  1  0.138900  0.936300  0.984600  1.0
  C  C24  1  0.063700  0.861100  0.515400  1.0
  C  C25  1  0.905300  0.137500  0.991900  1.0
  C  C26  1  0.862500  0.094700  0.508100  1.0
  C  C27  1  0.094700  0.862500  0.008100  1.0
  C  C28  1  0.137500  0.905300  0.491900  1.0
  C  C29  1  0.984100  0.160700  0.993600  1.0
  C  C30  1  0.839300  0.015900  0.506400  1.0
  C  C31  1  0.015900  0.839300  0.006400  1.0
  C  C32  1  0.160700  0.984100  0.493600  1.0
  C  C33  1  0.024800  0.230800  0.972000  1.0
  C  C34  1  0.769200  0.975200  0.528000  1.0
  C  C35  1  0.975200  0.769200  0.028000  1.0
  C  C36  1  0.230800  0.024800  0.472000  1.0
  C  C37  1  0.990100  0.278500  0.947200  1.0
  C  C38  1  0.721500  0.009900  0.552800  1.0
  C  C39  1  0.009900  0.721500  0.052800  1.0
  C  C40  1  0.278500  0.990100  0.447200  1.0
  C  C41  1  0.911700  0.254900  0.944200  1.0
  C  C42  1  0.745100  0.088300  0.555800  1.0
  C  C43  1  0.088300  0.745100  0.055800  1.0
  C  C44  1  0.254900  0.911700  0.444200  1.0
  C  C45  1  0.869300  0.185100  0.966700  1.0
  C  C46  1  0.814900  0.130700  0.533300  1.0
  C  C47  1  0.130700  0.814900  0.033300  1.0
  C  C48  1  0.185100  0.869300  0.466700  1.0
  C  C49  1  0.874100  0.302100  0.915700  1.0
  C  C50  1  0.697900  0.125900  0.584300  1.0
  C  C51  1  0.125900  0.697900  0.084300  1.0
  C  C52  1  0.302100  0.874100  0.415700  1.0
  C  C53  1  0.843500  0.339900  0.888700  1.0
  C  C54  1  0.660100  0.156500  0.611300  1.0
  C  C55  1  0.156500  0.660100  0.111300  1.0
  C  C56  1  0.339900  0.843500  0.388700  1.0
  C  C57  1  0.807200  0.382800  0.856100  1.0
  C  C58  1  0.617200  0.192800  0.643900  1.0
  C  C59  1  0.192800  0.617200  0.143900  1.0
  C  C60  1  0.382800  0.807200  0.356100  1.0
  C  C61  1  0.848000  0.439400  0.814500  1.0
  C  C62  1  0.560600  0.152000  0.685500  1.0
  C  C63  1  0.152000  0.560600  0.185500  1.0
  C  C64  1  0.439400  0.848000  0.314500  1.0
  C  C65  1  0.814867  0.481533  0.781200  1.0
  C  C66  1  0.518467  0.185133  0.718800  1.0
  C  C67  1  0.185133  0.518467  0.218800  1.0
  C  C68  1  0.481533  0.814867  0.281200  1.0
  C  C69  1  0.738300  0.466900  0.788800  1.0
  C  C70  1  0.533100  0.261700  0.711200  1.0
  C  C71  1  0.261700  0.533100  0.211200  1.0
  C  C72  1  0.466900  0.738300  0.288800  1.0
  C  C73  1  0.695900  0.411900  0.829400  1.0
  C  C74  1  0.588100  0.304100  0.670600  1.0
  C  C75  1  0.304100  0.588100  0.170600  1.0
  C  C76  1  0.411900  0.695900  0.329400  1.0
  C  C77  1  0.729400  0.366000  0.862200  1.0
  C  C78  1  0.634000  0.270600  0.637800  1.0
  C  C79  1  0.270600  0.634000  0.137800  1.0
  C  C80  1  0.366000  0.729400  0.362200  1.0
  C  C81  1  0.849530  0.537270  0.728300  1.0
  C  C82  1  0.462730  0.150470  0.771700  1.0
  C  C83  1  0.150470  0.462730  0.271700  1.0
  C  C84  1  0.537270  0.849530  0.228300  1.0
  C  C85  1  0.931420  0.542980  0.717800  1.0
  C  C86  1  0.457020  0.068580  0.782200  1.0
  C  C87  1  0.068580  0.457020  0.282200  1.0
  C  C88  1  0.542980  0.931420  0.217800  1.0
  C  C89  1  0.846380  0.615220  0.745000  1.0
  C  C90  1  0.384780  0.153620  0.755000  1.0
  C  C91  1  0.153620  0.384780  0.255000  1.0
  C  C92  1  0.615220  0.846380  0.245000  1.0
  C  C93  1  0.617900  0.400900  0.838100  1.0
  C  C94  1  0.599100  0.382100  0.661900  1.0
  C  C95  1  0.382100  0.599100  0.161900  1.0
  C  C96  1  0.400900  0.617900  0.338100  1.0
  C  C97  1  0.553300  0.391700  0.846600  1.0
  C  C98  1  0.608300  0.446700  0.653400  1.0
  C  C99  1  0.446700  0.608300  0.153400  1.0
  C  C100  1  0.391700  0.553300  0.346600  1.0
  C  C101  1  0.474500  0.375900  0.854100  1.0
  C  C102  1  0.624100  0.525500  0.645900  1.0
  C  C103  1  0.525500  0.624100  0.145900  1.0
  C  C104  1  0.375900  0.474500  0.354100  1.0
  C  C105  1  0.432100  0.306100  0.879700  1.0
  C  C106  1  0.693900  0.567900  0.620300  1.0
  C  C107  1  0.567900  0.693900  0.120300  1.0
  C  C108  1  0.306100  0.432100  0.379700  1.0
  C  C109  1  0.354960  0.287640  0.884100  1.0
  C  C110  1  0.712360  0.645040  0.615900  1.0
  C  C111  1  0.645040  0.712360  0.115900  1.0
  C  C112  1  0.287640  0.354960  0.384100  1.0
  C  C113  1  0.320100  0.338500  0.865800  1.0
  C  C114  1  0.661500  0.679900  0.634200  1.0
  C  C115  1  0.679900  0.661500  0.134200  1.0
  C  C116  1  0.338500  0.320100  0.365800  1.0
  C  C117  1  0.363100  0.407100  0.842600  1.0
  C  C118  1  0.592900  0.636900  0.657400  1.0
  C  C119  1  0.636900  0.592900  0.157400  1.0
  C  C120  1  0.407100  0.363100  0.342600  1.0
  C  C121  1  0.439300  0.425900  0.836400  1.0
  C  C122  1  0.574100  0.560700  0.663600  1.0
  C  C123  1  0.560700  0.574100  0.163600  1.0
  C  C124  1  0.425900  0.439300  0.336400  1.0
  C  C125  1  0.309370  0.211230  0.904500  1.0
  C  C126  1  0.788770  0.690630  0.595500  1.0
  C  C127  1  0.690630  0.788770  0.095500  1.0
  C  C128  1  0.211230  0.309370  0.404500  1.0
  C  C129  1  0.776700  0.872100  0.939700  1.0
  C  C130  1  0.127900  0.223300  0.560300  1.0
  C  C131  1  0.223300  0.127900  0.060300  1.0
  C  C132  1  0.872100  0.776700  0.439700  1.0
  C  C133  1  0.779270  0.845930  0.874500  1.0
  C  C134  1  0.154070  0.220730  0.625500  1.0
  C  C135  1  0.220730  0.154070  0.125500  1.0
  C  C136  1  0.845930  0.779270  0.374500  1.0
  C  C137  1  0.833400  0.816800  0.854200  1.0
  C  C138  1  0.183200  0.166600  0.645800  1.0
  C  C139  1  0.166600  0.183200  0.145800  1.0
  C  C140  1  0.816800  0.833400  0.354200  1.0
  C  C141  1  0.836600  0.797400  0.792800  1.0
  C  C142  1  0.202600  0.163400  0.707200  1.0
  C  C143  1  0.163400  0.202600  0.207200  1.0
  C  C144  1  0.797400  0.836600  0.292800  1.0
  C  C145  1  0.786000  0.806400  0.748500  1.0
  C  C146  1  0.193600  0.214000  0.751500  1.0
  C  C147  1  0.214000  0.193600  0.251500  1.0
  C  C148  1  0.806400  0.786000  0.248500  1.0
  C  C149  1  0.728900  0.833900  0.768500  1.0
  C  C150  1  0.166100  0.271100  0.731500  1.0
  C  C151  1  0.271100  0.166100  0.231500  1.0
  C  C152  1  0.833900  0.728900  0.268500  1.0
  C  C153  1  0.725900  0.853100  0.831300  1.0
  C  C154  1  0.146900  0.274100  0.668700  1.0
  C  C155  1  0.274100  0.146900  0.168700  1.0
  C  C156  1  0.853100  0.725900  0.331300  1.0
  C  C157  1  0.674900  0.842100  0.724400  1.0
  C  C158  1  0.157900  0.325100  0.775600  1.0
  C  C159  1  0.325100  0.157900  0.275600  1.0
  C  C160  1  0.842100  0.674900  0.224400  1.0
  C  C161  1  0.629800  0.847600  0.686700  1.0
  C  C162  1  0.152400  0.370200  0.813300  1.0
  C  C163  1  0.370200  0.152400  0.313300  1.0
  C  C164  1  0.847600  0.629800  0.186700  1.0
  C  C165  1  0.575100  0.854300  0.642800  1.0
  C  C166  1  0.145700  0.424900  0.857200  1.0
  C  C167  1  0.424900  0.145700  0.357200  1.0
  C  C168  1  0.854300  0.575100  0.142800  1.0
  C  C169  1  0.581500  0.840700  0.579100  1.0
  C  C170  1  0.159300  0.418500  0.920900  1.0
  C  C171  1  0.418500  0.159300  0.420900  1.0
  C  C172  1  0.840700  0.581500  0.079100  1.0
  C  C173  1  0.531900  0.848100  0.534600  1.0
  C  C174  1  0.151900  0.468100  0.965400  1.0
  C  C175  1  0.468100  0.151900  0.465400  1.0
  C  C176  1  0.848100  0.531900  0.034600  1.0
  C  C177  1  0.470700  0.866500  0.555800  1.0
  C  C178  1  0.133500  0.529300  0.944200  1.0
  C  C179  1  0.529300  0.133500  0.444200  1.0
  C  C180  1  0.866500  0.470700  0.055800  1.0
  C  C181  1  0.461200  0.879800  0.619400  1.0
  C  C182  1  0.120200  0.538800  0.880600  1.0
  C  C183  1  0.538800  0.120200  0.380600  1.0
  C  C184  1  0.879800  0.461200  0.119400  1.0
  C  C185  1  0.514700  0.875100  0.664600  1.0
  C  C186  1  0.124900  0.485300  0.835400  1.0
  C  C187  1  0.485300  0.124900  0.335400  1.0
  C  C188  1  0.875100  0.514700  0.164600  1.0
  C  C189  1  0.542200  0.841000  0.463700  1.0
  C  C190  1  0.159000  0.457800  0.036300  1.0
  C  C191  1  0.457800  0.159000  0.536300  1.0
  C  C192  1  0.841000  0.542200  0.963700  1.0
  C  C193  1  0.593200  0.797000  0.447200  1.0
  C  C194  1  0.203000  0.406800  0.052800  1.0
  C  C195  1  0.406800  0.203000  0.552800  1.0
  C  C196  1  0.797000  0.593200  0.947200  1.0
  C  C197  1  0.569000  0.918400  0.433100  1.0
  C  C198  1  0.081600  0.431000  0.066900  1.0
  C  C199  1  0.431000  0.081600  0.566900  1.0
  C  C200  1  0.918400  0.569000  0.933100  1.0
  C  C201  1  0.398300  0.900300  0.640700  1.0
  C  C202  1  0.099700  0.601700  0.859300  1.0
  C  C203  1  0.601700  0.099700  0.359300  1.0
  C  C204  1  0.900300  0.398300  0.140700  1.0
  C  C205  1  0.346800  0.915800  0.659100  1.0
  C  C206  1  0.084200  0.653200  0.840900  1.0
  C  C207  1  0.653200  0.084200  0.340900  1.0
  C  C208  1  0.915800  0.346800  0.159100  1.0
  C  C209  1  0.283400  0.936200  0.680400  1.0
  C  C210  1  0.063800  0.716600  0.819600  1.0
  C  C211  1  0.716600  0.063800  0.319600  1.0
  C  C212  1  0.936200  0.283400  0.180400  1.0
  C  C213  1  0.280300  0.958900  0.742500  1.0
  C  C214  1  0.041100  0.719700  0.757500  1.0
  C  C215  1  0.719700  0.041100  0.257500  1.0
  C  C216  1  0.958900  0.280300  0.242500  1.0
  C  C217  1  0.220600  0.980200  0.761900  1.0
  C  C218  1  0.019800  0.779400  0.738100  1.0
  C  C219  1  0.779400  0.019800  0.238100  1.0
  C  C220  1  0.980200  0.220600  0.261900  1.0
  C  C221  1  0.161700  0.975500  0.719800  1.0
  C  C222  1  0.024500  0.838300  0.780200  1.0
  C  C223  1  0.838300  0.024500  0.280200  1.0
  C  C224  1  0.975500  0.161700  0.219800  1.0
  C  C225  1  0.165300  0.952100  0.658900  1.0
  C  C226  1  0.047900  0.834700  0.841100  1.0
  C  C227  1  0.834700  0.047900  0.341100  1.0
  C  C228  1  0.952100  0.165300  0.158900  1.0
  C  C229  1  0.225200  0.933400  0.638500  1.0
  C  C230  1  0.066600  0.774800  0.861500  1.0
  C  C231  1  0.774800  0.066600  0.361500  1.0
  C  C232  1  0.933400  0.225200  0.138500  1.0
  C  C233  1  0.221500  0.012300  0.826000  1.0
  C  C234  1  0.987700  0.778500  0.674000  1.0
  C  C235  1  0.778500  0.987700  0.174000  1.0
  C  C236  1  0.012300  0.221500  0.326000  1.0
  C  C237  1  0.059300  0.988300  0.141500  1.0
  C  C238  1  0.011700  0.940700  0.358500  1.0
  C  C239  1  0.940700  0.011700  0.858500  1.0
  C  C240  1  0.988300  0.059300  0.641500  1.0
  C  C241  1  0.018500  0.848100  0.183100  1.0
  C  C242  1  0.151900  0.981500  0.316900  1.0
  C  C243  1  0.981500  0.151900  0.816900  1.0
  C  C244  1  0.848100  0.018500  0.683100  1.0
  C  C245  1  0.538290  0.840710  0.952900  1.0
  C  C246  1  0.159290  0.461710  0.547100  1.0
  C  C247  1  0.461710  0.159290  0.047100  1.0
  C  C248  1  0.840710  0.538290  0.452900  1.0
  C  C249  1  0.566100  0.983500  0.915900  1.0
  C  C250  1  0.016500  0.433900  0.584100  1.0
  C  C251  1  0.433900  0.016500  0.084100  1.0
  C  C252  1  0.983500  0.566100  0.415900  1.0
  H  H253  1  0.559600  0.474400  0.966600  1
  H  H254  1  0.525600  0.440400  0.533400  1
  H  H255  1  0.440400  0.525600  0.033400  1
  H  H256  1  0.474400  0.559600  0.466600  1
  H  H257  1  0.613000  0.517600  0.023000  1
  H  H258  1  0.482400  0.387000  0.477000  1
  H  H259  1  0.387000  0.482400  0.977000  1
  H  H260  1  0.517600  0.613000  0.523000  1
  H  H261  1  0.537500  0.450300  0.038000  1
  H  H262  1  0.549700  0.462500  0.462000  1
  H  H263  1  0.462500  0.549700  0.962000  1
  H  H264  1  0.450300  0.537500  0.538000  1
  H  H265  1  0.683800  0.373000  0.091800  1
  H  H266  1  0.627000  0.316200  0.408200  1
  H  H267  1  0.316200  0.627000  0.908200  1
  H  H268  1  0.373000  0.683800  0.591800  1
  H  H269  1  0.611300  0.394100  0.111400  1
  H  H270  1  0.605900  0.388700  0.388600  1
  H  H271  1  0.388700  0.605900  0.888600  1
  H  H272  1  0.394100  0.611300  0.611400  1
  H  H273  1  0.688300  0.459100  0.095600  1
  H  H274  1  0.540900  0.311700  0.404400  1
  H  H275  1  0.311700  0.540900  0.904400  1
  H  H276  1  0.459100  0.688300  0.595600  1
  H  H277  1  0.575500  0.697900  0.963900  1
  H  H278  1  0.302100  0.424500  0.536100  1
  H  H279  1  0.424500  0.302100  0.036100  1
  H  H280  1  0.697900  0.575500  0.463900  1
  H  H281  1  0.661300  0.716300  0.943800  1
  H  H282  1  0.283700  0.338700  0.556200  1
  H  H283  1  0.338700  0.283700  0.056200  1
  H  H284  1  0.716300  0.661300  0.443800  1
  H  H285  1  0.609900  0.631300  0.955700  1
  H  H286  1  0.368700  0.390100  0.544300  1
  H  H287  1  0.390100  0.368700  0.044300  1
  H  H288  1  0.631300  0.609900  0.455700  1
  H  H289  1  0.651600  0.631200  0.787000  1
  H  H290  1  0.368800  0.348400  0.713000  1
  H  H291  1  0.348400  0.368800  0.213000  1
  H  H292  1  0.631200  0.651600  0.287000  1
  H  H293  1  0.653800  0.592200  0.853600  1
  H  H294  1  0.407800  0.346200  0.646400  1
  H  H295  1  0.346200  0.407800  0.146400  1
  H  H296  1  0.592200  0.653800  0.353600  1
  H  H297  1  0.705700  0.677300  0.842100  1
  H  H298  1  0.322700  0.294300  0.657900  1
  H  H299  1  0.294300  0.322700  0.157900  1
  H  H300  1  0.677300  0.705700  0.342100  1
  H  H301  1  0.487000  0.942200  0.076900  1
  H  H302  1  0.057800  0.513000  0.423100  1
  H  H303  1  0.513000  0.057800  0.923100  1
  H  H304  1  0.942200  0.487000  0.576900  1
  H  H305  1  0.520100  0.874300  0.080000  1
  H  H306  1  0.125700  0.479900  0.420000  1
  H  H307  1  0.479900  0.125700  0.920000  1
  H  H308  1  0.874300  0.520100  0.580000  1
  H  H309  1  0.441200  0.862800  0.046100  1
  H  H310  1  0.137200  0.558800  0.453900  1
  H  H311  1  0.558800  0.137200  0.953900  1
  H  H312  1  0.862800  0.441200  0.546100  1
  H  H313  1  0.709100  0.281100  0.919100  1.0
  H  H314  1  0.718900  0.290900  0.580900  1.0
  H  H315  1  0.290900  0.718900  0.080900  1.0
  H  H316  1  0.281100  0.709100  0.419100  1.0
  H  H317  1  0.638900  0.299700  0.901400  1.0
  H  H318  1  0.700300  0.361100  0.598600  1.0
  H  H319  1  0.361100  0.700300  0.098600  1.0
  H  H320  1  0.299700  0.638900  0.401400  1.0
  H  H321  1  0.541100  0.888500  0.754300  1.0
  H  H322  1  0.111500  0.458900  0.745700  1.0
  H  H323  1  0.458900  0.111500  0.245700  1.0
  H  H324  1  0.888500  0.541100  0.254300  1.0
  H  H325  1  0.468800  0.904000  0.738800  1.0
  H  H326  1  0.096000  0.531200  0.761200  1.0
  H  H327  1  0.531200  0.096000  0.261200  1.0
  H  H328  1  0.904000  0.468800  0.238800  1.0
  H  H329  1  0.009000  0.128200  0.009500  1.0
  H  H330  1  0.871800  0.991000  0.490500  1.0
  H  H331  1  0.991000  0.871800  0.990500  1.0
  H  H332  1  0.128200  0.009000  0.509500  1.0
  H  H333  1  0.078000  0.246800  0.974200  1.0
  H  H334  1  0.753200  0.922000  0.525800  1.0
  H  H335  1  0.922000  0.753200  0.025800  1.0
  H  H336  1  0.246800  0.078000  0.474200  1.0
  H  H337  1  0.019000  0.326800  0.932400  1.0
  H  H338  1  0.673200  0.981000  0.567600  1.0
  H  H339  1  0.981000  0.673200  0.067600  1.0
  H  H340  1  0.326800  0.019000  0.432400  1.0
  H  H341  1  0.816100  0.169700  0.965100  1.0
  H  H342  1  0.830300  0.183900  0.534900  1.0
  H  H343  1  0.183900  0.830300  0.034900  1.0
  H  H344  1  0.169700  0.816100  0.465100  1.0
  H  H345  1  0.900200  0.448400  0.809600  1.0
  H  H346  1  0.551600  0.099800  0.690400  1.0
  H  H347  1  0.099800  0.551600  0.190400  1.0
  H  H348  1  0.448400  0.900200  0.309600  1.0
  H  H349  1  0.714400  0.495400  0.765400  1.0
  H  H350  1  0.504600  0.285600  0.734600  1.0
  H  H351  1  0.285600  0.504600  0.234600  1.0
  H  H352  1  0.495400  0.714400  0.265400  1.0
  H  H353  1  0.820400  0.519000  0.688700  1.0
  H  H354  1  0.481000  0.179600  0.811300  1.0
  H  H355  1  0.179600  0.481000  0.311300  1.0
  H  H356  1  0.519000  0.820400  0.188700  1.0
  H  H357  1  0.960100  0.559900  0.756900  1.0
  H  H358  1  0.440100  0.039900  0.743100  1.0
  H  H359  1  0.039900  0.440100  0.243100  1.0
  H  H360  1  0.559900  0.960100  0.256900  1.0
  H  H361  1  0.952800  0.579000  0.684200  1.0
  H  H362  1  0.421000  0.047200  0.815800  1.0
  H  H363  1  0.047200  0.421000  0.315800  1.0
  H  H364  1  0.579000  0.952800  0.184200  1.0
  H  H365  1  0.933900  0.493700  0.705800  1.0
  H  H366  1  0.506300  0.066100  0.794200  1.0
  H  H367  1  0.066100  0.506300  0.294200  1.0
  H  H368  1  0.493700  0.933900  0.205800  1.0
  H  H369  1  0.869900  0.650500  0.711300  1.0
  H  H370  1  0.349500  0.130100  0.788700  1.0
  H  H371  1  0.130100  0.349500  0.288700  1.0
  H  H372  1  0.650500  0.869900  0.211300  1.0
  H  H373  1  0.873200  0.632400  0.784700  1.0
  H  H374  1  0.367600  0.126800  0.715300  1.0
  H  H375  1  0.126800  0.367600  0.215300  1.0
  H  H376  1  0.632400  0.873200  0.284700  1.0
  H  H377  1  0.793900  0.612700  0.749600  1.0
  H  H378  1  0.387300  0.206100  0.750400  1.0
  H  H379  1  0.206100  0.387300  0.250400  1.0
  H  H380  1  0.612700  0.793900  0.249600  1.0
  H  H381  1  0.456200  0.272000  0.893700  1.0
  H  H382  1  0.728000  0.543800  0.606300  1.0
  H  H383  1  0.543800  0.728000  0.106300  1.0
  H  H384  1  0.272000  0.456200  0.393700  1.0
  H  H385  1  0.267200  0.326200  0.869300  1.0
  H  H386  1  0.673800  0.732800  0.630700  1.0
  H  H387  1  0.732800  0.673800  0.130700  1.0
  H  H388  1  0.326200  0.267200  0.369300  1.0
  H  H389  1  0.339400  0.442200  0.830600  1.0
  H  H390  1  0.557800  0.660600  0.669400  1.0
  H  H391  1  0.660600  0.557800  0.169400  1.0
  H  H392  1  0.442200  0.339400  0.330600  1.0
  H  H393  1  0.467600  0.473400  0.819900  1.0
  H  H394  1  0.526600  0.532400  0.680100  1.0
  H  H395  1  0.532400  0.526600  0.180100  1.0
  H  H396  1  0.473400  0.467600  0.319900  1.0
  H  H397  1  0.868900  0.810300  0.883400  1.0
  H  H398  1  0.189700  0.131100  0.616600  1.0
  H  H399  1  0.131100  0.189700  0.116600  1.0
  H  H400  1  0.810300  0.868900  0.383400  1.0
  H  H401  1  0.874300  0.777300  0.780000  1.0
  H  H402  1  0.222700  0.125700  0.720000  1.0
  H  H403  1  0.125700  0.222700  0.220000  1.0
  H  H404  1  0.777300  0.874300  0.280000  1.0
  H  H405  1  0.789900  0.794300  0.705500  1.0
  H  H406  1  0.205700  0.210100  0.794500  1.0
  H  H407  1  0.210100  0.205700  0.294500  1.0
  H  H408  1  0.794300  0.789900  0.205500  1.0
  H  H409  1  0.687200  0.871200  0.845200  1.0
  H  H410  1  0.128800  0.312800  0.654800  1.0
  H  H411  1  0.312800  0.128800  0.154800  1.0
  H  H412  1  0.871200  0.687200  0.345200  1.0
  H  H413  1  0.622400  0.825600  0.565800  1.0
  H  H414  1  0.174400  0.377600  0.934200  1.0
  H  H415  1  0.377600  0.174400  0.434200  1.0
  H  H416  1  0.825600  0.622400  0.065800  1.0
  H  H417  1  0.434200  0.870200  0.526200  1.0
  H  H418  1  0.129800  0.565800  0.973800  1.0
  H  H419  1  0.565800  0.129800  0.473800  1.0
  H  H420  1  0.870200  0.434200  0.026200  1.0
  H  H421  1  0.491700  0.813300  0.445500  1.0
  H  H422  1  0.186700  0.508300  0.054500  1.0
  H  H423  1  0.508300  0.186700  0.554500  1.0
  H  H424  1  0.813300  0.491700  0.945500  1.0
  H  H425  1  0.593700  0.790700  0.401400  1.0
  H  H426  1  0.209300  0.406300  0.098600  1.0
  H  H427  1  0.406300  0.209300  0.598600  1.0
  H  H428  1  0.790700  0.593700  0.901400  1.0
  H  H429  1  0.574800  0.747600  0.467300  1.0
  H  H430  1  0.252400  0.425200  0.032700  1.0
  H  H431  1  0.425200  0.252400  0.532700  1.0
  H  H432  1  0.747600  0.574800  0.967300  1.0
  H  H433  1  0.644000  0.824000  0.462300  1.0
  H  H434  1  0.176000  0.356000  0.037700  1.0
  H  H435  1  0.356000  0.176000  0.537700  1.0
  H  H436  1  0.824000  0.644000  0.962300  1.0
  H  H437  1  0.580100  0.913300  0.388600  1.0
  H  H438  1  0.086700  0.419900  0.111400  1.0
  H  H439  1  0.419900  0.086700  0.611400  1.0
  H  H440  1  0.913300  0.580100  0.888600  1.0
  H  H441  1  0.614500  0.950100  0.454700  1.0
  H  H442  1  0.049900  0.385500  0.045300  1.0
  H  H443  1  0.385500  0.049900  0.545300  1.0
  H  H444  1  0.950100  0.614500  0.954700  1.0
  H  H445  1  0.529700  0.941700  0.436500  1.0
  H  H446  1  0.058300  0.470300  0.063500  1.0
  H  H447  1  0.470300  0.058300  0.563500  1.0
  H  H448  1  0.941700  0.529700  0.936500  1.0
  H  H449  1  0.319200  0.959800  0.771400  1.0
  H  H450  1  0.040200  0.680800  0.728600  1.0
  H  H451  1  0.680800  0.040200  0.228600  1.0
  H  H452  1  0.959800  0.319200  0.271400  1.0
  H  H453  1  0.119600  0.988400  0.733400  1.0
  H  H454  1  0.011600  0.880400  0.766600  1.0
  H  H455  1  0.880400  0.011600  0.266600  1.0
  H  H456  1  0.988400  0.119600  0.233400  1.0
  H  H457  1  0.125200  0.948800  0.630600  1.0
  H  H458  1  0.051200  0.874800  0.869400  1.0
  H  H459  1  0.874800  0.051200  0.369400  1.0
  H  H460  1  0.948800  0.125200  0.130600  1.0
  H  H461  1  0.227600  0.918600  0.595900  1.0
  H  H462  1  0.081400  0.772400  0.904100  1.0
  H  H463  1  0.772400  0.081400  0.404100  1.0
  H  H464  1  0.918600  0.227600  0.095900  1.0
  H  H465  1  0.046100  0.033100  0.131800  1.0
  H  H466  1  0.966900  0.953900  0.368200  1.0
  H  H467  1  0.953900  0.966900  0.868200  1.0
  H  H468  1  0.033100  0.046100  0.631800  1.0
  H  H469  1  0.076900  0.970300  0.103200  1.0
  H  H470  1  0.029700  0.923100  0.396800  1.0
  H  H471  1  0.923100  0.029700  0.896800  1.0
  H  H472  1  0.970300  0.076900  0.603200  1.0
  H  H473  1  0.099000  0.000600  0.173500  1.0
  H  H474  1  0.999400  0.901000  0.326500  1.0
  H  H475  1  0.901000  0.999400  0.826500  1.0
  H  H476  1  0.000600  0.099000  0.673500  1.0
  H  H477  1  0.979900  0.803700  0.199600  1.0
  H  H478  1  0.196300  0.020100  0.300400  1.0
  H  H479  1  0.020100  0.196300  0.800400  1.0
  H  H480  1  0.803700  0.979900  0.699600  1.0
  H  H481  1  0.059600  0.865600  0.213800  1.0
  H  H482  1  0.134400  0.940400  0.286200  1.0
  H  H483  1  0.940400  0.134400  0.786200  1.0
  H  H484  1  0.865600  0.059600  0.713800  1.0
  H  H485  1  0.037800  0.835400  0.143400  1.0
  H  H486  1  0.164600  0.962200  0.356600  1.0
  H  H487  1  0.962200  0.164600  0.856600  1.0
  H  H488  1  0.835400  0.037800  0.643400  1.0
  H  H489  1  0.562400  0.848200  0.911400  1.0
  H  H490  1  0.151800  0.437600  0.588600  1.0
  H  H491  1  0.437600  0.151800  0.088600  1.0
  H  H492  1  0.848200  0.562400  0.411400  1.0
  H  H493  1  0.486700  0.806500  0.948700  1.0
  H  H494  1  0.193500  0.513300  0.551300  1.0
  H  H495  1  0.513300  0.193500  0.051300  1.0
  H  H496  1  0.806500  0.486700  0.448700  1.0
  H  H497  1  0.566300  0.819100  0.981700  1.0
  H  H498  1  0.180900  0.433700  0.518300  1.0
  H  H499  1  0.433700  0.180900  0.018300  1.0
  H  H500  1  0.819100  0.566300  0.481700  1.0
  H  H501  1  0.568200  0.034800  0.925800  1.0
  H  H502  1  0.965200  0.431800  0.574200  1.0
  H  H503  1  0.431800  0.965200  0.074200  1.0
  H  H504  1  0.034800  0.568200  0.425800  1.0
  H  H505  1  0.530100  0.963500  0.881500  1.0
  H  H506  1  0.036500  0.469900  0.618500  1.0
  H  H507  1  0.469900  0.036500  0.118500  1.0
  H  H508  1  0.963500  0.530100  0.381500  1.0
  H  H509  1  0.615800  0.983400  0.902900  1.0
  H  H510  1  0.016600  0.384200  0.597100  1.0
  H  H511  1  0.384200  0.016600  0.097100  1.0
  H  H512  1  0.983400  0.615800  0.402900  1.0
  Mo  Mo513  1  0.824630  0.914530  0.067740  1.0
  Mo  Mo514  1  0.085470  0.175370  0.432260  1.0
  Mo  Mo515  1  0.175370  0.085470  0.932260  1.0
  Mo  Mo516  1  0.914530  0.824630  0.567740  1.0
  Mo  Mo517  1  0.726647  0.940233  0.046940  1.0
  Mo  Mo518  1  0.059767  0.273353  0.453060  1.0
  Mo  Mo519  1  0.273353  0.059767  0.953060  1.0
  Mo  Mo520  1  0.940233  0.726647  0.546940  1.0
  N  N521  1  0.687600  0.309000  0.898400  1.0
  N  N522  1  0.691000  0.312400  0.601600  1.0
  N  N523  1  0.312400  0.691000  0.101600  1.0
  N  N524  1  0.309000  0.687600  0.398400  1.0
  N  N525  1  0.507310  0.891090  0.726600  1.0
  N  N526  1  0.108910  0.492690  0.773400  1.0
  N  N527  1  0.492690  0.108910  0.273400  1.0
  N  N528  1  0.891090  0.507310  0.226600  1.0
  O  O529  1  0.570400  0.328600  0.994300  1
  O  O530  1  0.671400  0.429600  0.505700  1
  O  O531  1  0.429600  0.671400  0.005700  1
  O  O532  1  0.328600  0.570400  0.494300  1
  O  O533  1  0.515000  0.606600  0.855900  1
  O  O534  1  0.393400  0.485000  0.644100  1
  O  O535  1  0.485000  0.393400  0.144100  1
  O  O536  1  0.606600  0.515000  0.355900  1
  O  O537  1  0.893190  0.019630  0.036390  1.0
  O  O538  1  0.980370  0.106810  0.463610  1.0
  O  O539  1  0.106810  0.980370  0.963610  1.0
  O  O540  1  0.019630  0.893190  0.536390  1.0
  O  O541  1  0.789130  0.046470  0.014080  1.0
  O  O542  1  0.953530  0.210870  0.485920  1.0
  O  O543  1  0.210870  0.953530  0.985920  1.0
  O  O544  1  0.046470  0.789130  0.514080  1.0
  O  O545  1  0.238440  0.193760  0.902240  1.0
  O  O546  1  0.806240  0.761560  0.597760  1.0
  O  O547  1  0.761560  0.806240  0.097760  1.0
  O  O548  1  0.193760  0.238440  0.402240  1.0
  O  O549  1  0.342270  0.166410  0.923660  1.0
  O  O550  1  0.833590  0.657730  0.576340  1.0
  O  O551  1  0.657730  0.833590  0.076340  1.0
  O  O552  1  0.166410  0.342270  0.423660  1.0
  O  O553  1  0.828520  0.870440  0.977790  1.0
  O  O554  1  0.129560  0.171480  0.522210  1.0
  O  O555  1  0.171480  0.129560  0.022210  1.0
  O  O556  1  0.870440  0.828520  0.477790  1.0
  O  O557  1  0.724960  0.897200  0.954900  1.0
  O  O558  1  0.102800  0.275040  0.545100  1.0
  O  O559  1  0.275040  0.102800  0.045100  1.0
  O  O560  1  0.897200  0.724960  0.454900  1.0
  O  O561  1  0.170710  0.038530  0.840650  1.0
  O  O562  1  0.961470  0.829290  0.659350  1.0
  O  O563  1  0.829290  0.961470  0.159350  1.0
  O  O564  1  0.038530  0.170710  0.340650  1.0
  O  O565  1  0.274340  0.012320  0.863410  1.0
  O  O566  1  0.987680  0.725660  0.636590  1.0
  O  O567  1  0.725660  0.987680  0.136590  1.0
  O  O568  1  0.012320  0.274340  0.363410  1.0
  O  O569  1  0.930600  0.888800  0.113800  1.0
  O  O570  1  0.111200  0.069400  0.386200  1.0
  O  O571  1  0.069400  0.111200  0.886200  1.0
  O  O572  1  0.888800  0.930600  0.613800  1.0
  O  O573  1  0.610470  0.965130  0.013900  1.0
  O  O574  1  0.034870  0.389530  0.486100  1.0
  O  O575  1  0.389530  0.034870  0.986100  1.0
  O  O576  1  0.965130  0.610470  0.513900  1.0
  S  S577  1  0.628930  0.404730  0.004200  1
  S  S578  1  0.595270  0.371070  0.495800  1
  S  S579  1  0.371070  0.595270  0.995800  1
  S  S580  1  0.404730  0.628930  0.504200  1
  S  S581  1  0.583900  0.671320  0.860490  1
  S  S582  1  0.328680  0.416100  0.639510  1
  S  S583  1  0.416100  0.328680  0.139510  1
  S  S584  1  0.671320  0.583900  0.360490  1
  S  S585  1  0.980070  0.918130  0.170130  1.0
  S  S586  1  0.081870  0.019930  0.329870  1.0
  S  S587  1  0.019930  0.081870  0.829870  1.0
  S  S588  1  0.918130  0.980070  0.670130  1.0
  S  S589  1  0.537550  0.927130  0.982670  1.0
  S  S590  1  0.072870  0.462450  0.517330  1.0
  S  S591  1  0.462450  0.072870  0.017330  1.0
  S  S592  1  0.927130  0.537550  0.482670  1.0
