# generated using pymatgen
data_MoH16C26O7
_symmetry_space_group_name_H-M   'P 1'
_cell_length_a   25.80700000
_cell_length_b   25.80700000
_cell_length_c   29.78000000
_cell_angle_alpha   90.00000000
_cell_angle_beta   90.00000000
_cell_angle_gamma   120.00000000
_symmetry_Int_Tables_number   1
_chemical_formula_structural   MoH16C26O7
_chemical_formula_sum   'Mo12 H192 C312 O84'
_cell_volume   17176.32973746
_cell_formula_units_Z   12
loop_
 _symmetry_equiv_pos_site_id
 _symmetry_equiv_pos_as_xyz
  1  'x, y, z'
loop_
 _atom_site_type_symbol
 _atom_site_label
 _atom_site_symmetry_multiplicity
 _atom_site_fract_x
 _atom_site_fract_y
 _atom_site_fract_z
 _atom_site_occupancy
  Mo  Mo1  1  0.861050  0.204800  0.750000  1.0
  Mo  Mo2  1  0.343750  0.138950  0.750000  1.0
  Mo  Mo3  1  0.795200  0.656250  0.750000  1.0
  Mo  Mo4  1  0.138950  0.795200  0.250000  1.0
  Mo  Mo5  1  0.656250  0.861050  0.250000  1.0
  Mo  Mo6  1  0.204800  0.343750  0.250000  1.0
  Mo  Mo7  1  0.805660  0.243080  0.750000  1.0
  Mo  Mo8  1  0.437420  0.194340  0.750000  1.0
  Mo  Mo9  1  0.756920  0.562580  0.750000  1.0
  Mo  Mo10  1  0.194340  0.756920  0.250000  1.0
  Mo  Mo11  1  0.562580  0.805660  0.250000  1.0
  Mo  Mo12  1  0.243080  0.437420  0.250000  1.0
  H  H13  1  0.767400  0.055400  0.648900  1.0
  H  H14  1  0.288000  0.232600  0.648900  1.0
  H  H15  1  0.944600  0.712000  0.648900  1.0
  H  H16  1  0.232600  0.944600  0.148900  1.0
  H  H17  1  0.712000  0.767400  0.148900  1.0
  H  H18  1  0.055400  0.288000  0.148900  1.0
  H  H19  1  0.232600  0.944600  0.351100  1.0
  H  H20  1  0.712000  0.767400  0.351100  1.0
  H  H21  1  0.055400  0.288000  0.351100  1.0
  H  H22  1  0.767400  0.055400  0.851100  1.0
  H  H23  1  0.288000  0.232600  0.851100  1.0
  H  H24  1  0.944600  0.712000  0.851100  1.0
  H  H25  1  0.703500  0.985700  0.595900  1.0
  H  H26  1  0.282200  0.296500  0.595900  1.0
  H  H27  1  0.014300  0.717800  0.595900  1.0
  H  H28  1  0.296500  0.014300  0.095900  1.0
  H  H29  1  0.717800  0.703500  0.095900  1.0
  H  H30  1  0.985700  0.282200  0.095900  1.0
  H  H31  1  0.296500  0.014300  0.404100  1.0
  H  H32  1  0.717800  0.703500  0.404100  1.0
  H  H33  1  0.985700  0.282200  0.404100  1.0
  H  H34  1  0.703500  0.985700  0.904100  1.0
  H  H35  1  0.282200  0.296500  0.904100  1.0
  H  H36  1  0.014300  0.717800  0.904100  1.0
  H  H37  1  0.602700  0.065800  0.594600  1.0
  H  H38  1  0.463100  0.397300  0.594600  1.0
  H  H39  1  0.934200  0.536900  0.594600  1.0
  H  H40  1  0.397300  0.934200  0.094600  1.0
  H  H41  1  0.536900  0.602700  0.094600  1.0
  H  H42  1  0.065800  0.463100  0.094600  1.0
  H  H43  1  0.397300  0.934200  0.405400  1.0
  H  H44  1  0.536900  0.602700  0.405400  1.0
  H  H45  1  0.065800  0.463100  0.405400  1.0
  H  H46  1  0.602700  0.065800  0.905400  1.0
  H  H47  1  0.463100  0.397300  0.905400  1.0
  H  H48  1  0.934200  0.536900  0.905400  1.0
  H  H49  1  0.666500  0.135400  0.647500  1.0
  H  H50  1  0.468900  0.333500  0.647500  1.0
  H  H51  1  0.864600  0.531100  0.647500  1.0
  H  H52  1  0.333500  0.864600  0.147500  1.0
  H  H53  1  0.531100  0.666500  0.147500  1.0
  H  H54  1  0.135400  0.468900  0.147500  1.0
  H  H55  1  0.333500  0.864600  0.352500  1.0
  H  H56  1  0.531100  0.666500  0.352500  1.0
  H  H57  1  0.135400  0.468900  0.352500  1.0
  H  H58  1  0.666500  0.135400  0.852500  1.0
  H  H59  1  0.468900  0.333500  0.852500  1.0
  H  H60  1  0.864600  0.531100  0.852500  1.0
  H  H61  1  0.576000  0.878200  0.472400  1.0
  H  H62  1  0.302200  0.424000  0.472400  1.0
  H  H63  1  0.121800  0.697800  0.472400  1.0
  H  H64  1  0.424000  0.121800  0.972400  1.0
  H  H65  1  0.697800  0.576000  0.972400  1.0
  H  H66  1  0.878200  0.302200  0.972400  1.0
  H  H67  1  0.424000  0.121800  0.527600  1.0
  H  H68  1  0.697800  0.576000  0.527600  1.0
  H  H69  1  0.878200  0.302200  0.527600  1.0
  H  H70  1  0.576000  0.878200  0.027600  1.0
  H  H71  1  0.302200  0.424000  0.027600  1.0
  H  H72  1  0.121800  0.697800  0.027600  1.0
  H  H73  1  0.380200  0.844100  0.477600  1.0
  H  H74  1  0.463900  0.619800  0.477600  1.0
  H  H75  1  0.155900  0.536100  0.477600  1.0
  H  H76  1  0.619800  0.155900  0.977600  1.0
  H  H77  1  0.536100  0.380200  0.977600  1.0
  H  H78  1  0.844100  0.463900  0.977600  1.0
  H  H79  1  0.619800  0.155900  0.522400  1.0
  H  H80  1  0.536100  0.380200  0.522400  1.0
  H  H81  1  0.844100  0.463900  0.522400  1.0
  H  H82  1  0.380200  0.844100  0.022400  1.0
  H  H83  1  0.463900  0.619800  0.022400  1.0
  H  H84  1  0.155900  0.536100  0.022400  1.0
  H  H85  1  0.328400  0.937700  0.593900  1.0
  H  H86  1  0.609300  0.671600  0.593900  1.0
  H  H87  1  0.062300  0.390700  0.593900  1.0
  H  H88  1  0.671600  0.062300  0.093900  1.0
  H  H89  1  0.390700  0.328400  0.093900  1.0
  H  H90  1  0.937700  0.609300  0.093900  1.0
  H  H91  1  0.671600  0.062300  0.406100  1.0
  H  H92  1  0.390700  0.328400  0.406100  1.0
  H  H93  1  0.937700  0.609300  0.406100  1.0
  H  H94  1  0.328400  0.937700  0.906100  1.0
  H  H95  1  0.609300  0.671600  0.906100  1.0
  H  H96  1  0.062300  0.390700  0.906100  1.0
  H  H97  1  0.317100  0.999100  0.646100  1.0
  H  H98  1  0.682000  0.682900  0.646100  1.0
  H  H99  1  0.000900  0.318000  0.646100  1.0
  H  H100  1  0.682900  0.000900  0.146100  1.0
  H  H101  1  0.318000  0.317100  0.146100  1.0
  H  H102  1  0.999100  0.682000  0.146100  1.0
  H  H103  1  0.682900  0.000900  0.353900  1.0
  H  H104  1  0.318000  0.317100  0.353900  1.0
  H  H105  1  0.999100  0.682000  0.353900  1.0
  H  H106  1  0.317100  0.999100  0.853900  1.0
  H  H107  1  0.682000  0.682900  0.853900  1.0
  H  H108  1  0.000900  0.318000  0.853900  1.0
  H  H109  1  0.497400  0.103700  0.654100  1.0
  H  H110  1  0.606300  0.502600  0.654100  1.0
  H  H111  1  0.896300  0.393700  0.654100  1.0
  H  H112  1  0.502600  0.896300  0.154100  1.0
  H  H113  1  0.393700  0.497400  0.154100  1.0
  H  H114  1  0.103700  0.606300  0.154100  1.0
  H  H115  1  0.502600  0.896300  0.345900  1.0
  H  H116  1  0.393700  0.497400  0.345900  1.0
  H  H117  1  0.103700  0.606300  0.345900  1.0
  H  H118  1  0.497400  0.103700  0.845900  1.0
  H  H119  1  0.606300  0.502600  0.845900  1.0
  H  H120  1  0.896300  0.393700  0.845900  1.0
  H  H121  1  0.508600  0.042200  0.601800  1.0
  H  H122  1  0.533600  0.491400  0.601800  1.0
  H  H123  1  0.957800  0.466400  0.601800  1.0
  H  H124  1  0.491400  0.957800  0.101800  1.0
  H  H125  1  0.466400  0.508600  0.101800  1.0
  H  H126  1  0.042200  0.533600  0.101800  1.0
  H  H127  1  0.491400  0.957800  0.398200  1.0
  H  H128  1  0.466400  0.508600  0.398200  1.0
  H  H129  1  0.042200  0.533600  0.398200  1.0
  H  H130  1  0.508600  0.042200  0.898200  1.0
  H  H131  1  0.533600  0.491400  0.898200  1.0
  H  H132  1  0.957800  0.466400  0.898200  1.0
  H  H133  1  0.314200  0.729600  0.397600  1.0
  H  H134  1  0.415400  0.685800  0.397600  1.0
  H  H135  1  0.270400  0.584600  0.397600  1.0
  H  H136  1  0.685800  0.270400  0.897600  1.0
  H  H137  1  0.584600  0.314200  0.897600  1.0
  H  H138  1  0.729600  0.415400  0.897600  1.0
  H  H139  1  0.685800  0.270400  0.602400  1.0
  H  H140  1  0.584600  0.314200  0.602400  1.0
  H  H141  1  0.729600  0.415400  0.602400  1.0
  H  H142  1  0.314200  0.729600  0.102400  1.0
  H  H143  1  0.415400  0.685800  0.102400  1.0
  H  H144  1  0.270400  0.584600  0.102400  1.0
  H  H145  1  0.331000  0.793800  0.417300  1.0
  H  H146  1  0.462800  0.669000  0.417300  1.0
  H  H147  1  0.206200  0.537200  0.417300  1.0
  H  H148  1  0.669000  0.206200  0.917300  1.0
  H  H149  1  0.537200  0.331000  0.917300  1.0
  H  H150  1  0.793800  0.462800  0.917300  1.0
  H  H151  1  0.669000  0.206200  0.582700  1.0
  H  H152  1  0.537200  0.331000  0.582700  1.0
  H  H153  1  0.793800  0.462800  0.582700  1.0
  H  H154  1  0.331000  0.793800  0.082700  1.0
  H  H155  1  0.462800  0.669000  0.082700  1.0
  H  H156  1  0.206200  0.537200  0.082700  1.0
  H  H157  1  0.322700  0.741500  0.450600  1.0
  H  H158  1  0.418800  0.677300  0.450600  1.0
  H  H159  1  0.258500  0.581200  0.450600  1.0
  H  H160  1  0.677300  0.258500  0.950600  1.0
  H  H161  1  0.581200  0.322700  0.950600  1.0
  H  H162  1  0.741500  0.418800  0.950600  1.0
  H  H163  1  0.677300  0.258500  0.549400  1.0
  H  H164  1  0.581200  0.322700  0.549400  1.0
  H  H165  1  0.741500  0.418800  0.549400  1.0
  H  H166  1  0.322700  0.741500  0.049400  1.0
  H  H167  1  0.418800  0.677300  0.049400  1.0
  H  H168  1  0.258500  0.581200  0.049400  1.0
  H  H169  1  0.569200  0.787800  0.386400  1.0
  H  H170  1  0.218600  0.430800  0.386400  1.0
  H  H171  1  0.212200  0.781400  0.386400  1.0
  H  H172  1  0.430800  0.212200  0.886400  1.0
  H  H173  1  0.781400  0.569200  0.886400  1.0
  H  H174  1  0.787800  0.218600  0.886400  1.0
  H  H175  1  0.430800  0.212200  0.613600  1.0
  H  H176  1  0.781400  0.569200  0.613600  1.0
  H  H177  1  0.787800  0.218600  0.613600  1.0
  H  H178  1  0.569200  0.787800  0.113600  1.0
  H  H179  1  0.218600  0.430800  0.113600  1.0
  H  H180  1  0.212200  0.781400  0.113600  1.0
  H  H181  1  0.577100  0.803300  0.438900  1.0
  H  H182  1  0.226200  0.422900  0.438900  1.0
  H  H183  1  0.196700  0.773800  0.438900  1.0
  H  H184  1  0.422900  0.196700  0.938900  1.0
  H  H185  1  0.773800  0.577100  0.938900  1.0
  H  H186  1  0.803300  0.226200  0.938900  1.0
  H  H187  1  0.422900  0.196700  0.561100  1.0
  H  H188  1  0.773800  0.577100  0.561100  1.0
  H  H189  1  0.803300  0.226200  0.561100  1.0
  H  H190  1  0.577100  0.803300  0.061100  1.0
  H  H191  1  0.226200  0.422900  0.061100  1.0
  H  H192  1  0.196700  0.773800  0.061100  1.0
  H  H193  1  0.591300  0.854700  0.402800  1.0
  H  H194  1  0.263400  0.408700  0.402800  1.0
  H  H195  1  0.145300  0.736600  0.402800  1.0
  H  H196  1  0.408700  0.145300  0.902800  1.0
  H  H197  1  0.736600  0.591300  0.902800  1.0
  H  H198  1  0.854700  0.263400  0.902800  1.0
  H  H199  1  0.408700  0.145300  0.597200  1.0
  H  H200  1  0.736600  0.591300  0.597200  1.0
  H  H201  1  0.854700  0.263400  0.597200  1.0
  H  H202  1  0.591300  0.854700  0.097200  1.0
  H  H203  1  0.263400  0.408700  0.097200  1.0
  H  H204  1  0.145300  0.736600  0.097200  1.0
  C  C205  1  0.764020  0.146720  0.687240  1.0
  C  C206  1  0.382700  0.235980  0.687240  1.0
  C  C207  1  0.853280  0.617300  0.687240  1.0
  C  C208  1  0.235980  0.853280  0.187240  1.0
  C  C209  1  0.617300  0.764020  0.187240  1.0
  C  C210  1  0.146720  0.382700  0.187240  1.0
  C  C211  1  0.235980  0.853280  0.312760  1.0
  C  C212  1  0.617300  0.764020  0.312760  1.0
  C  C213  1  0.146720  0.382700  0.312760  1.0
  C  C214  1  0.764020  0.146720  0.812760  1.0
  C  C215  1  0.382700  0.235980  0.812760  1.0
  C  C216  1  0.853280  0.617300  0.812760  1.0
  C  C217  1  0.722960  0.101940  0.653180  1.0
  C  C218  1  0.378980  0.277040  0.653180  1.0
  C  C219  1  0.898060  0.621020  0.653180  1.0
  C  C220  1  0.277040  0.898060  0.153180  1.0
  C  C221  1  0.621020  0.722960  0.153180  1.0
  C  C222  1  0.101940  0.378980  0.153180  1.0
  C  C223  1  0.277040  0.898060  0.346820  1.0
  C  C224  1  0.621020  0.722960  0.346820  1.0
  C  C225  1  0.101940  0.378980  0.346820  1.0
  C  C226  1  0.722960  0.101940  0.846820  1.0
  C  C227  1  0.378980  0.277040  0.846820  1.0
  C  C228  1  0.898060  0.621020  0.846820  1.0
  C  C229  1  0.733900  0.057420  0.637850  1.0
  C  C230  1  0.323520  0.266100  0.637850  1.0
  C  C231  1  0.942580  0.676480  0.637850  1.0
  C  C232  1  0.266100  0.942580  0.137850  1.0
  C  C233  1  0.676480  0.733900  0.137850  1.0
  C  C234  1  0.057420  0.323520  0.137850  1.0
  C  C235  1  0.266100  0.942580  0.362150  1.0
  C  C236  1  0.676480  0.733900  0.362150  1.0
  C  C237  1  0.057420  0.323520  0.362150  1.0
  C  C238  1  0.733900  0.057420  0.862150  1.0
  C  C239  1  0.323520  0.266100  0.862150  1.0
  C  C240  1  0.942580  0.676480  0.862150  1.0
  C  C241  1  0.696000  0.016100  0.606390  1.0
  C  C242  1  0.320100  0.304000  0.606390  1.0
  C  C243  1  0.983900  0.679900  0.606390  1.0
  C  C244  1  0.304000  0.983900  0.106390  1.0
  C  C245  1  0.679900  0.696000  0.106390  1.0
  C  C246  1  0.016100  0.320100  0.106390  1.0
  C  C247  1  0.304000  0.983900  0.393610  1.0
  C  C248  1  0.679900  0.696000  0.393610  1.0
  C  C249  1  0.016100  0.320100  0.393610  1.0
  C  C250  1  0.696000  0.016100  0.893610  1.0
  C  C251  1  0.320100  0.304000  0.893610  1.0
  C  C252  1  0.983900  0.679900  0.893610  1.0
  C  C253  1  0.647000  0.019100  0.590250  1.0
  C  C254  1  0.372100  0.353000  0.590250  1.0
  C  C255  1  0.980900  0.627900  0.590250  1.0
  C  C256  1  0.353000  0.980900  0.090250  1.0
  C  C257  1  0.627900  0.647000  0.090250  1.0
  C  C258  1  0.019100  0.372100  0.090250  1.0
  C  C259  1  0.353000  0.980900  0.409750  1.0
  C  C260  1  0.627900  0.647000  0.409750  1.0
  C  C261  1  0.019100  0.372100  0.409750  1.0
  C  C262  1  0.647000  0.019100  0.909750  1.0
  C  C263  1  0.372100  0.353000  0.909750  1.0
  C  C264  1  0.980900  0.627900  0.909750  1.0
  C  C265  1  0.636080  0.063680  0.605590  1.0
  C  C266  1  0.427600  0.363920  0.605590  1.0
  C  C267  1  0.936320  0.572400  0.605590  1.0
  C  C268  1  0.363920  0.936320  0.105590  1.0
  C  C269  1  0.572400  0.636080  0.105590  1.0
  C  C270  1  0.063680  0.427600  0.105590  1.0
  C  C271  1  0.363920  0.936320  0.394410  1.0
  C  C272  1  0.572400  0.636080  0.394410  1.0
  C  C273  1  0.063680  0.427600  0.394410  1.0
  C  C274  1  0.636080  0.063680  0.894410  1.0
  C  C275  1  0.427600  0.363920  0.894410  1.0
  C  C276  1  0.936320  0.572400  0.894410  1.0
  C  C277  1  0.674040  0.105050  0.637050  1.0
  C  C278  1  0.431010  0.325960  0.637050  1.0
  C  C279  1  0.894950  0.568990  0.637050  1.0
  C  C280  1  0.325960  0.894950  0.137050  1.0
  C  C281  1  0.568990  0.674040  0.137050  1.0
  C  C282  1  0.105050  0.431010  0.137050  1.0
  C  C283  1  0.325960  0.894950  0.362950  1.0
  C  C284  1  0.568990  0.674040  0.362950  1.0
  C  C285  1  0.105050  0.431010  0.362950  1.0
  C  C286  1  0.674040  0.105050  0.862950  1.0
  C  C287  1  0.431010  0.325960  0.862950  1.0
  C  C288  1  0.894950  0.568990  0.862950  1.0
  C  C289  1  0.602800  0.978000  0.556700  1.0
  C  C290  1  0.375200  0.397200  0.556700  1.0
  C  C291  1  0.022000  0.624800  0.556700  1.0
  C  C292  1  0.397200  0.022000  0.056700  1.0
  C  C293  1  0.624800  0.602800  0.056700  1.0
  C  C294  1  0.978000  0.375200  0.056700  1.0
  C  C295  1  0.397200  0.022000  0.443300  1.0
  C  C296  1  0.624800  0.602800  0.443300  1.0
  C  C297  1  0.978000  0.375200  0.443300  1.0
  C  C298  1  0.602800  0.978000  0.943300  1.0
  C  C299  1  0.375200  0.397200  0.943300  1.0
  C  C300  1  0.022000  0.624800  0.943300  1.0
  C  C301  1  0.567000  0.944400  0.532300  1.0
  C  C302  1  0.377400  0.433000  0.532300  1.0
  C  C303  1  0.055600  0.622600  0.532300  1.0
  C  C304  1  0.433000  0.055600  0.032300  1.0
  C  C305  1  0.622600  0.567000  0.032300  1.0
  C  C306  1  0.944400  0.377400  0.032300  1.0
  C  C307  1  0.433000  0.055600  0.467700  1.0
  C  C308  1  0.622600  0.567000  0.467700  1.0
  C  C309  1  0.944400  0.377400  0.467700  1.0
  C  C310  1  0.567000  0.944400  0.967700  1.0
  C  C311  1  0.377400  0.433000  0.967700  1.0
  C  C312  1  0.055600  0.622600  0.967700  1.0
  C  C313  1  0.521300  0.902600  0.503810  1.0
  C  C314  1  0.381300  0.478700  0.503810  1.0
  C  C315  1  0.097400  0.618700  0.503810  1.0
  C  C316  1  0.478700  0.097400  0.003810  1.0
  C  C317  1  0.618700  0.521300  0.003810  1.0
  C  C318  1  0.902600  0.381300  0.003810  1.0
  C  C319  1  0.478700  0.097400  0.496190  1.0
  C  C320  1  0.618700  0.521300  0.496190  1.0
  C  C321  1  0.902600  0.381300  0.496190  1.0
  C  C322  1  0.521300  0.902600  0.996190  1.0
  C  C323  1  0.381300  0.478700  0.996190  1.0
  C  C324  1  0.097400  0.618700  0.996190  1.0
  C  C325  1  0.536300  0.871300  0.473500  1.0
  C  C326  1  0.335000  0.463700  0.473500  1.0
  C  C327  1  0.128700  0.665000  0.473500  1.0
  C  C328  1  0.463700  0.128700  0.973500  1.0
  C  C329  1  0.665000  0.536300  0.973500  1.0
  C  C330  1  0.871300  0.335000  0.973500  1.0
  C  C331  1  0.463700  0.128700  0.526500  1.0
  C  C332  1  0.665000  0.536300  0.526500  1.0
  C  C333  1  0.871300  0.335000  0.526500  1.0
  C  C334  1  0.536300  0.871300  0.026500  1.0
  C  C335  1  0.335000  0.463700  0.026500  1.0
  C  C336  1  0.128700  0.665000  0.026500  1.0
  C  C337  1  0.493000  0.829800  0.444690  1.0
  C  C338  1  0.336800  0.507000  0.444690  1.0
  C  C339  1  0.170200  0.663200  0.444690  1.0
  C  C340  1  0.507000  0.170200  0.944690  1.0
  C  C341  1  0.663200  0.493000  0.944690  1.0
  C  C342  1  0.829800  0.336800  0.944690  1.0
  C  C343  1  0.507000  0.170200  0.555310  1.0
  C  C344  1  0.663200  0.493000  0.555310  1.0
  C  C345  1  0.829800  0.336800  0.555310  1.0
  C  C346  1  0.493000  0.829800  0.055310  1.0
  C  C347  1  0.336800  0.507000  0.055310  1.0
  C  C348  1  0.170200  0.663200  0.055310  1.0
  C  C349  1  0.434900  0.819700  0.446230  1.0
  C  C350  1  0.384800  0.565100  0.446230  1.0
  C  C351  1  0.180300  0.615200  0.446230  1.0
  C  C352  1  0.565100  0.180300  0.946230  1.0
  C  C353  1  0.615200  0.434900  0.946230  1.0
  C  C354  1  0.819700  0.384800  0.946230  1.0
  C  C355  1  0.565100  0.180300  0.553770  1.0
  C  C356  1  0.615200  0.434900  0.553770  1.0
  C  C357  1  0.819700  0.384800  0.553770  1.0
  C  C358  1  0.434900  0.819700  0.053770  1.0
  C  C359  1  0.384800  0.565100  0.053770  1.0
  C  C360  1  0.180300  0.615200  0.053770  1.0
  C  C361  1  0.419900  0.851000  0.476600  1.0
  C  C362  1  0.431100  0.580100  0.476600  1.0
  C  C363  1  0.149000  0.568900  0.476600  1.0
  C  C364  1  0.580100  0.149000  0.976600  1.0
  C  C365  1  0.568900  0.419900  0.976600  1.0
  C  C366  1  0.851000  0.431100  0.976600  1.0
  C  C367  1  0.580100  0.149000  0.523400  1.0
  C  C368  1  0.568900  0.419900  0.523400  1.0
  C  C369  1  0.851000  0.431100  0.523400  1.0
  C  C370  1  0.419900  0.851000  0.023400  1.0
  C  C371  1  0.431100  0.580100  0.023400  1.0
  C  C372  1  0.149000  0.568900  0.023400  1.0
  C  C373  1  0.463200  0.892600  0.505350  1.0
  C  C374  1  0.429400  0.536800  0.505350  1.0
  C  C375  1  0.107400  0.570600  0.505350  1.0
  C  C376  1  0.536800  0.107400  0.005350  1.0
  C  C377  1  0.570600  0.463200  0.005350  1.0
  C  C378  1  0.892600  0.429400  0.005350  1.0
  C  C379  1  0.536800  0.107400  0.494650  1.0
  C  C380  1  0.570600  0.463200  0.494650  1.0
  C  C381  1  0.892600  0.429400  0.494650  1.0
  C  C382  1  0.463200  0.892600  0.994650  1.0
  C  C383  1  0.429400  0.536800  0.994650  1.0
  C  C384  1  0.107400  0.570600  0.994650  1.0
  C  C385  1  0.444700  0.923000  0.535600  1.0
  C  C386  1  0.478300  0.555300  0.535600  1.0
  C  C387  1  0.077000  0.521700  0.535600  1.0
  C  C388  1  0.555300  0.077000  0.035600  1.0
  C  C389  1  0.521700  0.444700  0.035600  1.0
  C  C390  1  0.923000  0.478300  0.035600  1.0
  C  C391  1  0.555300  0.077000  0.464400  1.0
  C  C392  1  0.521700  0.444700  0.464400  1.0
  C  C393  1  0.923000  0.478300  0.464400  1.0
  C  C394  1  0.444700  0.923000  0.964400  1.0
  C  C395  1  0.478300  0.555300  0.964400  1.0
  C  C396  1  0.077000  0.521700  0.964400  1.0
  C  C397  1  0.433400  0.951800  0.562100  1.0
  C  C398  1  0.518400  0.566600  0.562100  1.0
  C  C399  1  0.048200  0.481600  0.562100  1.0
  C  C400  1  0.566600  0.048200  0.062100  1.0
  C  C401  1  0.481600  0.433400  0.062100  1.0
  C  C402  1  0.951800  0.518400  0.062100  1.0
  C  C403  1  0.566600  0.048200  0.437900  1.0
  C  C404  1  0.481600  0.433400  0.437900  1.0
  C  C405  1  0.951800  0.518400  0.437900  1.0
  C  C406  1  0.433400  0.951800  0.937900  1.0
  C  C407  1  0.518400  0.566600  0.937900  1.0
  C  C408  1  0.048200  0.481600  0.937900  1.0
  C  C409  1  0.419500  0.984200  0.592930  1.0
  C  C410  1  0.564700  0.580500  0.592930  1.0
  C  C411  1  0.015800  0.435300  0.592930  1.0
  C  C412  1  0.580500  0.015800  0.092930  1.0
  C  C413  1  0.435300  0.419500  0.092930  1.0
  C  C414  1  0.984200  0.564700  0.092930  1.0
  C  C415  1  0.580500  0.015800  0.407070  1.0
  C  C416  1  0.435300  0.419500  0.407070  1.0
  C  C417  1  0.984200  0.564700  0.407070  1.0
  C  C418  1  0.419500  0.984200  0.907070  1.0
  C  C419  1  0.564700  0.580500  0.907070  1.0
  C  C420  1  0.015800  0.435300  0.907070  1.0
  C  C421  1  0.362700  0.971400  0.606100  1.0
  C  C422  1  0.608700  0.637300  0.606100  1.0
  C  C423  1  0.028600  0.391300  0.606100  1.0
  C  C424  1  0.637300  0.028600  0.106100  1.0
  C  C425  1  0.391300  0.362700  0.106100  1.0
  C  C426  1  0.971400  0.608700  0.106100  1.0
  C  C427  1  0.637300  0.028600  0.393900  1.0
  C  C428  1  0.391300  0.362700  0.393900  1.0
  C  C429  1  0.971400  0.608700  0.393900  1.0
  C  C430  1  0.362700  0.971400  0.893900  1.0
  C  C431  1  0.608700  0.637300  0.893900  1.0
  C  C432  1  0.028600  0.391300  0.893900  1.0
  C  C433  1  0.356000  0.007900  0.637100  1.0
  C  C434  1  0.651900  0.644000  0.637100  1.0
  C  C435  1  0.992100  0.348100  0.637100  1.0
  C  C436  1  0.644000  0.992100  0.137100  1.0
  C  C437  1  0.348100  0.356000  0.137100  1.0
  C  C438  1  0.007900  0.651900  0.137100  1.0
  C  C439  1  0.644000  0.992100  0.362900  1.0
  C  C440  1  0.348100  0.356000  0.362900  1.0
  C  C441  1  0.007900  0.651900  0.362900  1.0
  C  C442  1  0.356000  0.007900  0.862900  1.0
  C  C443  1  0.651900  0.644000  0.862900  1.0
  C  C444  1  0.992100  0.348100  0.862900  1.0
  C  C445  1  0.406200  0.057100  0.655020  1.0
  C  C446  1  0.650900  0.593800  0.655020  1.0
  C  C447  1  0.942900  0.349100  0.655020  1.0
  C  C448  1  0.593800  0.942900  0.155020  1.0
  C  C449  1  0.349100  0.406200  0.155020  1.0
  C  C450  1  0.057100  0.650900  0.155020  1.0
  C  C451  1  0.593800  0.942900  0.344980  1.0
  C  C452  1  0.349100  0.406200  0.344980  1.0
  C  C453  1  0.057100  0.650900  0.344980  1.0
  C  C454  1  0.406200  0.057100  0.844980  1.0
  C  C455  1  0.650900  0.593800  0.844980  1.0
  C  C456  1  0.942900  0.349100  0.844980  1.0
  C  C457  1  0.463100  0.070000  0.641900  1.0
  C  C458  1  0.606900  0.536900  0.641900  1.0
  C  C459  1  0.930000  0.393100  0.641900  1.0
  C  C460  1  0.536900  0.930000  0.141900  1.0
  C  C461  1  0.393100  0.463100  0.141900  1.0
  C  C462  1  0.070000  0.606900  0.141900  1.0
  C  C463  1  0.536900  0.930000  0.358100  1.0
  C  C464  1  0.393100  0.463100  0.358100  1.0
  C  C465  1  0.070000  0.606900  0.358100  1.0
  C  C466  1  0.463100  0.070000  0.858100  1.0
  C  C467  1  0.606900  0.536900  0.858100  1.0
  C  C468  1  0.930000  0.393100  0.858100  1.0
  C  C469  1  0.469700  0.033500  0.610800  1.0
  C  C470  1  0.563800  0.530300  0.610800  1.0
  C  C471  1  0.966500  0.436200  0.610800  1.0
  C  C472  1  0.530300  0.966500  0.110800  1.0
  C  C473  1  0.436200  0.469700  0.110800  1.0
  C  C474  1  0.033500  0.563800  0.110800  1.0
  C  C475  1  0.530300  0.966500  0.389200  1.0
  C  C476  1  0.436200  0.469700  0.389200  1.0
  C  C477  1  0.033500  0.563800  0.389200  1.0
  C  C478  1  0.469700  0.033500  0.889200  1.0
  C  C479  1  0.563800  0.530300  0.889200  1.0
  C  C480  1  0.966500  0.436200  0.889200  1.0
  C  C481  1  0.400600  0.097800  0.688900  1.0
  C  C482  1  0.697200  0.599400  0.688900  1.0
  C  C483  1  0.902200  0.302800  0.688900  1.0
  C  C484  1  0.599400  0.902200  0.188900  1.0
  C  C485  1  0.302800  0.400600  0.188900  1.0
  C  C486  1  0.097800  0.697200  0.188900  1.0
  C  C487  1  0.599400  0.902200  0.311100  1.0
  C  C488  1  0.302800  0.400600  0.311100  1.0
  C  C489  1  0.097800  0.697200  0.311100  1.0
  C  C490  1  0.400600  0.097800  0.811100  1.0
  C  C491  1  0.697200  0.599400  0.811100  1.0
  C  C492  1  0.902200  0.302800  0.811100  1.0
  C  C493  1  0.336900  0.759400  0.420800  1.0
  C  C494  1  0.422500  0.663100  0.420800  1.0
  C  C495  1  0.240600  0.577500  0.420800  1.0
  C  C496  1  0.663100  0.240600  0.920800  1.0
  C  C497  1  0.577500  0.336900  0.920800  1.0
  C  C498  1  0.759400  0.422500  0.920800  1.0
  C  C499  1  0.663100  0.240600  0.579200  1.0
  C  C500  1  0.577500  0.336900  0.579200  1.0
  C  C501  1  0.759400  0.422500  0.579200  1.0
  C  C502  1  0.336900  0.759400  0.079200  1.0
  C  C503  1  0.422500  0.663100  0.079200  1.0
  C  C504  1  0.240600  0.577500  0.079200  1.0
  C  C505  1  0.565300  0.812200  0.409900  1.0
  C  C506  1  0.246900  0.434700  0.409900  1.0
  C  C507  1  0.187800  0.753100  0.409900  1.0
  C  C508  1  0.434700  0.187800  0.909900  1.0
  C  C509  1  0.753100  0.565300  0.909900  1.0
  C  C510  1  0.812200  0.246900  0.909900  1.0
  C  C511  1  0.434700  0.187800  0.590100  1.0
  C  C512  1  0.753100  0.565300  0.590100  1.0
  C  C513  1  0.812200  0.246900  0.590100  1.0
  C  C514  1  0.565300  0.812200  0.090100  1.0
  C  C515  1  0.246900  0.434700  0.090100  1.0
  C  C516  1  0.187800  0.753100  0.090100  1.0
  O  O517  1  0.752400  0.297330  0.750000  1
  O  O518  1  0.544930  0.247600  0.750000  1
  O  O519  1  0.702670  0.455070  0.750000  1
  O  O520  1  0.247600  0.702670  0.250000  1
  O  O521  1  0.455070  0.752400  0.250000  1
  O  O522  1  0.297330  0.544930  0.250000  1
  O  O523  1  0.924900  0.161900  0.750000  1
  O  O524  1  0.237000  0.075100  0.750000  1
  O  O525  1  0.838100  0.763000  0.750000  1
  O  O526  1  0.075100  0.838100  0.250000  1
  O  O527  1  0.763000  0.924900  0.250000  1
  O  O528  1  0.161900  0.237000  0.250000  1
  O  O529  1  0.807800  0.141800  0.701310  1.0
  O  O530  1  0.334000  0.192200  0.701310  1.0
  O  O531  1  0.858200  0.666000  0.701310  1.0
  O  O532  1  0.192200  0.858200  0.201310  1.0
  O  O533  1  0.666000  0.807800  0.201310  1.0
  O  O534  1  0.141800  0.334000  0.201310  1.0
  O  O535  1  0.192200  0.858200  0.298690  1.0
  O  O536  1  0.666000  0.807800  0.298690  1.0
  O  O537  1  0.141800  0.334000  0.298690  1.0
  O  O538  1  0.807800  0.141800  0.798690  1.0
  O  O539  1  0.334000  0.192200  0.798690  1.0
  O  O540  1  0.858200  0.666000  0.798690  1.0
  O  O541  1  0.749800  0.183900  0.702630  1.0
  O  O542  1  0.434100  0.250200  0.702630  1.0
  O  O543  1  0.816100  0.565900  0.702630  1.0
  O  O544  1  0.250200  0.816100  0.202630  1.0
  O  O545  1  0.565900  0.749800  0.202630  1.0
  O  O546  1  0.183900  0.434100  0.202630  1.0
  O  O547  1  0.250200  0.816100  0.297370  1.0
  O  O548  1  0.565900  0.749800  0.297370  1.0
  O  O549  1  0.183900  0.434100  0.297370  1.0
  O  O550  1  0.749800  0.183900  0.797370  1.0
  O  O551  1  0.434100  0.250200  0.797370  1.0
  O  O552  1  0.816100  0.565900  0.797370  1.0
  O  O553  1  0.347000  0.082100  0.701100  1.0
  O  O554  1  0.735100  0.653000  0.701100  1.0
  O  O555  1  0.917900  0.264900  0.701100  1.0
  O  O556  1  0.653000  0.917900  0.201100  1.0
  O  O557  1  0.264900  0.347000  0.201100  1.0
  O  O558  1  0.082100  0.735100  0.201100  1.0
  O  O559  1  0.653000  0.917900  0.298900  1.0
  O  O560  1  0.264900  0.347000  0.298900  1.0
  O  O561  1  0.082100  0.735100  0.298900  1.0
  O  O562  1  0.347000  0.082100  0.798900  1.0
  O  O563  1  0.735100  0.653000  0.798900  1.0
  O  O564  1  0.917900  0.264900  0.798900  1.0
  O  O565  1  0.447400  0.141800  0.701680  1.0
  O  O566  1  0.694400  0.552600  0.701680  1.0
  O  O567  1  0.858200  0.305600  0.701680  1.0
  O  O568  1  0.552600  0.858200  0.201680  1.0
  O  O569  1  0.305600  0.447400  0.201680  1.0
  O  O570  1  0.141800  0.694400  0.201680  1.0
  O  O571  1  0.552600  0.858200  0.298320  1.0
  O  O572  1  0.305600  0.447400  0.298320  1.0
  O  O573  1  0.141800  0.694400  0.298320  1.0
  O  O574  1  0.447400  0.141800  0.798320  1.0
  O  O575  1  0.694400  0.552600  0.798320  1.0
  O  O576  1  0.858200  0.305600  0.798320  1.0
  O  O577  1  0.397300  0.777800  0.416600  1.0
  O  O578  1  0.380500  0.602700  0.416600  1.0
  O  O579  1  0.222200  0.619500  0.416600  1.0
  O  O580  1  0.602700  0.222200  0.916600  1.0
  O  O581  1  0.619500  0.397300  0.916600  1.0
  O  O582  1  0.777800  0.380500  0.916600  1.0
  O  O583  1  0.602700  0.222200  0.583400  1.0
  O  O584  1  0.619500  0.397300  0.583400  1.0
  O  O585  1  0.777800  0.380500  0.583400  1.0
  O  O586  1  0.397300  0.777800  0.083400  1.0
  O  O587  1  0.380500  0.602700  0.083400  1.0
  O  O588  1  0.222200  0.619500  0.083400  1.0
  O  O589  1  0.504400  0.799000  0.412200  1.0
  O  O590  1  0.294600  0.495600  0.412200  1.0
  O  O591  1  0.201000  0.705400  0.412200  1.0
  O  O592  1  0.495600  0.201000  0.912200  1.0
  O  O593  1  0.705400  0.504400  0.912200  1.0
  O  O594  1  0.799000  0.294600  0.912200  1.0
  O  O595  1  0.495600  0.201000  0.587800  1.0
  O  O596  1  0.705400  0.504400  0.587800  1.0
  O  O597  1  0.799000  0.294600  0.587800  1.0
  O  O598  1  0.504400  0.799000  0.087800  1.0
  O  O599  1  0.294600  0.495600  0.087800  1.0
  O  O600  1  0.201000  0.705400  0.087800  1.0
