# generated using pymatgen
data_Mo2H38C39(N2O3)3
_symmetry_space_group_name_H-M   'P 1'
_cell_length_a   24.18866005
_cell_length_b   24.18866005
_cell_length_c   24.18866005
_cell_angle_alpha   92.67472252
_cell_angle_beta   92.67472252
_cell_angle_gamma   92.67472252
_symmetry_Int_Tables_number   1
_chemical_formula_structural   Mo2H38C39(N2O3)3
_chemical_formula_sum   'Mo12 H228 C234 N36 O54'
_cell_volume   14104.82522092
_cell_formula_units_Z   6
loop_
 _symmetry_equiv_pos_site_id
 _symmetry_equiv_pos_as_xyz
  1  'x, y, z'
loop_
 _atom_site_type_symbol
 _atom_site_label
 _atom_site_symmetry_multiplicity
 _atom_site_fract_x
 _atom_site_fract_y
 _atom_site_fract_z
 _atom_site_occupancy
  C  C1  1  0.512140  0.888890  0.119500  1
  C  C2  1  0.119500  0.512140  0.888890  1
  C  C3  1  0.888890  0.119500  0.512140  1
  C  C4  1  0.487860  0.111110  0.880500  1
  C  C5  1  0.880500  0.487860  0.111110  1
  C  C6  1  0.111110  0.880500  0.487860  1
  C  C7  1  0.574790  0.816110  0.141000  1
  C  C8  1  0.141000  0.574790  0.816110  1
  C  C9  1  0.816110  0.141000  0.574790  1
  C  C10  1  0.425210  0.183890  0.859000  1
  C  C11  1  0.859000  0.425210  0.183890  1
  C  C12  1  0.183890  0.859000  0.425210  1
  C  C13  1  0.598940  0.826460  0.086700  1
  C  C14  1  0.086700  0.598940  0.826460  1
  C  C15  1  0.826460  0.086700  0.598940  1
  C  C16  1  0.401060  0.173540  0.913300  1
  C  C17  1  0.913300  0.401060  0.173540  1
  C  C18  1  0.173540  0.913300  0.401060  1
  C  C19  1  0.601930  0.887070  0.078300  1
  C  C20  1  0.078300  0.601930  0.887070  1
  C  C21  1  0.887070  0.078300  0.601930  1
  C  C22  1  0.398070  0.112930  0.921700  1
  C  C23  1  0.921700  0.398070  0.112930  1
  C  C24  1  0.112930  0.921700  0.398070  1
  C  C25  1  0.475500  0.807600  0.163300  1
  C  C26  1  0.163300  0.475500  0.807600  1
  C  C27  1  0.807600  0.163300  0.475500  1
  C  C28  1  0.524500  0.192400  0.836700  1
  C  C29  1  0.836700  0.524500  0.192400  1
  C  C30  1  0.192400  0.836700  0.524500  1
  C  C31  1  0.351880  0.910490  0.987290  1.0
  C  C32  1  0.987290  0.351880  0.910490  1.0
  C  C33  1  0.910490  0.987290  0.351880  1.0
  C  C34  1  0.648120  0.089510  0.012710  1.0
  C  C35  1  0.012710  0.648120  0.089510  1.0
  C  C36  1  0.089510  0.012710  0.648120  1.0
  C  C37  1  0.361890  0.894120  0.929390  1.0
  C  C38  1  0.929390  0.361890  0.894120  1.0
  C  C39  1  0.894120  0.929390  0.361890  1.0
  C  C40  1  0.638110  0.105880  0.070610  1.0
  C  C41  1  0.070610  0.638110  0.105880  1.0
  C  C42  1  0.105880  0.070610  0.638110  1.0
  C  C43  1  0.414470  0.876880  0.916040  1.0
  C  C44  1  0.916040  0.414470  0.876880  1.0
  C  C45  1  0.876880  0.916040  0.414470  1.0
  C  C46  1  0.585530  0.123120  0.083960  1.0
  C  C47  1  0.083960  0.585530  0.123120  1.0
  C  C48  1  0.123120  0.083960  0.585530  1.0
  C  C49  1  0.425140  0.861030  0.860860  1.0
  C  C50  1  0.860860  0.425140  0.861030  1.0
  C  C51  1  0.861030  0.860860  0.425140  1.0
  C  C52  1  0.574860  0.138970  0.139140  1.0
  C  C53  1  0.139140  0.574860  0.138970  1.0
  C  C54  1  0.138970  0.139140  0.574860  1.0
  C  C55  1  0.382310  0.861200  0.821470  1.0
  C  C56  1  0.821470  0.382310  0.861200  1.0
  C  C57  1  0.861200  0.821470  0.382310  1.0
  C  C58  1  0.617690  0.138800  0.178530  1.0
  C  C59  1  0.178530  0.617690  0.138800  1.0
  C  C60  1  0.138800  0.178530  0.617690  1.0
  C  C61  1  0.329820  0.877690  0.833860  1.0
  C  C62  1  0.833860  0.329820  0.877690  1.0
  C  C63  1  0.877690  0.833860  0.329820  1.0
  C  C64  1  0.670180  0.122310  0.166140  1.0
  C  C65  1  0.166140  0.670180  0.122310  1.0
  C  C66  1  0.122310  0.166140  0.670180  1.0
  C  C67  1  0.319820  0.894250  0.887840  1.0
  C  C68  1  0.887840  0.319820  0.894250  1.0
  C  C69  1  0.894250  0.887840  0.319820  1.0
  C  C70  1  0.680180  0.105750  0.112160  1.0
  C  C71  1  0.112160  0.680180  0.105750  1.0
  C  C72  1  0.105750  0.112160  0.680180  1.0
  C  C73  1  0.296440  0.873310  0.782490  1.0
  C  C74  1  0.782490  0.296440  0.873310  1.0
  C  C75  1  0.873310  0.782490  0.296440  1.0
  C  C76  1  0.703560  0.126690  0.217510  1.0
  C  C77  1  0.217510  0.703560  0.126690  1.0
  C  C78  1  0.126690  0.217510  0.703560  1.0
  C  C79  1  0.332000  0.853950  0.742680  1.0
  C  C80  1  0.742680  0.332000  0.853950  1.0
  C  C81  1  0.853950  0.742680  0.332000  1.0
  C  C82  1  0.668000  0.146050  0.257320  1.0
  C  C83  1  0.257320  0.668000  0.146050  1.0
  C  C84  1  0.146050  0.257320  0.668000  1.0
  C  C85  1  0.312380  0.843940  0.686570  1.0
  C  C86  1  0.686570  0.312380  0.843940  1.0
  C  C87  1  0.843940  0.686570  0.312380  1.0
  C  C88  1  0.687620  0.156060  0.313430  1.0
  C  C89  1  0.313430  0.687620  0.156060  1.0
  C  C90  1  0.156060  0.313430  0.687620  1.0
  C  C91  1  0.259020  0.853980  0.674060  1.0
  C  C92  1  0.674060  0.259020  0.853980  1.0
  C  C93  1  0.853980  0.674060  0.259020  1.0
  C  C94  1  0.740980  0.146020  0.325940  1.0
  C  C95  1  0.325940  0.740980  0.146020  1.0
  C  C96  1  0.146020  0.325940  0.740980  1.0
  C  C97  1  0.222890  0.873990  0.712350  1.0
  C  C98  1  0.712350  0.222890  0.873990  1.0
  C  C99  1  0.873990  0.712350  0.222890  1.0
  C  C100  1  0.777110  0.126010  0.287650  1.0
  C  C101  1  0.287650  0.777110  0.126010  1.0
  C  C102  1  0.126010  0.287650  0.777110  1.0
  C  C103  1  0.242300  0.882890  0.767140  1.0
  C  C104  1  0.767140  0.242300  0.882890  1.0
  C  C105  1  0.882890  0.767140  0.242300  1.0
  C  C106  1  0.757700  0.117110  0.232860  1.0
  C  C107  1  0.232860  0.757700  0.117110  1.0
  C  C108  1  0.117110  0.232860  0.757700  1.0
  C  C109  1  0.165660  0.886070  0.695310  1.0
  C  C110  1  0.695310  0.165660  0.886070  1.0
  C  C111  1  0.886070  0.695310  0.165660  1.0
  C  C112  1  0.834340  0.113930  0.304690  1.0
  C  C113  1  0.304690  0.834340  0.113930  1.0
  C  C114  1  0.113930  0.304690  0.834340  1.0
  C  C115  1  0.315370  0.969930  0.200580  1.0
  C  C116  1  0.200580  0.315370  0.969930  1.0
  C  C117  1  0.969930  0.200580  0.315370  1.0
  C  C118  1  0.684630  0.030070  0.799420  1.0
  C  C119  1  0.799420  0.684630  0.030070  1.0
  C  C120  1  0.030070  0.799420  0.684630  1.0
  C  C121  1  0.304410  0.986050  0.259050  1.0
  C  C122  1  0.259050  0.304410  0.986050  1.0
  C  C123  1  0.986050  0.259050  0.304410  1.0
  C  C124  1  0.695590  0.013950  0.740950  1.0
  C  C125  1  0.740950  0.695590  0.013950  1.0
  C  C126  1  0.013950  0.740950  0.695590  1.0
  C  C127  1  0.346690  0.985690  0.299870  1.0
  C  C128  1  0.299870  0.346690  0.985690  1.0
  C  C129  1  0.985690  0.299870  0.346690  1.0
  C  C130  1  0.653310  0.014310  0.700130  1.0
  C  C131  1  0.700130  0.653310  0.014310  1.0
  C  C132  1  0.014310  0.700130  0.653310  1.0
  C  C133  1  0.338390  0.999810  0.353450  1.0
  C  C134  1  0.353450  0.338390  0.999810  1.0
  C  C135  1  0.999810  0.353450  0.338390  1.0
  C  C136  1  0.661610  0.000190  0.646550  1.0
  C  C137  1  0.646550  0.661610  0.000190  1.0
  C  C138  1  0.000190  0.646550  0.661610  1.0
  C  C139  1  0.286530  0.015850  0.366740  1.0
  C  C140  1  0.366740  0.286530  0.015850  1.0
  C  C141  1  0.015850  0.366740  0.286530  1.0
  C  C142  1  0.713470  0.984150  0.633260  1.0
  C  C143  1  0.633260  0.713470  0.984150  1.0
  C  C144  1  0.984150  0.633260  0.713470  1.0
  C  C145  1  0.243500  0.017190  0.327070  1.0
  C  C146  1  0.327070  0.243500  0.017190  1.0
  C  C147  1  0.017190  0.327070  0.243500  1.0
  C  C148  1  0.756500  0.982810  0.672930  1.0
  C  C149  1  0.672930  0.756500  0.982810  1.0
  C  C150  1  0.982810  0.672930  0.756500  1.0
  C  C151  1  0.252610  0.002970  0.272570  1.0
  C  C152  1  0.272570  0.252610  0.002970  1.0
  C  C153  1  0.002970  0.272570  0.252610  1.0
  C  C154  1  0.747390  0.997030  0.727430  1.0
  C  C155  1  0.727430  0.747390  0.997030  1.0
  C  C156  1  0.997030  0.727430  0.747390  1.0
  C  C157  1  0.196110  0.038190  0.355410  1.0
  C  C158  1  0.355410  0.196110  0.038190  1.0
  C  C159  1  0.038190  0.355410  0.196110  1.0
  C  C160  1  0.803890  0.961810  0.644590  1.0
  C  C161  1  0.644590  0.803890  0.961810  1.0
  C  C162  1  0.961810  0.644590  0.803890  1.0
  C  C163  1  0.213880  0.046440  0.410780  1.0
  C  C164  1  0.410780  0.213880  0.046440  1.0
  C  C165  1  0.046440  0.410780  0.213880  1.0
  C  C166  1  0.786120  0.953560  0.589220  1.0
  C  C167  1  0.589220  0.786120  0.953560  1.0
  C  C168  1  0.953560  0.589220  0.786120  1.0
  C  C169  1  0.176850  0.063660  0.450360  1.0
  C  C170  1  0.450360  0.176850  0.063660  1.0
  C  C171  1  0.063660  0.450360  0.176850  1.0
  C  C172  1  0.823150  0.936340  0.549640  1.0
  C  C173  1  0.549640  0.823150  0.936340  1.0
  C  C174  1  0.936340  0.549640  0.823150  1.0
  C  C175  1  0.124030  0.074500  0.433540  1.0
  C  C176  1  0.433540  0.124030  0.074500  1.0
  C  C177  1  0.074500  0.433540  0.124030  1.0
  C  C178  1  0.875970  0.925500  0.566460  1.0
  C  C179  1  0.566460  0.875970  0.925500  1.0
  C  C180  1  0.925500  0.566460  0.875970  1.0
  C  C181  1  0.106280  0.065730  0.378880  1.0
  C  C182  1  0.378880  0.106280  0.065730  1.0
  C  C183  1  0.065730  0.378880  0.106280  1.0
  C  C184  1  0.893720  0.934270  0.621120  1.0
  C  C185  1  0.621120  0.893720  0.934270  1.0
  C  C186  1  0.934270  0.621120  0.893720  1.0
  C  C187  1  0.141850  0.047790  0.339260  1.0
  C  C188  1  0.339260  0.141850  0.047790  1.0
  C  C189  1  0.047790  0.339260  0.141850  1.0
  C  C190  1  0.858150  0.952210  0.660740  1.0
  C  C191  1  0.660740  0.858150  0.952210  1.0
  C  C192  1  0.952210  0.660740  0.858150  1.0
  C  C193  1  0.047690  0.074370  0.363010  1.0
  C  C194  1  0.363010  0.047690  0.074370  1.0
  C  C195  1  0.074370  0.363010  0.047690  1.0
  C  C196  1  0.952310  0.925630  0.636990  1.0
  C  C197  1  0.636990  0.952310  0.925630  1.0
  C  C198  1  0.925630  0.636990  0.952310  1.0
  C  C199  1  0.513640  0.940010  0.152440  1.0
  C  C200  1  0.152440  0.513640  0.940010  1.0
  C  C201  1  0.940010  0.152440  0.513640  1.0
  C  C202  1  0.486360  0.059990  0.847560  1.0
  C  C203  1  0.847560  0.486360  0.059990  1.0
  C  C204  1  0.059990  0.847560  0.486360  1.0
  C  C205  1  0.578600  0.957520  0.231880  1.0
  C  C206  1  0.231880  0.578600  0.957520  1.0
  C  C207  1  0.957520  0.231880  0.578600  1.0
  C  C208  1  0.421400  0.042480  0.768120  1.0
  C  C209  1  0.768120  0.421400  0.042480  1.0
  C  C210  1  0.042480  0.768120  0.421400  1.0
  C  C211  1  0.603950  0.002350  0.199650  1.0
  C  C212  1  0.199650  0.603950  0.002350  1.0
  C  C213  1  0.002350  0.199650  0.603950  1.0
  C  C214  1  0.396050  0.997650  0.800350  1.0
  C  C215  1  0.800350  0.396050  0.997650  1.0
  C  C216  1  0.997650  0.800350  0.396050  1.0
  C  C217  1  0.605100  0.982920  0.140380  1.0
  C  C218  1  0.140380  0.605100  0.982920  1.0
  C  C219  1  0.982920  0.140380  0.605100  1.0
  C  C220  1  0.394900  0.017080  0.859620  1.0
  C  C221  1  0.859620  0.394900  0.017080  1.0
  C  C222  1  0.017080  0.859620  0.394900  1.0
  C  C223  1  0.487020  0.908830  0.241710  1.0
  C  C224  1  0.241710  0.487020  0.908830  1.0
  C  C225  1  0.908830  0.241710  0.487020  1.0
  C  C226  1  0.512980  0.091170  0.758290  1.0
  C  C227  1  0.758290  0.512980  0.091170  1.0
  C  C228  1  0.091170  0.758290  0.512980  1.0
  C  C229  1  0.538320  0.962650  0.059790  1.0
  C  C230  1  0.059790  0.538320  0.962650  1.0
  C  C231  1  0.962650  0.059790  0.538320  1.0
  C  C232  1  0.461680  0.037350  0.940210  1.0
  C  C233  1  0.940210  0.461680  0.037350  1.0
  C  C234  1  0.037350  0.940210  0.461680  1.0
  H  H235  1  0.569900  0.775700  0.145500  1
  H  H236  1  0.145500  0.569900  0.775700  1
  H  H237  1  0.775700  0.145500  0.569900  1
  H  H238  1  0.430100  0.224300  0.854500  1
  H  H239  1  0.854500  0.430100  0.224300  1
  H  H240  1  0.224300  0.854500  0.430100  1
  H  H241  1  0.600300  0.832000  0.171600  1
  H  H242  1  0.171600  0.600300  0.832000  1
  H  H243  1  0.832000  0.171600  0.600300  1
  H  H244  1  0.399700  0.168000  0.828400  1
  H  H245  1  0.828400  0.399700  0.168000  1
  H  H246  1  0.168000  0.828400  0.399700  1
  H  H247  1  0.575700  0.807000  0.056500  1
  H  H248  1  0.056500  0.575700  0.807000  1
  H  H249  1  0.807000  0.056500  0.575700  1
  H  H250  1  0.424300  0.193000  0.943500  1
  H  H251  1  0.943500  0.424300  0.193000  1
  H  H252  1  0.193000  0.943500  0.424300  1
  H  H253  1  0.636600  0.811900  0.086100  1
  H  H254  1  0.086100  0.636600  0.811900  1
  H  H255  1  0.811900  0.086100  0.636600  1
  H  H256  1  0.363400  0.188100  0.913900  1
  H  H257  1  0.913900  0.363400  0.188100  1
  H  H258  1  0.188100  0.913900  0.363400  1
  H  H259  1  0.628300  0.906100  0.106400  1
  H  H260  1  0.106400  0.628300  0.906100  1
  H  H261  1  0.906100  0.106400  0.628300  1
  H  H262  1  0.371700  0.093900  0.893600  1
  H  H263  1  0.893600  0.371700  0.093900  1
  H  H264  1  0.093900  0.893600  0.371700  1
  H  H265  1  0.615500  0.894100  0.041200  1
  H  H266  1  0.041200  0.615500  0.894100  1
  H  H267  1  0.894100  0.041200  0.615500  1
  H  H268  1  0.384500  0.105900  0.958800  1
  H  H269  1  0.958800  0.384500  0.105900  1
  H  H270  1  0.105900  0.958800  0.384500  1
  H  H271  1  0.442300  0.829400  0.163900  1
  H  H272  1  0.163900  0.442300  0.829400  1
  H  H273  1  0.829400  0.163900  0.442300  1
  H  H274  1  0.557700  0.170600  0.836100  1
  H  H275  1  0.836100  0.557700  0.170600  1
  H  H276  1  0.170600  0.836100  0.557700  1
  H  H277  1  0.485000  0.796200  0.200900  1
  H  H278  1  0.200900  0.485000  0.796200  1
  H  H279  1  0.796200  0.200900  0.485000  1
  H  H280  1  0.515000  0.203800  0.799100  1
  H  H281  1  0.799100  0.515000  0.203800  1
  H  H282  1  0.203800  0.799100  0.515000  1
  H  H283  1  0.468300  0.774600  0.138400  1
  H  H284  1  0.138400  0.468300  0.774600  1
  H  H285  1  0.774600  0.138400  0.468300  1
  H  H286  1  0.531700  0.225400  0.861600  1
  H  H287  1  0.861600  0.531700  0.225400  1
  H  H288  1  0.225400  0.861600  0.531700  1
  H  H289  1  0.501200  0.973100  0.066000  1
  H  H290  1  0.066000  0.501200  0.973100  1
  H  H291  1  0.973100  0.066000  0.501200  1
  H  H292  1  0.498800  0.026900  0.934000  1
  H  H293  1  0.934000  0.498800  0.026900  1
  H  H294  1  0.026900  0.934000  0.498800  1
  H  H295  1  0.564200  0.989900  0.077400  1
  H  H296  1  0.077400  0.564200  0.989900  1
  H  H297  1  0.989900  0.077400  0.564200  1
  H  H298  1  0.435800  0.010100  0.922600  1
  H  H299  1  0.922600  0.435800  0.010100  1
  H  H300  1  0.010100  0.922600  0.435800  1
  H  H301  1  0.543700  0.960300  0.020700  1
  H  H302  1  0.020700  0.543700  0.960300  1
  H  H303  1  0.960300  0.020700  0.543700  1
  H  H304  1  0.456300  0.039700  0.979300  1
  H  H305  1  0.979300  0.456300  0.039700  1
  H  H306  1  0.039700  0.979300  0.456300  1
  H  H307  1  0.412200  0.834800  0.749400  1.0
  H  H308  1  0.749400  0.412200  0.834800  1.0
  H  H309  1  0.834800  0.749400  0.412200  1.0
  H  H310  1  0.587800  0.165200  0.250600  1.0
  H  H311  1  0.250600  0.587800  0.165200  1.0
  H  H312  1  0.165200  0.250600  0.587800  1.0
  H  H313  1  0.288200  0.035300  0.448700  1.0
  H  H314  1  0.448700  0.288200  0.035300  1.0
  H  H315  1  0.035300  0.448700  0.288200  1.0
  H  H316  1  0.711800  0.964700  0.551300  1.0
  H  H317  1  0.551300  0.711800  0.964700  1.0
  H  H318  1  0.964700  0.551300  0.711800  1.0
  H  H319  1  0.443000  0.875800  0.944300  1.0
  H  H320  1  0.944300  0.443000  0.875800  1.0
  H  H321  1  0.875800  0.944300  0.443000  1.0
  H  H322  1  0.557000  0.124200  0.055700  1.0
  H  H323  1  0.055700  0.557000  0.124200  1.0
  H  H324  1  0.124200  0.055700  0.557000  1.0
  H  H325  1  0.460900  0.850500  0.851200  1.0
  H  H326  1  0.851200  0.460900  0.850500  1.0
  H  H327  1  0.850500  0.851200  0.460900  1.0
  H  H328  1  0.539100  0.149500  0.148800  1.0
  H  H329  1  0.148800  0.539100  0.149500  1.0
  H  H330  1  0.149500  0.148800  0.539100  1.0
  H  H331  1  0.284200  0.905800  0.896700  1.0
  H  H332  1  0.896700  0.284200  0.905800  1.0
  H  H333  1  0.905800  0.896700  0.284200  1.0
  H  H334  1  0.715800  0.094200  0.103300  1.0
  H  H335  1  0.103300  0.715800  0.094200  1.0
  H  H336  1  0.094200  0.103300  0.715800  1.0
  H  H337  1  0.335900  0.830800  0.659000  1.0
  H  H338  1  0.659000  0.335900  0.830800  1.0
  H  H339  1  0.830800  0.659000  0.335900  1.0
  H  H340  1  0.664100  0.169200  0.341000  1.0
  H  H341  1  0.341000  0.664100  0.169200  1.0
  H  H342  1  0.169200  0.341000  0.664100  1.0
  H  H343  1  0.245300  0.846900  0.636900  1.0
  H  H344  1  0.636900  0.245300  0.846900  1.0
  H  H345  1  0.846900  0.636900  0.245300  1.0
  H  H346  1  0.754700  0.153100  0.363100  1.0
  H  H347  1  0.363100  0.754700  0.153100  1.0
  H  H348  1  0.153100  0.363100  0.754700  1.0
  H  H349  1  0.218000  0.895700  0.794200  1.0
  H  H350  1  0.794200  0.218000  0.895700  1.0
  H  H351  1  0.895700  0.794200  0.218000  1.0
  H  H352  1  0.782000  0.104300  0.205800  1.0
  H  H353  1  0.205800  0.782000  0.104300  1.0
  H  H354  1  0.104300  0.205800  0.782000  1.0
  H  H355  1  0.382400  0.975200  0.289800  1.0
  H  H356  1  0.289800  0.382400  0.975200  1.0
  H  H357  1  0.975200  0.289800  0.382400  1.0
  H  H358  1  0.617600  0.024800  0.710200  1.0
  H  H359  1  0.710200  0.617600  0.024800  1.0
  H  H360  1  0.024800  0.710200  0.617600  1.0
  H  H361  1  0.367400  0.998800  0.381100  1.0
  H  H362  1  0.381100  0.367400  0.998800  1.0
  H  H363  1  0.998800  0.381100  0.367400  1.0
  H  H364  1  0.632600  0.001200  0.618900  1.0
  H  H365  1  0.618900  0.632600  0.001200  1.0
  H  H366  1  0.001200  0.618900  0.632600  1.0
  H  H367  1  0.223900  0.004800  0.244700  1.0
  H  H368  1  0.244700  0.223900  0.004800  1.0
  H  H369  1  0.004800  0.244700  0.223900  1.0
  H  H370  1  0.776100  0.995200  0.755300  1.0
  H  H371  1  0.755300  0.776100  0.995200  1.0
  H  H372  1  0.995200  0.755300  0.776100  1.0
  H  H373  1  0.188400  0.067800  0.488400  1.0
  H  H374  1  0.488400  0.188400  0.067800  1.0
  H  H375  1  0.067800  0.488400  0.188400  1.0
  H  H376  1  0.811600  0.932200  0.511600  1.0
  H  H377  1  0.511600  0.811600  0.932200  1.0
  H  H378  1  0.932200  0.511600  0.811600  1.0
  H  H379  1  0.099400  0.088200  0.459800  1.0
  H  H380  1  0.459800  0.099400  0.088200  1.0
  H  H381  1  0.088200  0.459800  0.099400  1.0
  H  H382  1  0.900600  0.911800  0.540200  1.0
  H  H383  1  0.540200  0.900600  0.911800  1.0
  H  H384  1  0.911800  0.540200  0.900600  1.0
  H  H385  1  0.129200  0.042100  0.301500  1.0
  H  H386  1  0.301500  0.129200  0.042100  1.0
  H  H387  1  0.042100  0.301500  0.129200  1.0
  H  H388  1  0.870800  0.957900  0.698500  1.0
  H  H389  1  0.698500  0.870800  0.957900  1.0
  H  H390  1  0.957900  0.698500  0.870800  1.0
  H  H391  1  0.602200  0.925300  0.231500  1.0
  H  H392  1  0.231500  0.602200  0.925300  1.0
  H  H393  1  0.925300  0.231500  0.602200  1.0
  H  H394  1  0.397800  0.074700  0.768500  1.0
  H  H395  1  0.768500  0.397800  0.074700  1.0
  H  H396  1  0.074700  0.768500  0.397800  1.0
  H  H397  1  0.575400  0.971000  0.270800  1.0
  H  H398  1  0.270800  0.575400  0.971000  1.0
  H  H399  1  0.971000  0.270800  0.575400  1.0
  H  H400  1  0.424600  0.029000  0.729200  1.0
  H  H401  1  0.729200  0.424600  0.029000  1.0
  H  H402  1  0.029000  0.729200  0.424600  1.0
  H  H403  1  0.642200  0.011900  0.214700  1.0
  H  H404  1  0.214700  0.642200  0.011900  1.0
  H  H405  1  0.011900  0.214700  0.642200  1.0
  H  H406  1  0.357800  0.988100  0.785300  1.0
  H  H407  1  0.785300  0.357800  0.988100  1.0
  H  H408  1  0.988100  0.785300  0.357800  1.0
  H  H409  1  0.582200  0.035900  0.203000  1.0
  H  H410  1  0.203000  0.582200  0.035900  1.0
  H  H411  1  0.035900  0.203000  0.582200  1.0
  H  H412  1  0.417800  0.964100  0.797000  1.0
  H  H413  1  0.797000  0.417800  0.964100  1.0
  H  H414  1  0.964100  0.797000  0.417800  1.0
  H  H415  1  0.619100  0.013500  0.118300  1.0
  H  H416  1  0.118300  0.619100  0.013500  1.0
  H  H417  1  0.013500  0.118300  0.619100  1.0
  H  H418  1  0.380900  0.986500  0.881700  1.0
  H  H419  1  0.881700  0.380900  0.986500  1.0
  H  H420  1  0.986500  0.881700  0.380900  1.0
  H  H421  1  0.630300  0.952200  0.136600  1.0
  H  H422  1  0.136600  0.630300  0.952200  1.0
  H  H423  1  0.952200  0.136600  0.630300  1.0
  H  H424  1  0.369700  0.047800  0.863400  1.0
  H  H425  1  0.863400  0.369700  0.047800  1.0
  H  H426  1  0.047800  0.863400  0.369700  1.0
  H  H427  1  0.452300  0.898400  0.220500  1.0
  H  H428  1  0.220500  0.452300  0.898400  1.0
  H  H429  1  0.898400  0.220500  0.452300  1.0
  H  H430  1  0.547700  0.101600  0.779500  1.0
  H  H431  1  0.779500  0.547700  0.101600  1.0
  H  H432  1  0.101600  0.779500  0.547700  1.0
  H  H433  1  0.479100  0.931200  0.274900  1.0
  H  H434  1  0.274900  0.479100  0.931200  1.0
  H  H435  1  0.931200  0.274900  0.479100  1.0
  H  H436  1  0.520900  0.068800  0.725100  1.0
  H  H437  1  0.725100  0.520900  0.068800  1.0
  H  H438  1  0.068800  0.725100  0.520900  1.0
  H  H439  1  0.505100  0.875300  0.252600  1.0
  H  H440  1  0.252600  0.505100  0.875300  1.0
  H  H441  1  0.875300  0.252600  0.505100  1.0
  H  H442  1  0.494900  0.124700  0.747400  1.0
  H  H443  1  0.747400  0.494900  0.124700  1.0
  H  H444  1  0.124700  0.747400  0.494900  1.0
  H  H445  1  0.500300  0.948100  0.051100  1.0
  H  H446  1  0.051100  0.500300  0.948100  1.0
  H  H447  1  0.948100  0.051100  0.500300  1.0
  H  H448  1  0.499700  0.051900  0.948900  1.0
  H  H449  1  0.948900  0.499700  0.051900  1.0
  H  H450  1  0.051900  0.948900  0.499700  1.0
  H  H451  1  0.564300  0.938500  0.041700  1.0
  H  H452  1  0.041700  0.564300  0.938500  1.0
  H  H453  1  0.938500  0.041700  0.564300  1.0
  H  H454  1  0.435700  0.061500  0.958300  1.0
  H  H455  1  0.958300  0.435700  0.061500  1.0
  H  H456  1  0.061500  0.958300  0.435700  1.0
  H  H457  1  0.542800  0.000100  0.046300  1.0
  H  H458  1  0.046300  0.542800  0.000100  1.0
  H  H459  1  0.000100  0.046300  0.542800  1.0
  H  H460  1  0.457200  0.999900  0.953700  1.0
  H  H461  1  0.953700  0.457200  0.999900  1.0
  H  H462  1  0.999900  0.953700  0.457200  1.0
  Mo  Mo463  1  0.375744  0.933600  0.105184  1.0
  Mo  Mo464  1  0.105184  0.375744  0.933600  1.0
  Mo  Mo465  1  0.933600  0.105184  0.375744  1.0
  Mo  Mo466  1  0.624256  0.066400  0.894816  1.0
  Mo  Mo467  1  0.894816  0.624256  0.066400  1.0
  Mo  Mo468  1  0.066400  0.894816  0.624256  1.0
  Mo  Mo469  1  0.292806  0.947882  0.082388  1.0
  Mo  Mo470  1  0.082388  0.292806  0.947882  1.0
  Mo  Mo471  1  0.947882  0.082388  0.292806  1.0
  Mo  Mo472  1  0.707194  0.052118  0.917612  1.0
  Mo  Mo473  1  0.917612  0.707194  0.052118  1.0
  Mo  Mo474  1  0.052118  0.917612  0.707194  1.0
  N  N475  1  0.521800  0.841410  0.143580  1
  N  N476  1  0.143580  0.521800  0.841410  1
  N  N477  1  0.841410  0.143580  0.521800  1
  N  N478  1  0.478200  0.158590  0.856420  1
  N  N479  1  0.856420  0.478200  0.158590  1
  N  N480  1  0.158590  0.856420  0.478200  1
  N  N481  1  0.547400  0.908740  0.083380  1
  N  N482  1  0.083380  0.547400  0.908740  1
  N  N483  1  0.908740  0.083380  0.547400  1
  N  N484  1  0.452600  0.091260  0.916620  1
  N  N485  1  0.916620  0.452600  0.091260  1
  N  N486  1  0.091260  0.916620  0.452600  1
  N  N487  1  0.383430  0.846760  0.766630  1.0
  N  N488  1  0.766630  0.383430  0.846760  1.0
  N  N489  1  0.846760  0.766630  0.383430  1.0
  N  N490  1  0.616570  0.153240  0.233370  1.0
  N  N491  1  0.233370  0.616570  0.153240  1.0
  N  N492  1  0.153240  0.233370  0.616570  1.0
  N  N493  1  0.268250  0.033080  0.417170  1.0
  N  N494  1  0.417170  0.268250  0.033080  1.0
  N  N495  1  0.033080  0.417170  0.268250  1.0
  N  N496  1  0.731750  0.966920  0.582830  1.0
  N  N497  1  0.582830  0.731750  0.966920  1.0
  N  N498  1  0.966920  0.582830  0.731750  1.0
  N  N499  1  0.523940  0.941190  0.207380  1.0
  N  N500  1  0.207380  0.523940  0.941190  1.0
  N  N501  1  0.941190  0.207380  0.523940  1.0
  N  N502  1  0.476060  0.058810  0.792620  1.0
  N  N503  1  0.792620  0.476060  0.058810  1.0
  N  N504  1  0.058810  0.792620  0.476060  1.0
  N  N505  1  0.549710  0.964510  0.120010  1.0
  N  N506  1  0.120010  0.549710  0.964510  1.0
  N  N507  1  0.964510  0.120010  0.549710  1.0
  N  N508  1  0.450290  0.035490  0.879990  1.0
  N  N509  1  0.879990  0.450290  0.035490  1.0
  N  N510  1  0.035490  0.879990  0.450290  1.0
  O  O511  1  0.391290  0.910460  0.022340  1.0
  O  O512  1  0.022340  0.391290  0.910460  1.0
  O  O513  1  0.910460  0.022340  0.391290  1.0
  O  O514  1  0.608710  0.089540  0.977660  1.0
  O  O515  1  0.977660  0.608710  0.089540  1.0
  O  O516  1  0.089540  0.977660  0.608710  1.0
  O  O517  1  0.304490  0.925380  0.999270  1.0
  O  O518  1  0.999270  0.304490  0.925380  1.0
  O  O519  1  0.925380  0.999270  0.304490  1.0
  O  O520  1  0.695510  0.074620  0.000730  1.0
  O  O521  1  0.000730  0.695510  0.074620  1.0
  O  O522  1  0.074620  0.000730  0.695510  1.0
  O  O523  1  0.149610  0.878840  0.645300  1.0
  O  O524  1  0.645300  0.149610  0.878840  1.0
  O  O525  1  0.878840  0.645300  0.149610  1.0
  O  O526  1  0.850390  0.121160  0.354700  1.0
  O  O527  1  0.354700  0.850390  0.121160  1.0
  O  O528  1  0.121160  0.354700  0.850390  1.0
  O  O529  1  0.134070  0.903050  0.732180  1.0
  O  O530  1  0.732180  0.134070  0.903050  1.0
  O  O531  1  0.903050  0.732180  0.134070  1.0
  O  O532  1  0.865930  0.096950  0.267820  1.0
  O  O533  1  0.267820  0.865930  0.096950  1.0
  O  O534  1  0.096950  0.267820  0.865930  1.0
  O  O535  1  0.362910  0.955760  0.188840  1.0
  O  O536  1  0.188840  0.362910  0.955760  1.0
  O  O537  1  0.955760  0.188840  0.362910  1.0
  O  O538  1  0.637090  0.044240  0.811160  1.0
  O  O539  1  0.811160  0.637090  0.044240  1.0
  O  O540  1  0.044240  0.811160  0.637090  1.0
  O  O541  1  0.276270  0.971210  0.164300  1.0
  O  O542  1  0.164300  0.276270  0.971210  1.0
  O  O543  1  0.971210  0.164300  0.276270  1.0
  O  O544  1  0.723730  0.028790  0.835700  1.0
  O  O545  1  0.835700  0.723730  0.028790  1.0
  O  O546  1  0.028790  0.835700  0.723730  1.0
  O  O547  1  0.016180  0.090970  0.399910  1.0
  O  O548  1  0.399910  0.016180  0.090970  1.0
  O  O549  1  0.090970  0.399910  0.016180  1.0
  O  O550  1  0.983820  0.909030  0.600090  1.0
  O  O551  1  0.600090  0.983820  0.909030  1.0
  O  O552  1  0.909030  0.600090  0.983820  1.0
  O  O553  1  0.031410  0.067130  0.312760  1.0
  O  O554  1  0.312760  0.031410  0.067130  1.0
  O  O555  1  0.067130  0.312760  0.031410  1.0
  O  O556  1  0.968590  0.932870  0.687240  1.0
  O  O557  1  0.687240  0.968590  0.932870  1.0
  O  O558  1  0.932870  0.687240  0.968590  1.0
  O  O559  1  0.469180  0.915390  0.130980  1.0
  O  O560  1  0.130980  0.469180  0.915390  1.0
  O  O561  1  0.915390  0.130980  0.469180  1.0
  O  O562  1  0.530820  0.084610  0.869020  1.0
  O  O563  1  0.869020  0.530820  0.084610  1.0
  O  O564  1  0.084610  0.869020  0.530820  1.0
