# generated using pymatgen
data_Ni4H120C138S(N18O5)2
_symmetry_space_group_name_H-M   'P 1'
_cell_length_a   17.14957414
_cell_length_b   17.14957414
_cell_length_c   17.14957414
_cell_angle_alpha   106.42284763
_cell_angle_beta   106.42284763
_cell_angle_gamma   106.42284763
_symmetry_Int_Tables_number   1
_chemical_formula_structural   Ni4H120C138S(N18O5)2
_chemical_formula_sum   'Ni4 H120 C138 S1 N36 O10'
_cell_volume   4264.95185135
_cell_formula_units_Z   1
loop_
 _symmetry_equiv_pos_site_id
 _symmetry_equiv_pos_as_xyz
  1  'x, y, z'
loop_
 _atom_site_type_symbol
 _atom_site_label
 _atom_site_symmetry_multiplicity
 _atom_site_fract_x
 _atom_site_fract_y
 _atom_site_fract_z
 _atom_site_occupancy
  C  C1  1  0.113300  0.254300  0.247800  1.0
  C  C2  1  0.247800  0.113300  0.254300  1.0
  C  C3  1  0.254300  0.247800  0.113300  1.0
  C  C4  1  0.034500  0.265800  0.226000  1.0
  C  C5  1  0.226000  0.034500  0.265800  1.0
  C  C6  1  0.265800  0.226000  0.034500  1.0
  C  C7  1  0.038800  0.346100  0.224800  1.0
  C  C8  1  0.224800  0.038800  0.346100  1.0
  C  C9  1  0.346100  0.224800  0.038800  1.0
  C  C10  1  0.117000  0.413500  0.251400  1.0
  C  C11  1  0.251400  0.117000  0.413500  1.0
  C  C12  1  0.413500  0.251400  0.117000  1.0
  C  C13  1  0.195800  0.401800  0.273100  1.0
  C  C14  1  0.273100  0.195800  0.401800  1.0
  C  C15  1  0.401800  0.273100  0.195800  1.0
  C  C16  1  0.282900  0.469000  0.298500  1.0
  C  C17  1  0.298500  0.282900  0.469000  1.0
  C  C18  1  0.469000  0.298500  0.282900  1.0
  C  C19  1  0.297300  0.552600  0.299800  1.0
  C  C20  1  0.299800  0.297300  0.552600  1.0
  C  C21  1  0.552600  0.299800  0.297300  1.0
  C  C22  1  0.379200  0.613800  0.321700  1.0
  C  C23  1  0.321700  0.379200  0.613800  1.0
  C  C24  1  0.613800  0.321700  0.379200  1.0
  C  C25  1  0.450500  0.589500  0.347000  1.0
  C  C26  1  0.347000  0.450500  0.589500  1.0
  C  C27  1  0.589500  0.347000  0.450500  1.0
  C  C28  1  0.430900  0.504100  0.343400  1.0
  C  C29  1  0.343400  0.430900  0.504100  1.0
  C  C30  1  0.504100  0.343400  0.430900  1.0
  C  C31  1  0.543100  0.655300  0.369500  1.0
  C  C32  1  0.369500  0.543100  0.655300  1.0
  C  C33  1  0.655300  0.369500  0.543100  1.0
  C  C34  1  0.661600  0.596600  0.407500  1.0
  C  C35  1  0.407500  0.661600  0.596600  1.0
  C  C36  1  0.596600  0.407500  0.661600  1.0
  C  C37  1  0.194500  0.958800  0.576500  1.0
  C  C38  1  0.576500  0.194500  0.958800  1.0
  C  C39  1  0.958800  0.576500  0.194500  1.0
  C  C40  1  0.270900  0.942000  0.588300  1.0
  C  C41  1  0.588300  0.270900  0.942000  1.0
  C  C42  1  0.942000  0.588300  0.270900  1.0
  C  C43  1  0.270300  0.859600  0.578000  1.0
  C  C44  1  0.578000  0.270300  0.859600  1.0
  C  C45  1  0.859600  0.578000  0.270300  1.0
  C  C46  1  0.192600  0.788900  0.553900  1.0
  C  C47  1  0.553900  0.192600  0.788900  1.0
  C  C48  1  0.788900  0.553900  0.192600  1.0
  C  C49  1  0.117200  0.807400  0.549900  1.0
  C  C50  1  0.549900  0.117200  0.807400  1.0
  C  C51  1  0.807400  0.549900  0.117200  1.0
  C  C52  1  0.034900  0.740900  0.531300  1.0
  C  C53  1  0.531300  0.034900  0.740900  1.0
  C  C54  1  0.740900  0.531300  0.034900  1.0
  C  C55  1  0.022200  0.655100  0.521800  1.0
  C  C56  1  0.521800  0.022200  0.655100  1.0
  C  C57  1  0.655100  0.521800  0.022200  1.0
  C  C58  1  0.940200  0.592500  0.499900  1.0
  C  C59  1  0.499900  0.940200  0.592500  1.0
  C  C60  1  0.592500  0.499900  0.940200  1.0
  C  C61  1  0.869100  0.617300  0.489200  1.0
  C  C62  1  0.489200  0.869100  0.617300  1.0
  C  C63  1  0.617300  0.489200  0.869100  1.0
  C  C64  1  0.885000  0.702700  0.496500  1.0
  C  C65  1  0.496500  0.885000  0.702700  1.0
  C  C66  1  0.702700  0.496500  0.885000  1.0
  C  C67  1  0.774700  0.549700  0.461300  1.0
  C  C68  1  0.461300  0.774700  0.549700  1.0
  C  C69  1  0.549700  0.461300  0.774700  1.0
  C  C70  1  0.006800  0.830200  0.344100  1.0
  C  C71  1  0.344100  0.006800  0.830200  1.0
  C  C72  1  0.830200  0.344100  0.006800  1.0
  C  C73  1  0.973000  0.795200  0.251200  1.0
  C  C74  1  0.251200  0.973000  0.795200  1.0
  C  C75  1  0.795200  0.251200  0.973000  1.0
  C  C76  1  0.884500  0.776700  0.206400  1.0
  C  C77  1  0.206400  0.884500  0.776700  1.0
  C  C78  1  0.776700  0.206400  0.884500  1.0
  C  C79  1  0.839600  0.799500  0.254300  1.0
  C  C80  1  0.254300  0.839600  0.799500  1.0
  C  C81  1  0.799500  0.254300  0.839600  1.0
  C  C82  1  0.873300  0.834300  0.345700  1.0
  C  C83  1  0.345700  0.873300  0.834300  1.0
  C  C84  1  0.834300  0.345700  0.873300  1.0
  C  C85  1  0.825300  0.856000  0.400200  1.0
  C  C86  1  0.400200  0.825300  0.856000  1.0
  C  C87  1  0.856000  0.400200  0.825300  1.0
  C  C88  1  0.739100  0.849100  0.362500  1.0
  C  C89  1  0.362500  0.739100  0.849100  1.0
  C  C90  1  0.849100  0.362500  0.739100  1.0
  C  C91  1  0.694500  0.869300  0.415400  1.0
  C  C92  1  0.415400  0.694500  0.869300  1.0
  C  C93  1  0.869300  0.415400  0.694500  1.0
  C  C94  1  0.738100  0.899200  0.504800  1.0
  C  C95  1  0.504800  0.738100  0.899200  1.0
  C  C96  1  0.899200  0.504800  0.738100  1.0
  C  C97  1  0.820300  0.902200  0.537500  1.0
  C  C98  1  0.537500  0.820300  0.902200  1.0
  C  C99  1  0.902200  0.537500  0.820300  1.0
  C  C100  1  0.688100  0.921200  0.564300  1.0
  C  C101  1  0.564300  0.688100  0.921200  1.0
  C  C102  1  0.921200  0.564300  0.688100  1.0
  C  C103  1  0.772100  0.973200  0.728000  1.0
  C  C104  1  0.728000  0.772100  0.973200  1.0
  C  C105  1  0.973200  0.728000  0.772100  1.0
  C  C106  1  0.496800  0.049200  0.066800  1.0
  C  C107  1  0.066800  0.496800  0.049200  1.0
  C  C108  1  0.049200  0.066800  0.496800  1.0
  C  C109  1  0.523300  0.080000  0.156200  1.0
  C  C110  1  0.156200  0.523300  0.080000  1.0
  C  C111  1  0.080000  0.156200  0.523300  1.0
  C  C112  1  0.610800  0.109900  0.210700  1.0
  C  C113  1  0.210700  0.610800  0.109900  1.0
  C  C114  1  0.109900  0.210700  0.610800  1.0
  C  C115  1  0.672500  0.104800  0.173300  1.0
  C  C116  1  0.173300  0.672500  0.104800  1.0
  C  C117  1  0.104800  0.173300  0.672500  1.0
  C  C118  1  0.641700  0.067400  0.081600  1.0
  C  C119  1  0.081600  0.641700  0.067400  1.0
  C  C120  1  0.067400  0.081600  0.641700  1.0
  C  C121  1  0.702900  0.055700  0.036600  1.0
  C  C122  1  0.036600  0.702900  0.055700  1.0
  C  C123  1  0.055700  0.036600  0.702900  1.0
  C  C124  1  0.790400  0.073700  0.076900  1.0
  C  C125  1  0.076900  0.790400  0.073700  1.0
  C  C126  1  0.073700  0.076900  0.790400  1.0
  C  C127  1  0.841300  0.057600  0.027700  1.0
  C  C128  1  0.027700  0.841300  0.057600  1.0
  C  C129  1  0.057600  0.027700  0.841300  1.0
  C  C130  1  0.799500  0.020500  0.936800  1.0
  C  C131  1  0.936800  0.799500  0.020500  1.0
  C  C132  1  0.020500  0.936800  0.799500  1.0
  C  C133  1  0.710700  0.003500  0.903400  1.0
  C  C134  1  0.903400  0.710700  0.003500  1.0
  C  C135  1  0.003500  0.903400  0.710700  1.0
  C  C136  1  0.850800  0.010300  0.883100  1.0
  C  C137  1  0.883100  0.850800  0.010300  1.0
  C  C138  1  0.010300  0.883100  0.850800  1.0
  H  H139  1  0.615300  0.662400  0.486100  1.0
  H  H140  1  0.486100  0.615300  0.662400  1.0
  H  H141  1  0.662400  0.486100  0.615300  1.0
  H  H142  1  0.711500  0.604400  0.524400  1.0
  H  H143  1  0.524400  0.711500  0.604400  1.0
  H  H144  1  0.604400  0.524400  0.711500  1.0
  H  H145  1  0.703400  0.849300  0.640700  1.0
  H  H146  1  0.640700  0.703400  0.849300  1.0
  H  H147  1  0.849300  0.640700  0.703400  1.0
  H  H148  1  0.785400  0.889900  0.778200  1.0
  H  H149  1  0.778200  0.785400  0.889900  1.0
  H  H150  1  0.889900  0.778200  0.785400  1.0
  H  H151  1  0.112300  0.197500  0.243200  1.0
  H  H152  1  0.243200  0.112300  0.197500  1.0
  H  H153  1  0.197500  0.243200  0.112300  1.0
  H  H154  1  0.980000  0.220100  0.212500  1.0
  H  H155  1  0.212500  0.980000  0.220100  1.0
  H  H156  1  0.220100  0.212500  0.980000  1.0
  H  H157  1  0.985500  0.354700  0.204700  1.0
  H  H158  1  0.204700  0.985500  0.354700  1.0
  H  H159  1  0.354700  0.204700  0.985500  1.0
  H  H160  1  0.118000  0.470100  0.255300  1.0
  H  H161  1  0.255300  0.118000  0.470100  1.0
  H  H162  1  0.470100  0.255300  0.118000  1.0
  H  H163  1  0.247900  0.568300  0.284600  1.0
  H  H164  1  0.284600  0.247900  0.568300  1.0
  H  H165  1  0.568300  0.284600  0.247900  1.0
  H  H166  1  0.387300  0.670300  0.319800  1.0
  H  H167  1  0.319800  0.387300  0.670300  1.0
  H  H168  1  0.670300  0.319800  0.387300  1.0
  H  H169  1  0.479500  0.487400  0.359500  1.0
  H  H170  1  0.359500  0.479500  0.487400  1.0
  H  H171  1  0.487400  0.359500  0.479500  1.0
  H  H172  1  0.554200  0.647900  0.314800  1.0
  H  H173  1  0.314800  0.554200  0.647900  1.0
  H  H174  1  0.647900  0.314800  0.554200  1.0
  H  H175  1  0.547100  0.716500  0.395500  1.0
  H  H176  1  0.395500  0.547100  0.716500  1.0
  H  H177  1  0.716500  0.395500  0.547100  1.0
  H  H178  1  0.195100  0.015700  0.582900  1.0
  H  H179  1  0.582900  0.195100  0.015700  1.0
  H  H180  1  0.015700  0.582900  0.195100  1.0
  H  H181  1  0.325200  0.989100  0.603900  1.0
  H  H182  1  0.603900  0.325200  0.989100  1.0
  H  H183  1  0.989100  0.603900  0.325200  1.0
  H  H184  1  0.324000  0.851000  0.587500  1.0
  H  H185  1  0.587500  0.324000  0.851000  1.0
  H  H186  1  0.851000  0.587500  0.324000  1.0
  H  H187  1  0.190200  0.730400  0.540700  1.0
  H  H188  1  0.540700  0.190200  0.730400  1.0
  H  H189  1  0.730400  0.540700  0.190200  1.0
  H  H190  1  0.071600  0.638800  0.530700  1.0
  H  H191  1  0.530700  0.071600  0.638800  1.0
  H  H192  1  0.638800  0.530700  0.071600  1.0
  H  H193  1  0.932500  0.533400  0.492300  1.0
  H  H194  1  0.492300  0.932500  0.533400  1.0
  H  H195  1  0.533400  0.492300  0.932500  1.0
  H  H196  1  0.836100  0.719700  0.486400  1.0
  H  H197  1  0.486400  0.836100  0.719700  1.0
  H  H198  1  0.719700  0.486400  0.836100  1.0
  H  H199  1  0.752600  0.510100  0.398200  1.0
  H  H200  1  0.398200  0.752600  0.510100  1.0
  H  H201  1  0.510100  0.398200  0.752600  1.0
  H  H202  1  0.777500  0.512800  0.496300  1.0
  H  H203  1  0.496300  0.777500  0.512800  1.0
  H  H204  1  0.512800  0.496300  0.777500  1.0
  H  H205  1  0.066300  0.839600  0.375400  1.0
  H  H206  1  0.375400  0.066300  0.839600  1.0
  H  H207  1  0.839600  0.375400  0.066300  1.0
  H  H208  1  0.009500  0.784600  0.220200  1.0
  H  H209  1  0.220200  0.009500  0.784600  1.0
  H  H210  1  0.784600  0.220200  0.009500  1.0
  H  H211  1  0.856900  0.748700  0.143800  1.0
  H  H212  1  0.143800  0.856900  0.748700  1.0
  H  H213  1  0.748700  0.143800  0.856900  1.0
  H  H214  1  0.780400  0.791500  0.223700  1.0
  H  H215  1  0.223700  0.780400  0.791500  1.0
  H  H216  1  0.791500  0.223700  0.780400  1.0
  H  H217  1  0.711000  0.830400  0.300100  1.0
  H  H218  1  0.300100  0.711000  0.830400  1.0
  H  H219  1  0.830400  0.300100  0.711000  1.0
  H  H220  1  0.634900  0.862600  0.390500  1.0
  H  H221  1  0.390500  0.634900  0.862600  1.0
  H  H222  1  0.862600  0.390500  0.634900  1.0
  H  H223  1  0.848500  0.920200  0.599600  1.0
  H  H224  1  0.599600  0.848500  0.920200  1.0
  H  H225  1  0.920200  0.599600  0.848500  1.0
  H  H226  1  0.697000  0.984400  0.581300  1.0
  H  H227  1  0.581300  0.697000  0.984400  1.0
  H  H228  1  0.984400  0.581300  0.697000  1.0
  H  H229  1  0.624000  0.885000  0.530800  1.0
  H  H230  1  0.530800  0.624000  0.885000  1.0
  H  H231  1  0.885000  0.530800  0.624000  1.0
  H  H232  1  0.436600  0.031700  0.030200  1.0
  H  H233  1  0.030200  0.436600  0.031700  1.0
  H  H234  1  0.031700  0.030200  0.436600  1.0
  H  H235  1  0.480700  0.080900  0.181400  1.0
  H  H236  1  0.181400  0.480700  0.080900  1.0
  H  H237  1  0.080900  0.181400  0.480700  1.0
  H  H238  1  0.629100  0.133900  0.273100  1.0
  H  H239  1  0.273100  0.629100  0.133900  1.0
  H  H240  1  0.133900  0.273100  0.629100  1.0
  H  H241  1  0.733600  0.126100  0.209400  1.0
  H  H242  1  0.209400  0.733600  0.126100  1.0
  H  H243  1  0.126100  0.209400  0.733600  1.0
  H  H244  1  0.817600  0.097700  0.139700  1.0
  H  H245  1  0.139700  0.817600  0.097700  1.0
  H  H246  1  0.097700  0.139700  0.817600  1.0
  H  H247  1  0.902700  0.071800  0.056200  1.0
  H  H248  1  0.056200  0.902700  0.071800  1.0
  H  H249  1  0.071800  0.056200  0.902700  1.0
  H  H250  1  0.681500  0.977800  0.840700  1.0
  H  H251  1  0.840700  0.681500  0.977800  1.0
  H  H252  1  0.977800  0.840700  0.681500  1.0
  H  H253  1  0.896700  0.991000  0.910800  1.0
  H  H254  1  0.910800  0.896700  0.991000  1.0
  H  H255  1  0.991000  0.910800  0.896700  1.0
  H  H256  1  0.881500  0.068600  0.883200  1.0
  H  H257  1  0.883200  0.881500  0.068600  1.0
  H  H258  1  0.068600  0.883200  0.881500  1.0
  N  N259  1  0.192800  0.322700  0.276000  1.0
  N  N260  1  0.276000  0.192800  0.322700  1.0
  N  N261  1  0.322700  0.276000  0.192800  1.0
  N  N262  1  0.350300  0.442700  0.319500  1.0
  N  N263  1  0.319500  0.350300  0.442700  1.0
  N  N264  1  0.442700  0.319500  0.350300  1.0
  N  N265  1  0.607700  0.641600  0.430200  1.0
  N  N266  1  0.430200  0.607700  0.641600  1.0
  N  N267  1  0.641600  0.430200  0.607700  1.0
  N  N268  1  0.714300  0.586900  0.472200  1.0
  N  N269  1  0.472200  0.714300  0.586900  1.0
  N  N270  1  0.586900  0.472200  0.714300  1.0
  N  N271  1  0.718900  0.904300  0.644900  1.0
  N  N272  1  0.644900  0.718900  0.904300  1.0
  N  N273  1  0.904300  0.644900  0.718900  1.0
  N  N274  1  0.798760  0.946840  0.791000  1.0
  N  N275  1  0.791000  0.798760  0.946840  1.0
  N  N276  1  0.946840  0.791000  0.798760  1.0
  N  N277  1  0.117900  0.888300  0.555000  1.0
  N  N278  1  0.555000  0.117900  0.888300  1.0
  N  N279  1  0.888300  0.555000  0.117900  1.0
  N  N280  1  0.964600  0.763900  0.517100  1.0
  N  N281  1  0.517100  0.964600  0.763900  1.0
  N  N282  1  0.763900  0.517100  0.964600  1.0
  N  N283  1  0.958700  0.851000  0.391500  1.0
  N  N284  1  0.391500  0.958700  0.851000  1.0
  N  N285  1  0.851000  0.391500  0.958700  1.0
  N  N286  1  0.865200  0.881400  0.487600  1.0
  N  N287  1  0.487600  0.865200  0.881400  1.0
  N  N288  1  0.881400  0.487600  0.865200  1.0
  N  N289  1  0.556600  0.043300  0.029400  1.0
  N  N290  1  0.029400  0.556600  0.043300  1.0
  N  N291  1  0.043300  0.029400  0.556600  1.0
  N  N292  1  0.660100  0.018600  0.947600  1.0
  N  N293  1  0.947600  0.660100  0.018600  1.0
  N  N294  1  0.018600  0.947600  0.660100  1.0
  Ni  Ni295  1  0.318373  0.318373  0.318373  1
  Ni  Ni296  1  0.995460  0.894420  0.528550  1.0
  Ni  Ni297  1  0.528550  0.995460  0.894420  1.0
  Ni  Ni298  1  0.894420  0.528550  0.995460  1.0
  O  O299  1  0.761933  0.761933  0.761933  1
  O  O300  1  0.660400  0.576300  0.330900  1.0
  O  O301  1  0.330900  0.660400  0.576300  1.0
  O  O302  1  0.576300  0.330900  0.660400  1.0
  O  O303  1  0.793460  0.050800  0.739140  1.0
  O  O304  1  0.739140  0.793460  0.050800  1.0
  O  O305  1  0.050800  0.739140  0.793460  1.0
  O  O306  1  0.621460  0.649640  0.718300  1.0
  O  O307  1  0.718300  0.621460  0.649640  1.0
  O  O308  1  0.649640  0.718300  0.621460  1.0
  S  S309  1  0.687453  0.687453  0.687453  1
