# generated using pymatgen
data_Ni4PH120C138N39O41
_symmetry_space_group_name_H-M   'P 1'
_cell_length_a   17.17615097
_cell_length_b   17.17615097
_cell_length_c   17.17615097
_cell_angle_alpha   106.49323805
_cell_angle_beta   106.49323805
_cell_angle_gamma   106.49323805
_symmetry_Int_Tables_number   1
_chemical_formula_structural   Ni4PH120C138N39O41
_chemical_formula_sum   'Ni4 P1 H120 C138 N39 O41'
_cell_volume   4277.10261997
_cell_formula_units_Z   1
loop_
 _symmetry_equiv_pos_site_id
 _symmetry_equiv_pos_as_xyz
  1  'x, y, z'
loop_
 _atom_site_type_symbol
 _atom_site_label
 _atom_site_symmetry_multiplicity
 _atom_site_fract_x
 _atom_site_fract_y
 _atom_site_fract_z
 _atom_site_occupancy
  C  C1  1  0.351300  0.009600  0.833500  1.0
  C  C2  1  0.833500  0.351300  0.009600  1.0
  C  C3  1  0.009600  0.833500  0.351300  1.0
  C  C4  1  0.258600  0.976900  0.798100  1.0
  C  C5  1  0.798100  0.258600  0.976900  1.0
  C  C6  1  0.976900  0.798100  0.258600  1.0
  C  C7  1  0.213500  0.895400  0.784600  1.0
  C  C8  1  0.784600  0.213500  0.895400  1.0
  C  C9  1  0.895400  0.784600  0.213500  1.0
  C  C10  1  0.258400  0.840500  0.805100  1.0
  C  C11  1  0.805100  0.258400  0.840500  1.0
  C  C12  1  0.840500  0.805100  0.258400  1.0
  C  C13  1  0.346500  0.876800  0.839100  1.0
  C  C14  1  0.839100  0.346500  0.876800  1.0
  C  C15  1  0.876800  0.839100  0.346500  1.0
  C  C16  1  0.402500  0.824600  0.863500  1.0
  C  C17  1  0.863500  0.402500  0.824600  1.0
  C  C18  1  0.824600  0.863500  0.402500  1.0
  C  C19  1  0.365000  0.742100  0.858400  1.0
  C  C20  1  0.858400  0.365000  0.742100  1.0
  C  C21  1  0.742100  0.858400  0.365000  1.0
  C  C22  1  0.418500  0.702500  0.880200  1.0
  C  C23  1  0.880200  0.418500  0.702500  1.0
  C  C24  1  0.702500  0.880200  0.418500  1.0
  C  C25  1  0.509300  0.741700  0.902000  1.0
  C  C26  1  0.902000  0.509300  0.741700  1.0
  C  C27  1  0.741700  0.902000  0.509300  1.0
  C  C28  1  0.541900  0.825000  0.910600  1.0
  C  C29  1  0.910600  0.541900  0.825000  1.0
  C  C30  1  0.825000  0.910600  0.541900  1.0
  C  C31  1  0.563300  0.688400  0.919300  1.0
  C  C32  1  0.919300  0.563300  0.688400  1.0
  C  C33  1  0.688400  0.919300  0.563300  1.0
  C  C34  1  0.724500  0.773300  0.975000  1.0
  C  C35  1  0.975000  0.724500  0.773300  1.0
  C  C36  1  0.773300  0.975000  0.724500  1.0
  C  C37  1  0.879800  0.852600  0.006500  1.0
  C  C38  1  0.006500  0.879800  0.852600  1.0
  C  C39  1  0.852600  0.006500  0.879800  1.0
  C  C40  1  0.903400  0.713100  0.004200  1.0
  C  C41  1  0.004200  0.903400  0.713100  1.0
  C  C42  1  0.713100  0.004200  0.903400  1.0
  C  C43  1  0.939400  0.803700  0.024000  1.0
  C  C44  1  0.024000  0.939400  0.803700  1.0
  C  C45  1  0.803700  0.024000  0.939400  1.0
  C  C46  1  0.029500  0.843300  0.062600  1.0
  C  C47  1  0.062600  0.029500  0.843300  1.0
  C  C48  1  0.843300  0.062600  0.029500  1.0
  C  C49  1  0.079500  0.792200  0.081100  1.0
  C  C50  1  0.081100  0.079500  0.792200  1.0
  C  C51  1  0.792200  0.081100  0.079500  1.0
  C  C52  1  0.033300  0.701800  0.056300  1.0
  C  C53  1  0.056300  0.033300  0.701800  1.0
  C  C54  1  0.701800  0.056300  0.033300  1.0
  C  C55  1  0.066500  0.501200  0.053000  1.0
  C  C56  1  0.053000  0.066500  0.501200  1.0
  C  C57  1  0.501200  0.053000  0.066500  1.0
  C  C58  1  0.158200  0.527500  0.085900  1.0
  C  C59  1  0.085900  0.158200  0.527500  1.0
  C  C60  1  0.527500  0.085900  0.158200  1.0
  C  C61  1  0.209400  0.609900  0.112500  1.0
  C  C62  1  0.112500  0.209400  0.609900  1.0
  C  C63  1  0.609900  0.112500  0.209400  1.0
  C  C64  1  0.175200  0.677200  0.111800  1.0
  C  C65  1  0.111800  0.175200  0.677200  1.0
  C  C66  1  0.677200  0.111800  0.175200  1.0
  C  C67  1  0.084800  0.646100  0.075200  1.0
  C  C68  1  0.075200  0.084800  0.646100  1.0
  C  C69  1  0.646100  0.075200  0.084800  1.0
  C  C70  1  0.576000  0.194800  0.954600  1.0
  C  C71  1  0.954600  0.576000  0.194800  1.0
  C  C72  1  0.194800  0.954600  0.576000  1.0
  C  C73  1  0.591300  0.272600  0.943700  1.0
  C  C74  1  0.943700  0.591300  0.272600  1.0
  C  C75  1  0.272600  0.943700  0.591300  1.0
  C  C76  1  0.589000  0.275200  0.867200  1.0
  C  C77  1  0.867200  0.589000  0.275200  1.0
  C  C78  1  0.275200  0.867200  0.589000  1.0
  C  C79  1  0.572400  0.198200  0.793400  1.0
  C  C80  1  0.793400  0.572400  0.198200  1.0
  C  C81  1  0.198200  0.793400  0.572400  1.0
  C  C82  1  0.554200  0.120600  0.808800  1.0
  C  C83  1  0.808800  0.554200  0.120600  1.0
  C  C84  1  0.120600  0.808800  0.554200  1.0
  C  C85  1  0.534800  0.035700  0.743600  1.0
  C  C86  1  0.743600  0.534800  0.035700  1.0
  C  C87  1  0.035700  0.743600  0.534800  1.0
  C  C88  1  0.526300  0.022400  0.655900  1.0
  C  C89  1  0.655900  0.526300  0.022400  1.0
  C  C90  1  0.022400  0.655900  0.526300  1.0
  C  C91  1  0.501400  0.939500  0.594200  1.0
  C  C92  1  0.594200  0.501400  0.939500  1.0
  C  C93  1  0.939500  0.594200  0.501400  1.0
  C  C94  1  0.490800  0.870800  0.621300  1.0
  C  C95  1  0.621300  0.490800  0.870800  1.0
  C  C96  1  0.870800  0.621300  0.490800  1.0
  C  C97  1  0.501300  0.886100  0.706800  1.0
  C  C98  1  0.706800  0.501300  0.886100  1.0
  C  C99  1  0.886100  0.706800  0.501300  1.0
  C  C100  1  0.463800  0.776800  0.553600  1.0
  C  C101  1  0.553600  0.463800  0.776800  1.0
  C  C102  1  0.776800  0.553600  0.463800  1.0
  C  C103  1  0.414800  0.664500  0.609000  1.0
  C  C104  1  0.609000  0.414800  0.664500  1.0
  C  C105  1  0.664500  0.609000  0.414800  1.0
  C  C106  1  0.376400  0.546100  0.659600  1.0
  C  C107  1  0.659600  0.376400  0.546100  1.0
  C  C108  1  0.546100  0.659600  0.376400  1.0
  C  C109  1  0.351900  0.436800  0.512600  1.0
  C  C110  1  0.512600  0.351900  0.436800  1.0
  C  C111  1  0.436800  0.512600  0.351900  1.0
  C  C112  1  0.352900  0.456200  0.597500  1.0
  C  C113  1  0.597500  0.352900  0.456200  1.0
  C  C114  1  0.456200  0.597500  0.352900  1.0
  C  C115  1  0.330200  0.382100  0.621700  1.0
  C  C116  1  0.621700  0.330200  0.382100  1.0
  C  C117  1  0.382100  0.621700  0.330200  1.0
  C  C118  1  0.311100  0.301800  0.562100  1.0
  C  C119  1  0.562100  0.311100  0.301800  1.0
  C  C120  1  0.301800  0.562100  0.311100  1.0
  C  C121  1  0.308400  0.289900  0.478300  1.0
  C  C122  1  0.478300  0.308400  0.289900  1.0
  C  C123  1  0.289900  0.478300  0.308400  1.0
  C  C124  1  0.260500  0.124500  0.264700  1.0
  C  C125  1  0.264700  0.260500  0.124500  1.0
  C  C126  1  0.124500  0.264700  0.260500  1.0
  C  C127  1  0.232700  0.044100  0.271800  1.0
  C  C128  1  0.271800  0.232700  0.044100  1.0
  C  C129  1  0.044100  0.271800  0.232700  1.0
  C  C130  1  0.233100  0.043800  0.348200  1.0
  C  C131  1  0.348200  0.233100  0.043800  1.0
  C  C132  1  0.043800  0.348200  0.233100  1.0
  C  C133  1  0.259500  0.124400  0.423600  1.0
  C  C134  1  0.423600  0.259500  0.124400  1.0
  C  C135  1  0.124400  0.423600  0.259500  1.0
  C  C136  1  0.282700  0.199300  0.408000  1.0
  C  C137  1  0.408000  0.282700  0.199300  1.0
  C  C138  1  0.199300  0.408000  0.282700  1.0
  H  H139  1  0.645400  0.706000  0.850500  1.0
  H  H140  1  0.850500  0.645400  0.706000  1.0
  H  H141  1  0.706000  0.850500  0.645400  1.0
  H  H142  1  0.782900  0.790600  0.891200  1.0
  H  H143  1  0.891200  0.782900  0.790600  1.0
  H  H144  1  0.790600  0.891200  0.782900  1.0
  H  H145  1  0.526900  0.712600  0.606300  1.0
  H  H146  1  0.606300  0.526900  0.712600  1.0
  H  H147  1  0.712600  0.606300  0.526900  1.0
  H  H148  1  0.494200  0.622600  0.669600  1.0
  H  H149  1  0.669600  0.494200  0.622600  1.0
  H  H150  1  0.622600  0.669600  0.494200  1.0
  H  H151  1  0.383700  0.068400  0.842200  1.0
  H  H152  1  0.842200  0.383700  0.068400  1.0
  H  H153  1  0.068400  0.842200  0.383700  1.0
  H  H154  1  0.229000  0.013300  0.784100  1.0
  H  H155  1  0.784100  0.229000  0.013300  1.0
  H  H156  1  0.013300  0.784100  0.229000  1.0
  H  H157  1  0.150600  0.872300  0.761100  1.0
  H  H158  1  0.761100  0.150600  0.872300  1.0
  H  H159  1  0.872300  0.761100  0.150600  1.0
  H  H160  1  0.226800  0.780800  0.795000  1.0
  H  H161  1  0.795000  0.226800  0.780800  1.0
  H  H162  1  0.780800  0.795000  0.226800  1.0
  H  H163  1  0.302900  0.713600  0.840100  1.0
  H  H164  1  0.840100  0.302900  0.713600  1.0
  H  H165  1  0.713600  0.840100  0.302900  1.0
  H  H166  1  0.394400  0.645700  0.881000  1.0
  H  H167  1  0.881000  0.394400  0.645700  1.0
  H  H168  1  0.645700  0.881000  0.394400  1.0
  H  H169  1  0.604300  0.855500  0.933500  1.0
  H  H170  1  0.933500  0.604300  0.855500  1.0
  H  H171  1  0.855500  0.933500  0.604300  1.0
  H  H172  1  0.527900  0.625400  0.879400  1.0
  H  H173  1  0.879400  0.527900  0.625400  1.0
  H  H174  1  0.625400  0.879400  0.527900  1.0
  H  H175  1  0.578600  0.693200  0.981100  1.0
  H  H176  1  0.981100  0.578600  0.693200  1.0
  H  H177  1  0.693200  0.981100  0.578600  1.0
  H  H178  1  0.878900  0.885600  0.063500  1.0
  H  H179  1  0.063500  0.878900  0.885600  1.0
  H  H180  1  0.885600  0.063500  0.878900  1.0
  H  H181  1  0.907100  0.896900  0.985300  1.0
  H  H182  1  0.985300  0.907100  0.896900  1.0
  H  H183  1  0.896900  0.985300  0.907100  1.0
  H  H184  1  0.841000  0.682700  0.976100  1.0
  H  H185  1  0.976100  0.841000  0.682700  1.0
  H  H186  1  0.682700  0.976100  0.841000  1.0
  H  H187  1  0.058900  0.904600  0.077200  1.0
  H  H188  1  0.077200  0.058900  0.904600  1.0
  H  H189  1  0.904600  0.077200  0.058900  1.0
  H  H190  1  0.142200  0.818800  0.109400  1.0
  H  H191  1  0.109400  0.142200  0.818800  1.0
  H  H192  1  0.818800  0.109400  0.142200  1.0
  H  H193  1  0.028800  0.441100  0.034100  1.0
  H  H194  1  0.034100  0.028800  0.441100  1.0
  H  H195  1  0.441100  0.034100  0.028800  1.0
  H  H196  1  0.183000  0.485100  0.088800  1.0
  H  H197  1  0.088800  0.183000  0.485100  1.0
  H  H198  1  0.485100  0.088800  0.183000  1.0
  H  H199  1  0.271500  0.626200  0.133100  1.0
  H  H200  1  0.133100  0.271500  0.626200  1.0
  H  H201  1  0.626200  0.133100  0.271500  1.0
  H  H202  1  0.212400  0.738200  0.134800  1.0
  H  H203  1  0.134800  0.212400  0.738200  1.0
  H  H204  1  0.738200  0.134800  0.212400  1.0
  H  H205  1  0.578200  0.193700  0.010200  1.0
  H  H206  1  0.010200  0.578200  0.193700  1.0
  H  H207  1  0.193700  0.010200  0.578200  1.0
  H  H208  1  0.603600  0.325000  0.991500  1.0
  H  H209  1  0.991500  0.603600  0.325000  1.0
  H  H210  1  0.325000  0.991500  0.603600  1.0
  H  H211  1  0.598600  0.329800  0.860600  1.0
  H  H212  1  0.860600  0.598600  0.329800  1.0
  H  H213  1  0.329800  0.860600  0.598600  1.0
  H  H214  1  0.573600  0.199800  0.739000  1.0
  H  H215  1  0.739000  0.573600  0.199800  1.0
  H  H216  1  0.199800  0.739000  0.573600  1.0
  H  H217  1  0.538000  0.071600  0.639700  1.0
  H  H218  1  0.639700  0.538000  0.071600  1.0
  H  H219  1  0.071600  0.639700  0.538000  1.0
  H  H220  1  0.491700  0.929900  0.534300  1.0
  H  H221  1  0.534300  0.491700  0.929900  1.0
  H  H222  1  0.929900  0.534300  0.491700  1.0
  H  H223  1  0.494800  0.837700  0.724500  1.0
  H  H224  1  0.724500  0.494800  0.837700  1.0
  H  H225  1  0.837700  0.724500  0.494800  1.0
  H  H226  1  0.400900  0.754200  0.513400  1.0
  H  H227  1  0.513400  0.400900  0.754200  1.0
  H  H228  1  0.754200  0.513400  0.400900  1.0
  H  H229  1  0.499300  0.780000  0.517300  1.0
  H  H230  1  0.517300  0.499300  0.780000  1.0
  H  H231  1  0.780000  0.517300  0.499300  1.0
  H  H232  1  0.321700  0.557200  0.652200  1.0
  H  H233  1  0.652200  0.321700  0.557200  1.0
  H  H234  1  0.557200  0.652200  0.321700  1.0
  H  H235  1  0.402000  0.550000  0.720700  1.0
  H  H236  1  0.720700  0.402000  0.550000  1.0
  H  H237  1  0.550000  0.720700  0.402000  1.0
  H  H238  1  0.368300  0.485300  0.496000  1.0
  H  H239  1  0.496000  0.368300  0.485300  1.0
  H  H240  1  0.485300  0.496000  0.368300  1.0
  H  H241  1  0.328700  0.389600  0.678100  1.0
  H  H242  1  0.678100  0.328700  0.389600  1.0
  H  H243  1  0.389600  0.678100  0.328700  1.0
  H  H244  1  0.299200  0.252300  0.577900  1.0
  H  H245  1  0.577900  0.299200  0.252300  1.0
  H  H246  1  0.252300  0.577900  0.299200  1.0
  H  H247  1  0.261600  0.124900  0.209800  1.0
  H  H248  1  0.209800  0.261600  0.124900  1.0
  H  H249  1  0.124900  0.209800  0.261600  1.0
  H  H250  1  0.213800  0.990400  0.222600  1.0
  H  H251  1  0.222600  0.213800  0.990400  1.0
  H  H252  1  0.990400  0.222600  0.213800  1.0
  H  H253  1  0.215700  0.988800  0.354300  1.0
  H  H254  1  0.354300  0.215700  0.988800  1.0
  H  H255  1  0.988800  0.354300  0.215700  1.0
  H  H256  1  0.260400  0.125000  0.479400  1.0
  H  H257  1  0.479400  0.260400  0.125000  1.0
  H  H258  1  0.125000  0.479400  0.260400  1.0
  N  N259  1  0.762700  0.346900  0.211300  1
  N  N260  1  0.211300  0.762700  0.346900  1
  N  N261  1  0.346900  0.211300  0.762700  1
  N  N262  1  0.395200  0.962700  0.855100  1.0
  N  N263  1  0.855100  0.395200  0.962700  1.0
  N  N264  1  0.962700  0.855100  0.395200  1.0
  N  N265  1  0.490300  0.868800  0.888400  1.0
  N  N266  1  0.888400  0.490300  0.868800  1.0
  N  N267  1  0.868800  0.888400  0.490300  1.0
  N  N268  1  0.647000  0.720900  0.904500  1.0
  N  N269  1  0.904500  0.647000  0.720900  1.0
  N  N270  1  0.720900  0.904500  0.647000  1.0
  N  N271  1  0.795100  0.804000  0.947800  1.0
  N  N272  1  0.947800  0.795100  0.804000  1.0
  N  N273  1  0.804000  0.947800  0.795100  1.0
  N  N274  1  0.950400  0.666800  0.022100  1.0
  N  N275  1  0.022100  0.950400  0.666800  1.0
  N  N276  1  0.666800  0.022100  0.950400  1.0
  N  N277  1  0.520500  0.965600  0.767400  1.0
  N  N278  1  0.767400  0.520500  0.965600  1.0
  N  N279  1  0.965600  0.767400  0.520500  1.0
  N  N280  1  0.475000  0.716200  0.592200  1.0
  N  N281  1  0.592200  0.475000  0.716200  1.0
  N  N282  1  0.716200  0.592200  0.475000  1.0
  N  N283  1  0.437900  0.614000  0.648700  1.0
  N  N284  1  0.648700  0.437900  0.614000  1.0
  N  N285  1  0.614000  0.648700  0.437900  1.0
  N  N286  1  0.330000  0.357100  0.452500  1.0
  N  N287  1  0.452500  0.330000  0.357100  1.0
  N  N288  1  0.357100  0.452500  0.330000  1.0
  N  N289  1  0.032400  0.560200  0.048200  1.0
  N  N290  1  0.048200  0.032400  0.560200  1.0
  N  N291  1  0.560200  0.048200  0.032400  1.0
  N  N292  1  0.558100  0.120400  0.888800  1.0
  N  N293  1  0.888800  0.558100  0.120400  1.0
  N  N294  1  0.120400  0.888800  0.558100  1.0
  N  N295  1  0.285400  0.200900  0.330200  1.0
  N  N296  1  0.330200  0.285400  0.200900  1.0
  N  N297  1  0.200900  0.330200  0.285400  1.0
  Ni  Ni298  1  0.325317  0.325317  0.325317  1
  Ni  Ni299  1  0.532310  0.997830  0.898260  1.0
  Ni  Ni300  1  0.898260  0.532310  0.997830  1.0
  Ni  Ni301  1  0.997830  0.898260  0.532310  1.0
  O  O302  1  0.769267  0.769267  0.769267  1
  O  O303  1  0.067867  0.067867  0.067867  1
  O  O304  1  0.364900  0.481200  0.849100  1
  O  O305  1  0.849100  0.364900  0.481200  1
  O  O306  1  0.481200  0.849100  0.364900  1
  O  O307  1  0.763500  0.383900  0.283600  1
  O  O308  1  0.283600  0.763500  0.383900  1
  O  O309  1  0.383900  0.283600  0.763500  1
  O  O310  1  0.702000  0.331100  0.146500  1
  O  O311  1  0.146500  0.702000  0.331100  1
  O  O312  1  0.331100  0.146500  0.702000  1
  O  O313  1  0.826700  0.333100  0.207900  1
  O  O314  1  0.207900  0.826700  0.333100  1
  O  O315  1  0.333100  0.207900  0.826700  1
  O  O316  1  0.430700  0.183200  0.602400  1
  O  O317  1  0.602400  0.430700  0.183200  1
  O  O318  1  0.183200  0.602400  0.430700  1
  O  O319  1  0.227100  0.000000  0.040100  1
  O  O320  1  0.040100  0.227100  0.000000  1
  O  O321  1  0.000000  0.040100  0.227100  1
  O  O322  1  0.633100  0.186300  0.603300  1
  O  O323  1  0.603300  0.633100  0.186300  1
  O  O324  1  0.186300  0.603300  0.633100  1
  O  O325  1  0.713500  0.921900  0.168600  1
  O  O326  1  0.168600  0.713500  0.921900  1
  O  O327  1  0.921900  0.168600  0.713500  1
  O  O328  1  0.445100  0.077400  0.467300  1
  O  O329  1  0.467300  0.445100  0.077400  1
  O  O330  1  0.077400  0.467300  0.445100  1
  O  O331  1  0.340600  0.364000  0.913800  1
  O  O332  1  0.913800  0.340600  0.364000  1
  O  O333  1  0.364000  0.913800  0.340600  1
  O  O334  1  0.729800  0.792100  0.047500  1.0
  O  O335  1  0.047500  0.729800  0.792100  1.0
  O  O336  1  0.792100  0.047500  0.729800  1.0
  O  O337  1  0.336200  0.660800  0.584800  1.0
  O  O338  1  0.584800  0.336200  0.660800  1.0
  O  O339  1  0.660800  0.584800  0.336200  1.0
  O  O340  1  0.724700  0.623300  0.654100  1.0
  O  O341  1  0.654100  0.724700  0.623300  1.0
  O  O342  1  0.623300  0.654100  0.724700  1.0
  P  P343  1  0.693267  0.693267  0.693267  1
