# generated using pymatgen
data_B2H62PdC82N6(OF4)2
_symmetry_space_group_name_H-M   'P 1'
_cell_length_a   23.18700000
_cell_length_b   23.31400000
_cell_length_c   38.54963641
_cell_angle_alpha   81.95875720
_cell_angle_beta   72.49781702
_cell_angle_gamma   62.28100000
_symmetry_Int_Tables_number   1
_chemical_formula_structural   B2H62PdC82N6(OF4)2
_chemical_formula_sum   'B8 H248 Pd4 C328 N24 O8 F32'
_cell_volume   17593.67941386
_cell_formula_units_Z   4
loop_
 _symmetry_equiv_pos_site_id
 _symmetry_equiv_pos_as_xyz
  1  'x, y, z'
loop_
 _atom_site_type_symbol
 _atom_site_label
 _atom_site_symmetry_multiplicity
 _atom_site_fract_x
 _atom_site_fract_y
 _atom_site_fract_z
 _atom_site_occupancy
  B  B1  1  0.209100  0.362700  0.524200  1
  B  B2  1  0.266700  0.637300  0.524200  1
  B  B3  1  0.790900  0.637300  0.475800  1
  B  B4  1  0.733300  0.362700  0.475800  1
  B  B5  1  0.934300  0.121400  0.639200  1
  B  B6  1  0.426500  0.878600  0.639200  1
  B  B7  1  0.065700  0.878600  0.360800  1
  B  B8  1  0.573500  0.121400  0.360800  1
  C  C9  1  0.073310  0.536000  0.673780  1.0
  C  C10  1  0.252910  0.464000  0.673780  1.0
  C  C11  1  0.926690  0.464000  0.326220  1.0
  C  C12  1  0.747090  0.536000  0.326220  1.0
  C  C13  1  0.076490  0.489700  0.701220  1.0
  C  C14  1  0.222290  0.510300  0.701220  1.0
  C  C15  1  0.923510  0.510300  0.298780  1.0
  C  C16  1  0.777710  0.489700  0.298780  1.0
  C  C17  1  0.108180  0.424700  0.692440  1.0
  C  C18  1  0.199380  0.575300  0.692440  1.0
  C  C19  1  0.891820  0.575300  0.307560  1.0
  C  C20  1  0.800620  0.424700  0.307560  1.0
  C  C21  1  0.137850  0.404200  0.656700  1.0
  C  C22  1  0.205450  0.595800  0.656700  1.0
  C  C23  1  0.862150  0.595800  0.343300  1.0
  C  C24  1  0.794550  0.404200  0.343300  1.0
  C  C25  1  0.134000  0.449900  0.629000  1.0
  C  C26  1  0.237000  0.550100  0.629000  1.0
  C  C27  1  0.866000  0.550100  0.371000  1.0
  C  C28  1  0.763000  0.449900  0.371000  1.0
  C  C29  1  0.103040  0.515600  0.637320  1.0
  C  C30  1  0.259640  0.484400  0.637320  1.0
  C  C31  1  0.896960  0.484400  0.362680  1.0
  C  C32  1  0.740360  0.515600  0.362680  1.0
  C  C33  1  0.101620  0.562700  0.607160  1.0
  C  C34  1  0.291220  0.437300  0.607160  1.0
  C  C35  1  0.898380  0.437300  0.392840  1.0
  C  C36  1  0.708780  0.562700  0.392840  1.0
  C  C37  1  0.065110  0.631800  0.618380  1.0
  C  C38  1  0.316510  0.368200  0.618380  1.0
  C  C39  1  0.934890  0.368200  0.381620  1.0
  C  C40  1  0.683490  0.631800  0.381620  1.0
  C  C41  1  0.060270  0.678400  0.591260  1.0
  C  C42  1  0.348470  0.321600  0.591260  1.0
  C  C43  1  0.939730  0.321600  0.408740  1.0
  C  C44  1  0.651530  0.678400  0.408740  1.0
  C  C45  1  0.024960  0.744400  0.600080  1.0
  C  C46  1  0.374960  0.255600  0.600080  1.0
  C  C47  1  0.975040  0.255600  0.399920  1.0
  C  C48  1  0.625040  0.744400  0.399920  1.0
  C  C49  1  0.994610  0.761100  0.636780  1.0
  C  C50  1  0.368610  0.238900  0.636780  1.0
  C  C51  1  0.005390  0.238900  0.363220  1.0
  C  C52  1  0.631390  0.761100  0.363220  1.0
  C  C53  1  0.998140  0.716100  0.664320  1.0
  C  C54  1  0.337540  0.283900  0.664320  1.0
  C  C55  1  0.001860  0.283900  0.335680  1.0
  C  C56  1  0.662460  0.716100  0.335680  1.0
  C  C57  1  0.035490  0.649600  0.655220  1.0
  C  C58  1  0.309290  0.350400  0.655220  1.0
  C  C59  1  0.964510  0.350400  0.344780  1.0
  C  C60  1  0.690710  0.649600  0.344780  1.0
  C  C61  1  0.173800  0.336000  0.648200  1.0
  C  C62  1  0.178000  0.664000  0.648200  1.0
  C  C63  1  0.826200  0.664000  0.351800  1.0
  C  C64  1  0.822000  0.336000  0.351800  1.0
  C  C65  1  0.200000  0.277800  0.646600  1.0
  C  C66  1  0.153400  0.722200  0.646600  1.0
  C  C67  1  0.800000  0.722200  0.353400  1.0
  C  C68  1  0.846600  0.277800  0.353400  1.0
  C  C69  1  0.232580  0.208400  0.649440  1.0
  C  C70  1  0.117980  0.791600  0.649440  1.0
  C  C71  1  0.767420  0.791600  0.350560  1.0
  C  C72  1  0.882020  0.208400  0.350560  1.0
  C  C73  1  0.243780  0.169900  0.620040  1.0
  C  C74  1  0.136180  0.830100  0.620040  1.0
  C  C75  1  0.756220  0.830100  0.379960  1.0
  C  C76  1  0.863820  0.169900  0.379960  1.0
  C  C77  1  0.226270  0.193000  0.587060  1.0
  C  C78  1  0.186670  0.807000  0.587060  1.0
  C  C79  1  0.773730  0.807000  0.412940  1.0
  C  C80  1  0.813330  0.193000  0.412940  1.0
  C  C81  1  0.266470  0.092800  0.564460  1.0
  C  C82  1  0.169070  0.907200  0.564460  1.0
  C  C83  1  0.733530  0.907200  0.435540  1.0
  C  C84  1  0.830930  0.092800  0.435540  1.0
  C  C85  1  0.286930  0.063100  0.594540  1.0
  C  C86  1  0.118530  0.936900  0.594540  1.0
  C  C87  1  0.713070  0.936900  0.405460  1.0
  C  C88  1  0.881470  0.063100  0.405460  1.0
  C  C89  1  0.276360  0.100400  0.623680  1.0
  C  C90  1  0.099960  0.899600  0.623680  1.0
  C  C91  1  0.723640  0.899600  0.376320  1.0
  C  C92  1  0.900040  0.100400  0.376320  1.0
  C  C93  1  0.296420  0.074400  0.655760  1.0
  C  C94  1  0.047820  0.925600  0.655760  1.0
  C  C95  1  0.703580  0.925600  0.344240  1.0
  C  C96  1  0.952180  0.074400  0.344240  1.0
  C  C97  1  0.285790  0.112300  0.683020  1.0
  C  C98  1  0.031190  0.887700  0.683020  1.0
  C  C99  1  0.714210  0.887700  0.316980  1.0
  C  C100  1  0.968810  0.112300  0.316980  1.0
  C  C101  1  0.252730  0.179400  0.680340  1.0
  C  C102  1  0.066930  0.820600  0.680340  1.0
  C  C103  1  0.747270  0.820600  0.319660  1.0
  C  C104  1  0.933070  0.179400  0.319660  1.0
  C  C105  1  0.018320  0.791700  0.571560  1.0
  C  C106  1  0.410120  0.208300  0.571560  1.0
  C  C107  1  0.981680  0.208300  0.428440  1.0
  C  C108  1  0.589880  0.791700  0.428440  1.0
  C  C109  1  0.012610  0.830300  0.547380  1.0
  C  C110  1  0.440010  0.169700  0.547380  1.0
  C  C111  1  0.987390  0.169700  0.452620  1.0
  C  C112  1  0.559990  0.830300  0.452620  1.0
  C  C113  1  0.009710  0.876000  0.517980  1.0
  C  C114  1  0.472310  0.124000  0.517980  1.0
  C  C115  1  0.990290  0.124000  0.482020  1.0
  C  C116  1  0.527690  0.876000  0.482020  1.0
  C  C117  1  0.070990  0.878800  0.496620  1.0
  C  C118  1  0.432390  0.121200  0.496620  1.0
  C  C119  1  0.929010  0.121200  0.503380  1.0
  C  C120  1  0.567610  0.878800  0.503380  1.0
  C  C121  1  0.132800  0.841700  0.505400  1.0
  C  C122  1  0.361800  0.158300  0.505400  1.0
  C  C123  1  0.867200  0.158300  0.494600  1.0
  C  C124  1  0.638200  0.841700  0.494600  1.0
  C  C125  1  0.186270  0.889100  0.460060  1.0
  C  C126  1  0.353670  0.110900  0.460060  1.0
  C  C127  1  0.813730  0.110900  0.539940  1.0
  C  C128  1  0.646330  0.889100  0.539940  1.0
  C  C129  1  0.130350  0.925400  0.447900  1.0
  C  C130  1  0.421750  0.074600  0.447900  1.0
  C  C131  1  0.869650  0.074600  0.552100  1.0
  C  C132  1  0.578250  0.925400  0.552100  1.0
  C  C133  1  0.069420  0.921600  0.466560  1.0
  C  C134  1  0.464020  0.078400  0.466560  1.0
  C  C135  1  0.930580  0.078400  0.533440  1.0
  C  C136  1  0.535980  0.921600  0.533440  1.0
  C  C137  1  0.007100  0.960800  0.457600  1.0
  C  C138  1  0.535300  0.039200  0.457600  1.0
  C  C139  1  0.992900  0.039200  0.542400  1.0
  C  C140  1  0.464700  0.960800  0.542400  1.0
  C  C141  1  0.950060  0.957500  0.478880  1.0
  C  C142  1  0.571060  0.042500  0.478880  1.0
  C  C143  1  0.049940  0.042500  0.521120  1.0
  C  C144  1  0.428940  0.957500  0.521120  1.0
  C  C145  1  0.950330  0.916400  0.508740  1.0
  C  C146  1  0.540930  0.083600  0.508740  1.0
  C  C147  1  0.049670  0.083600  0.491260  1.0
  C  C148  1  0.459070  0.916400  0.491260  1.0
  C  C149  1  0.011330  0.621800  0.721140  1.0
  C  C150  1  0.267530  0.378200  0.721140  1.0
  C  C151  1  0.988670  0.378200  0.278860  1.0
  C  C152  1  0.732470  0.621800  0.278860  1.0
  C  C153  1  0.936900  0.635300  0.732600  1.0
  C  C154  1  0.330500  0.364700  0.732600  1.0
  C  C155  1  0.063100  0.364700  0.267400  1.0
  C  C156  1  0.669500  0.635300  0.267400  1.0
  C  C157  1  0.905300  0.656400  0.771600  1.0
  C  C158  1  0.323100  0.343600  0.771600  1.0
  C  C159  1  0.094700  0.343600  0.228400  1.0
  C  C160  1  0.676900  0.656400  0.228400  1.0
  C  C161  1  0.839600  0.649700  0.787600  1.0
  C  C162  1  0.372800  0.350300  0.787600  1.0
  C  C163  1  0.160400  0.350300  0.212400  1.0
  C  C164  1  0.627200  0.649700  0.212400  1.0
  C  C165  1  0.821800  0.653000  0.830200  1.0
  C  C166  1  0.348000  0.347000  0.830200  1.0
  C  C167  1  0.178200  0.347000  0.169800  1.0
  C  C168  1  0.652000  0.653000  0.169800  1.0
  C  C169  1  0.860100  0.687500  0.842400  1.0
  C  C170  1  0.297500  0.312500  0.842400  1.0
  C  C171  1  0.139900  0.312500  0.157600  1.0
  C  C172  1  0.702500  0.687500  0.157600  1.0
  C  C173  1  0.048160  0.574500  0.410680  1.0
  C  C174  1  0.541160  0.425500  0.410680  1.0
  C  C175  1  0.951840  0.425500  0.589320  1.0
  C  C176  1  0.458840  0.574500  0.589320  1.0
  C  C177  1  0.989300  0.570500  0.411800  1.0
  C  C178  1  0.598900  0.429500  0.411800  1.0
  C  C179  1  0.010700  0.429500  0.588200  1.0
  C  C180  1  0.401100  0.570500  0.588200  1.0
  C  C181  1  0.977400  0.521100  0.430400  1.0
  C  C182  1  0.592200  0.478900  0.430400  1.0
  C  C183  1  0.022600  0.478900  0.569600  1.0
  C  C184  1  0.407800  0.521100  0.569600  1.0
  C  C185  1  0.021730  0.473800  0.449140  1.0
  C  C186  1  0.529130  0.526200  0.449140  1.0
  C  C187  1  0.978270  0.526200  0.550860  1.0
  C  C188  1  0.470870  0.473800  0.550860  1.0
  C  C189  1  0.080500  0.477200  0.447800  1.0
  C  C190  1  0.471700  0.522800  0.447800  1.0
  C  C191  1  0.919500  0.522800  0.552200  1.0
  C  C192  1  0.528300  0.477200  0.552200  1.0
  C  C193  1  0.094180  0.526500  0.428240  1.0
  C  C194  1  0.477580  0.473500  0.428240  1.0
  C  C195  1  0.905820  0.473500  0.571760  1.0
  C  C196  1  0.522420  0.526500  0.571760  1.0
  C  C197  1  0.157520  0.528300  0.427360  1.0
  C  C198  1  0.415120  0.471700  0.427360  1.0
  C  C199  1  0.842480  0.471700  0.572640  1.0
  C  C200  1  0.584880  0.528300  0.572640  1.0
  C  C201  1  0.167670  0.582700  0.406860  1.0
  C  C202  1  0.425470  0.417300  0.406860  1.0
  C  C203  1  0.832330  0.417300  0.593140  1.0
  C  C204  1  0.574530  0.582700  0.593140  1.0
  C  C205  1  0.225000  0.588700  0.407000  1.0
  C  C206  1  0.368000  0.411300  0.407000  1.0
  C  C207  1  0.775000  0.411300  0.593000  1.0
  C  C208  1  0.632000  0.588700  0.593000  1.0
  C  C209  1  0.234800  0.641300  0.389600  1.0
  C  C210  1  0.375600  0.358700  0.389600  1.0
  C  C211  1  0.765200  0.358700  0.610400  1.0
  C  C212  1  0.624400  0.641300  0.610400  1.0
  C  C213  1  0.189900  0.685300  0.371400  1.0
  C  C214  1  0.438700  0.314700  0.371400  1.0
  C  C215  1  0.810100  0.314700  0.628600  1.0
  C  C216  1  0.561300  0.685300  0.628600  1.0
  C  C217  1  0.133200  0.680000  0.371000  1.0
  C  C218  1  0.495800  0.320000  0.371000  1.0
  C  C219  1  0.866800  0.320000  0.629000  1.0
  C  C220  1  0.504200  0.680000  0.629000  1.0
  C  C221  1  0.120450  0.629200  0.389500  1.0
  C  C222  1  0.490050  0.370800  0.389500  1.0
  C  C223  1  0.879550  0.370800  0.610500  1.0
  C  C224  1  0.509950  0.629200  0.610500  1.0
  C  C225  1  0.003100  0.425800  0.470000  1.0
  C  C226  1  0.526900  0.574200  0.470000  1.0
  C  C227  1  0.996900  0.574200  0.530000  1.0
  C  C228  1  0.473100  0.425800  0.530000  1.0
  C  C229  1  0.986160  0.386300  0.486880  1.0
  C  C230  1  0.526960  0.613700  0.486880  1.0
  C  C231  1  0.013840  0.613700  0.513120  1.0
  C  C232  1  0.473040  0.386300  0.513120  1.0
  C  C233  1  0.964410  0.339900  0.506980  1.0
  C  C234  1  0.528610  0.660100  0.506980  1.0
  C  C235  1  0.035590  0.660100  0.493020  1.0
  C  C236  1  0.471390  0.339900  0.493020  1.0
  C  C237  1  0.009210  0.284800  0.523180  1.0
  C  C238  1  0.467610  0.715200  0.523180  1.0
  C  C239  1  0.990790  0.715200  0.476820  1.0
  C  C240  1  0.532390  0.284800  0.476820  1.0
  C  C241  1  0.076650  0.272000  0.519700  1.0
  C  C242  1  0.403650  0.728000  0.519700  1.0
  C  C243  1  0.923350  0.728000  0.480300  1.0
  C  C244  1  0.596350  0.272000  0.480300  1.0
  C  C245  1  0.097330  0.175700  0.550940  1.0
  C  C246  1  0.351730  0.824300  0.550940  1.0
  C  C247  1  0.902670  0.824300  0.449060  1.0
  C  C248  1  0.648270  0.175700  0.449060  1.0
  C  C249  1  0.033400  0.183100  0.556800  1.0
  C  C250  1  0.409800  0.816900  0.556800  1.0
  C  C251  1  0.966600  0.816900  0.443200  1.0
  C  C252  1  0.590200  0.183100  0.443200  1.0
  C  C253  1  0.987250  0.238600  0.542500  1.0
  C  C254  1  0.470250  0.761400  0.542500  1.0
  C  C255  1  0.012750  0.761400  0.457500  1.0
  C  C256  1  0.529750  0.238600  0.457500  1.0
  C  C257  1  0.921160  0.247400  0.545080  1.0
  C  C258  1  0.533760  0.752600  0.545080  1.0
  C  C259  1  0.078840  0.752600  0.454920  1.0
  C  C260  1  0.466240  0.247400  0.454920  1.0
  C  C261  1  0.881770  0.299500  0.527660  1.0
  C  C262  1  0.590570  0.700500  0.527660  1.0
  C  C263  1  0.118230  0.700500  0.472340  1.0
  C  C264  1  0.409430  0.299500  0.472340  1.0
  C  C265  1  0.901280  0.345700  0.509440  1.0
  C  C266  1  0.589280  0.654300  0.509440  1.0
  C  C267  1  0.098720  0.654300  0.490560  1.0
  C  C268  1  0.410720  0.345700  0.490560  1.0
  C  C269  1  0.293800  0.645900  0.391000  1.0
  C  C270  1  0.315200  0.354100  0.391000  1.0
  C  C271  1  0.706200  0.354100  0.609000  1.0
  C  C272  1  0.684800  0.645900  0.609000  1.0
  C  C273  1  0.342800  0.651100  0.391400  1.0
  C  C274  1  0.265800  0.348900  0.391400  1.0
  C  C275  1  0.657200  0.348900  0.608600  1.0
  C  C276  1  0.734200  0.651100  0.608600  1.0
  C  C277  1  0.400900  0.660000  0.389800  1.0
  C  C278  1  0.209300  0.340000  0.389800  1.0
  C  C279  1  0.599100  0.340000  0.610200  1.0
  C  C280  1  0.790700  0.660000  0.610200  1.0
  C  C281  1  0.394460  0.708700  0.411480  1.0
  C  C282  1  0.194060  0.291300  0.411480  1.0
  C  C283  1  0.605540  0.291300  0.588520  1.0
  C  C284  1  0.805940  0.708700  0.588520  1.0
  C  C285  1  0.339080  0.741900  0.441040  1.0
  C  C286  1  0.219880  0.258100  0.441040  1.0
  C  C287  1  0.660920  0.258100  0.558960  1.0
  C  C288  1  0.780120  0.741900  0.558960  1.0
  C  C289  1  0.384400  0.803800  0.451800  1.0
  C  C290  1  0.163800  0.196200  0.451800  1.0
  C  C291  1  0.615600  0.196200  0.548200  1.0
  C  C292  1  0.836200  0.803800  0.548200  1.0
  C  C293  1  0.441900  0.775200  0.424800  1.0
  C  C294  1  0.133300  0.224800  0.424800  1.0
  C  C295  1  0.558100  0.224800  0.575200  1.0
  C  C296  1  0.866700  0.775200  0.575200  1.0
  C  C297  1  0.449930  0.724800  0.403940  1.0
  C  C298  1  0.146130  0.275200  0.403940  1.0
  C  C299  1  0.550070  0.275200  0.596060  1.0
  C  C300  1  0.853870  0.724800  0.596060  1.0
  C  C301  1  0.508600  0.689700  0.376600  1.0
  C  C302  1  0.114800  0.310300  0.376600  1.0
  C  C303  1  0.491400  0.310300  0.623400  1.0
  C  C304  1  0.885200  0.689700  0.623400  1.0
  C  C305  1  0.515100  0.639500  0.358200  1.0
  C  C306  1  0.126700  0.360500  0.358200  1.0
  C  C307  1  0.484900  0.360500  0.641800  1.0
  C  C308  1  0.873300  0.639500  0.641800  1.0
  C  C309  1  0.461300  0.625000  0.364800  1.0
  C  C310  1  0.173900  0.375000  0.364800  1.0
  C  C311  1  0.538700  0.375000  0.635200  1.0
  C  C312  1  0.826100  0.625000  0.635200  1.0
  C  C313  1  0.004800  0.681700  0.380800  1.0
  C  C314  1  0.614400  0.318300  0.380800  1.0
  C  C315  1  0.995200  0.318300  0.619200  1.0
  C  C316  1  0.385600  0.681700  0.619200  1.0
  C  C317  1  0.009800  0.678600  0.341400  1.0
  C  C318  1  0.648800  0.321400  0.341400  1.0
  C  C319  1  0.990200  0.321400  0.658600  1.0
  C  C320  1  0.351200  0.678600  0.658600  1.0
  C  C321  1  0.952800  0.747400  0.334600  1.0
  C  C322  1  0.712600  0.252600  0.334600  1.0
  C  C323  1  0.047200  0.252600  0.665400  1.0
  C  C324  1  0.287400  0.747400  0.665400  1.0
  C  C325  1  0.946900  0.757100  0.294800  1.0
  C  C326  1  0.758300  0.242900  0.294800  1.0
  C  C327  1  0.053100  0.242900  0.705200  1.0
  C  C328  1  0.241700  0.757100  0.705200  1.0
  C  C329  1  0.899100  0.834300  0.290600  1.0
  C  C330  1  0.810300  0.165700  0.290600  1.0
  C  C331  1  0.100900  0.165700  0.709400  1.0
  C  C332  1  0.189700  0.834300  0.709400  1.0
  C  C333  1  0.899500  0.835900  0.248400  1.0
  C  C334  1  0.852100  0.164100  0.248400  1.0
  C  C335  1  0.100500  0.164100  0.751600  1.0
  C  C336  1  0.147900  0.835900  0.751600  1.0
  F  F337  1  0.169400  0.339200  0.552400  1
  F  F338  1  0.278200  0.660800  0.552400  1
  F  F339  1  0.830600  0.660800  0.447600  1
  F  F340  1  0.721800  0.339200  0.447600  1
  F  F341  1  0.264200  0.304300  0.520400  1
  F  F342  1  0.215400  0.695700  0.520400  1
  F  F343  1  0.735800  0.695700  0.479600  1
  F  F344  1  0.784600  0.304300  0.479600  1
  F  F345  1  0.218100  0.414400  0.527600  1
  F  F346  1  0.254300  0.585600  0.527600  1
  F  F347  1  0.781900  0.585600  0.472400  1
  F  F348  1  0.745700  0.414400  0.472400  1
  F  F349  1  0.178600  0.361600  0.498200  1
  F  F350  1  0.323200  0.638400  0.498200  1
  F  F351  1  0.821400  0.638400  0.501800  1
  F  F352  1  0.676800  0.361600  0.501800  1
  F  F353  1  0.916400  0.090600  0.671600  1
  F  F354  1  0.412000  0.909400  0.671600  1
  F  F355  1  0.083600  0.909400  0.328400  1
  F  F356  1  0.588000  0.090600  0.328400  1
  F  F357  1  0.889200  0.149700  0.618600  1
  F  F358  1  0.492200  0.850300  0.618600  1
  F  F359  1  0.110800  0.850300  0.381400  1
  F  F360  1  0.507800  0.149700  0.381400  1
  F  F361  1  0.000000  0.084200  0.619600  1
  F  F362  1  0.380400  0.915800  0.619600  1
  F  F363  1  0.000000  0.915800  0.380400  1
  F  F364  1  0.619600  0.084200  0.380400  1
  F  F365  1  0.930700  0.174300  0.655600  1
  F  F366  1  0.413700  0.825700  0.655600  1
  F  F367  1  0.069300  0.825700  0.344400  1
  F  F368  1  0.586300  0.174300  0.344400  1
  H  H369  1  0.056800  0.502800  0.726000  1.0
  H  H370  1  0.217200  0.497200  0.726000  1.0
  H  H371  1  0.943200  0.497200  0.274000  1.0
  H  H372  1  0.782800  0.502800  0.274000  1.0
  H  H373  1  0.109700  0.393600  0.711400  1.0
  H  H374  1  0.178900  0.606400  0.711400  1.0
  H  H375  1  0.890300  0.606400  0.288600  1.0
  H  H376  1  0.821100  0.393600  0.288600  1.0
  H  H377  1  0.152500  0.436200  0.604400  1.0
  H  H378  1  0.243100  0.563800  0.604400  1.0
  H  H379  1  0.847500  0.563800  0.395600  1.0
  H  H380  1  0.756900  0.436200  0.395600  1.0
  H  H381  1  0.081100  0.665400  0.566600  1.0
  H  H382  1  0.352300  0.334600  0.566600  1.0
  H  H383  1  0.918900  0.334600  0.433400  1.0
  H  H384  1  0.647700  0.665400  0.433400  1.0
  H  H385  1  0.970400  0.805800  0.643000  1.0
  H  H386  1  0.386600  0.194200  0.643000  1.0
  H  H387  1  0.029600  0.194200  0.357000  1.0
  H  H388  1  0.613400  0.805800  0.357000  1.0
  H  H389  1  0.975800  0.729400  0.689000  1.0
  H  H390  1  0.335200  0.270600  0.689000  1.0
  H  H391  1  0.024200  0.270600  0.311000  1.0
  H  H392  1  0.664800  0.729400  0.311000  1.0
  H  H393  1  0.204500  0.238700  0.584200  1.0
  H  H394  1  0.211300  0.761300  0.584200  1.0
  H  H395  1  0.795500  0.761300  0.415800  1.0
  H  H396  1  0.788700  0.238700  0.415800  1.0
  H  H397  1  0.273100  0.066400  0.545600  1.0
  H  H398  1  0.181300  0.933600  0.545600  1.0
  H  H399  1  0.726900  0.933600  0.454400  1.0
  H  H400  1  0.818700  0.066400  0.454400  1.0
  H  H401  1  0.308400  0.017100  0.596000  1.0
  H  H402  1  0.095600  0.982900  0.596000  1.0
  H  H403  1  0.691600  0.982900  0.404000  1.0
  H  H404  1  0.904400  0.017100  0.404000  1.0
  H  H405  1  0.318300  0.028700  0.658400  1.0
  H  H406  1  0.023300  0.971300  0.658400  1.0
  H  H407  1  0.681700  0.971300  0.341600  1.0
  H  H408  1  0.976700  0.028700  0.341600  1.0
  H  H409  1  0.300900  0.092900  0.704000  1.0
  H  H410  1  0.995100  0.907100  0.704000  1.0
  H  H411  1  0.699100  0.907100  0.296000  1.0
  H  H412  1  0.004900  0.092900  0.296000  1.0
  H  H413  1  0.243900  0.205500  0.700000  1.0
  H  H414  1  0.056100  0.794500  0.700000  1.0
  H  H415  1  0.756100  0.794500  0.300000  1.0
  H  H416  1  0.943900  0.205500  0.300000  1.0
  H  H417  1  0.134700  0.811300  0.524800  1.0
  H  H418  1  0.340500  0.188700  0.524800  1.0
  H  H419  1  0.865300  0.188700  0.475200  1.0
  H  H420  1  0.659500  0.811300  0.475200  1.0
  H  H421  1  0.226300  0.893600  0.448000  1.0
  H  H422  1  0.325700  0.106400  0.448000  1.0
  H  H423  1  0.773700  0.106400  0.552000  1.0
  H  H424  1  0.674300  0.893600  0.552000  1.0
  H  H425  1  0.132100  0.952800  0.427200  1.0
  H  H426  1  0.440700  0.047200  0.427200  1.0
  H  H427  1  0.867900  0.047200  0.572800  1.0
  H  H428  1  0.559300  0.952800  0.572800  1.0
  H  H429  1  0.005300  0.988800  0.437200  1.0
  H  H430  1  0.557500  0.011200  0.437200  1.0
  H  H431  1  0.994700  0.011200  0.562800  1.0
  H  H432  1  0.442500  0.988800  0.562800  1.0
  H  H433  1  0.908400  0.984300  0.473000  1.0
  H  H434  1  0.618600  0.015700  0.473000  1.0
  H  H435  1  0.091600  0.015700  0.527000  1.0
  H  H436  1  0.381400  0.984300  0.527000  1.0
  H  H437  1  0.909100  0.916200  0.523000  1.0
  H  H438  1  0.567900  0.083800  0.523000  1.0
  H  H439  1  0.090900  0.083800  0.477000  1.0
  H  H440  1  0.432100  0.916200  0.477000  1.0
  H  H441  1  0.014800  0.661100  0.724800  1.0
  H  H442  1  0.260400  0.338900  0.724800  1.0
  H  H443  1  0.985200  0.338900  0.275200  1.0
  H  H444  1  0.739600  0.661100  0.275200  1.0
  H  H445  1  0.036500  0.586600  0.736200  1.0
  H  H446  1  0.227300  0.413400  0.736200  1.0
  H  H447  1  0.963500  0.413400  0.263800  1.0
  H  H448  1  0.772700  0.586600  0.263800  1.0
  H  H449  1  0.912100  0.669700  0.717000  1.0
  H  H450  1  0.370900  0.330300  0.717000  1.0
  H  H451  1  0.087900  0.330300  0.283000  1.0
  H  H452  1  0.629100  0.669700  0.283000  1.0
  H  H453  1  0.933600  0.595700  0.729400  1.0
  H  H454  1  0.337000  0.404300  0.729400  1.0
  H  H455  1  0.066400  0.404300  0.270600  1.0
  H  H456  1  0.663000  0.595700  0.270600  1.0
  H  H457  1  0.895500  0.702200  0.773400  1.0
  H  H458  1  0.331100  0.297800  0.773400  1.0
  H  H459  1  0.104500  0.297800  0.226600  1.0
  H  H460  1  0.668900  0.702200  0.226600  1.0
  H  H461  1  0.937700  0.629800  0.786000  1.0
  H  H462  1  0.276300  0.370200  0.786000  1.0
  H  H463  1  0.062300  0.370200  0.214000  1.0
  H  H464  1  0.723700  0.629800  0.214000  1.0
  H  H465  1  0.845600  0.607900  0.780200  1.0
  H  H466  1  0.374200  0.392100  0.780200  1.0
  H  H467  1  0.154400  0.392100  0.219800  1.0
  H  H468  1  0.625800  0.607900  0.219800  1.0
  H  H469  1  0.802500  0.685100  0.778600  1.0
  H  H470  1  0.418900  0.314900  0.778600  1.0
  H  H471  1  0.197500  0.314900  0.221400  1.0
  H  H472  1  0.581100  0.685100  0.221400  1.0
  H  H473  1  0.835700  0.608600  0.840400  1.0
  H  H474  1  0.323900  0.391400  0.840400  1.0
  H  H475  1  0.164300  0.391400  0.159600  1.0
  H  H476  1  0.676100  0.608600  0.159600  1.0
  H  H477  1  0.772200  0.677900  0.840200  1.0
  H  H478  1  0.387600  0.322100  0.840200  1.0
  H  H479  1  0.227800  0.322100  0.159800  1.0
  H  H480  1  0.612400  0.677900  0.159800  1.0
  H  H481  1  0.848300  0.689000  0.869000  1.0
  H  H482  1  0.282700  0.311000  0.869000  1.0
  H  H483  1  0.151700  0.311000  0.131000  1.0
  H  H484  1  0.717300  0.689000  0.131000  1.0
  H  H485  1  0.909100  0.662400  0.833000  1.0
  H  H486  1  0.257900  0.337600  0.833000  1.0
  H  H487  1  0.090900  0.337600  0.167000  1.0
  H  H488  1  0.742100  0.662400  0.167000  1.0
  H  H489  1  0.845700  0.731600  0.832800  1.0
  H  H490  1  0.321500  0.268400  0.832800  1.0
  H  H491  1  0.154300  0.268400  0.167200  1.0
  H  H492  1  0.678500  0.731600  0.167200  1.0
  H  H493  1  0.957700  0.602100  0.399800  1.0
  H  H494  1  0.642500  0.397900  0.399800  1.0
  H  H495  1  0.042300  0.397900  0.600200  1.0
  H  H496  1  0.357500  0.602100  0.600200  1.0
  H  H497  1  0.937500  0.518600  0.430600  1.0
  H  H498  1  0.631900  0.481400  0.430600  1.0
  H  H499  1  0.062500  0.481400  0.569400  1.0
  H  H500  1  0.368100  0.518600  0.569400  1.0
  H  H501  1  0.111500  0.445900  0.460400  1.0
  H  H502  1  0.428100  0.554100  0.460400  1.0
  H  H503  1  0.888500  0.554100  0.539600  1.0
  H  H504  1  0.571900  0.445900  0.539600  1.0
  H  H505  1  0.257000  0.557200  0.418800  1.0
  H  H506  1  0.324200  0.442800  0.418800  1.0
  H  H507  1  0.743000  0.442800  0.581200  1.0
  H  H508  1  0.675800  0.557200  0.581200  1.0
  H  H509  1  0.197900  0.720100  0.358800  1.0
  H  H510  1  0.443300  0.279900  0.358800  1.0
  H  H511  1  0.802100  0.279900  0.641200  1.0
  H  H512  1  0.556700  0.720100  0.641200  1.0
  H  H513  1  0.102800  0.710900  0.358000  1.0
  H  H514  1  0.539200  0.289100  0.358000  1.0
  H  H515  1  0.897200  0.289100  0.642000  1.0
  H  H516  1  0.460800  0.710900  0.642000  1.0
  H  H517  1  0.092300  0.302600  0.507600  1.0
  H  H518  1  0.400100  0.697400  0.507600  1.0
  H  H519  1  0.907700  0.697400  0.492400  1.0
  H  H520  1  0.599900  0.302600  0.492400  1.0
  H  H521  1  0.128600  0.138200  0.560400  1.0
  H  H522  1  0.311000  0.861800  0.560400  1.0
  H  H523  1  0.871400  0.861800  0.439600  1.0
  H  H524  1  0.689000  0.138200  0.439600  1.0
  H  H525  1  0.020200  0.151800  0.570200  1.0
  H  H526  1  0.409600  0.848200  0.570200  1.0
  H  H527  1  0.979800  0.848200  0.429800  1.0
  H  H528  1  0.590400  0.151800  0.429800  1.0
  H  H529  1  0.905000  0.218000  0.558400  1.0
  H  H530  1  0.536600  0.782000  0.558400  1.0
  H  H531  1  0.095000  0.782000  0.441600  1.0
  H  H532  1  0.463400  0.218000  0.441600  1.0
  H  H533  1  0.838600  0.304200  0.528200  1.0
  H  H534  1  0.633200  0.695800  0.528200  1.0
  H  H535  1  0.161400  0.695800  0.471800  1.0
  H  H536  1  0.366800  0.304200  0.471800  1.0
  H  H537  1  0.871100  0.381700  0.498600  1.0
  H  H538  1  0.630300  0.618300  0.498600  1.0
  H  H539  1  0.128900  0.618300  0.501400  1.0
  H  H540  1  0.369700  0.381700  0.501400  1.0
  H  H541  1  0.302200  0.731600  0.447000  1.0
  H  H542  1  0.250800  0.268400  0.447000  1.0
  H  H543  1  0.697800  0.268400  0.553000  1.0
  H  H544  1  0.749200  0.731600  0.553000  1.0
  H  H545  1  0.379300  0.838200  0.464800  1.0
  H  H546  1  0.155900  0.161800  0.464800  1.0
  H  H547  1  0.620700  0.161800  0.535200  1.0
  H  H548  1  0.844100  0.838200  0.535200  1.0
  H  H549  1  0.476500  0.788700  0.419600  1.0
  H  H550  1  0.103900  0.211300  0.419600  1.0
  H  H551  1  0.523500  0.211300  0.580400  1.0
  H  H552  1  0.896100  0.788700  0.580400  1.0
  H  H553  1  0.545000  0.700900  0.370600  1.0
  H  H554  1  0.084400  0.299100  0.370600  1.0
  H  H555  1  0.455000  0.299100  0.629400  1.0
  H  H556  1  0.915600  0.700900  0.629400  1.0
  H  H557  1  0.556500  0.614800  0.341000  1.0
  H  H558  1  0.102500  0.385200  0.341000  1.0
  H  H559  1  0.443500  0.385200  0.659000  1.0
  H  H560  1  0.897500  0.614800  0.659000  1.0
  H  H561  1  0.466000  0.590500  0.351800  1.0
  H  H562  1  0.182200  0.409500  0.351800  1.0
  H  H563  1  0.534000  0.409500  0.648200  1.0
  H  H564  1  0.817800  0.590500  0.648200  1.0
  H  H565  1  0.005500  0.722000  0.385400  1.0
  H  H566  1  0.609100  0.278000  0.385400  1.0
  H  H567  1  0.994500  0.278000  0.614600  1.0
  H  H568  1  0.390900  0.722000  0.614600  1.0
  H  H569  1  0.961000  0.683300  0.395600  1.0
  H  H570  1  0.643400  0.316700  0.395600  1.0
  H  H571  1  0.039000  0.316700  0.604400  1.0
  H  H572  1  0.356600  0.683300  0.604400  1.0
  H  H573  1  0.000800  0.643300  0.336600  1.0
  H  H574  1  0.662600  0.356700  0.336600  1.0
  H  H575  1  0.999200  0.356700  0.663400  1.0
  H  H576  1  0.337400  0.643300  0.663400  1.0
  H  H577  1  0.055000  0.672300  0.325800  1.0
  H  H578  1  0.619200  0.327700  0.325800  1.0
  H  H579  1  0.945000  0.327700  0.674200  1.0
  H  H580  1  0.380800  0.672300  0.674200  1.0
  H  H581  1  0.908700  0.752700  0.351400  1.0
  H  H582  1  0.739900  0.247300  0.351400  1.0
  H  H583  1  0.091300  0.247300  0.648600  1.0
  H  H584  1  0.260100  0.752700  0.648600  1.0
  H  H585  1  0.962400  0.781400  0.340600  1.0
  H  H586  1  0.697000  0.218600  0.340600  1.0
  H  H587  1  0.037600  0.218600  0.659400  1.0
  H  H588  1  0.303000  0.781400  0.659400  1.0
  H  H589  1  0.926300  0.731100  0.290200  1.0
  H  H590  1  0.783500  0.268900  0.290200  1.0
  H  H591  1  0.073700  0.268900  0.709800  1.0
  H  H592  1  0.216500  0.731100  0.709800  1.0
  H  H593  1  0.992200  0.743600  0.277400  1.0
  H  H594  1  0.730400  0.256400  0.277400  1.0
  H  H595  1  0.007800  0.256400  0.722600  1.0
  H  H596  1  0.269600  0.743600  0.722600  1.0
  H  H597  1  0.853000  0.848400  0.307000  1.0
  H  H598  1  0.840000  0.151600  0.307000  1.0
  H  H599  1  0.147000  0.151600  0.693000  1.0
  H  H600  1  0.160000  0.848400  0.693000  1.0
  H  H601  1  0.919100  0.861200  0.294800  1.0
  H  H602  1  0.786100  0.138800  0.294800  1.0
  H  H603  1  0.080900  0.138800  0.705200  1.0
  H  H604  1  0.213900  0.861200  0.705200  1.0
  H  H605  1  0.872200  0.880400  0.241400  1.0
  H  H606  1  0.886400  0.119600  0.241400  1.0
  H  H607  1  0.127800  0.119600  0.758600  1.0
  H  H608  1  0.113600  0.880400  0.758600  1.0
  H  H609  1  0.946000  0.820500  0.233000  1.0
  H  H610  1  0.821000  0.179500  0.233000  1.0
  H  H611  1  0.054000  0.179500  0.767000  1.0
  H  H612  1  0.179000  0.820500  0.767000  1.0
  H  H613  1  0.880600  0.807800  0.245000  1.0
  H  H614  1  0.874400  0.192200  0.245000  1.0
  H  H615  1  0.119400  0.192200  0.755000  1.0
  H  H616  1  0.125600  0.807800  0.755000  1.0
  N  N617  1  0.041030  0.602600  0.682340  1.0
  N  N618  1  0.276630  0.397400  0.682340  1.0
  N  N619  1  0.958970  0.397400  0.317660  1.0
  N  N620  1  0.723370  0.602600  0.317660  1.0
  N  N621  1  0.236950  0.157800  0.560100  1.0
  N  N622  1  0.202950  0.842200  0.560100  1.0
  N  N623  1  0.763050  0.842200  0.439900  1.0
  N  N624  1  0.797050  0.157800  0.439900  1.0
  N  N625  1  0.188320  0.847400  0.487960  1.0
  N  N626  1  0.323720  0.152600  0.487960  1.0
  N  N627  1  0.811680  0.152600  0.512040  1.0
  N  N628  1  0.676280  0.847400  0.512040  1.0
  N  N629  1  0.060550  0.625300  0.392500  1.0
  N  N630  1  0.546950  0.374700  0.392500  1.0
  N  N631  1  0.939450  0.374700  0.607500  1.0
  N  N632  1  0.453050  0.625300  0.607500  1.0
  N  N633  1  0.118140  0.218500  0.532720  1.0
  N  N634  1  0.349140  0.781500  0.532720  1.0
  N  N635  1  0.881860  0.781500  0.467280  1.0
  N  N636  1  0.650860  0.218500  0.467280  1.0
  N  N637  1  0.334200  0.785800  0.461000  1.0
  N  N638  1  0.204800  0.214200  0.461000  1.0
  N  N639  1  0.665800  0.214200  0.539000  1.0
  N  N640  1  0.795200  0.785800  0.539000  1.0
  O  O641  1  0.128730  0.546900  0.574940  1.0
  O  O642  1  0.296330  0.453100  0.574940  1.0
  O  O643  1  0.871270  0.453100  0.425060  1.0
  O  O644  1  0.703670  0.546900  0.425060  1.0
  O  O645  1  0.196600  0.488900  0.444600  1.0
  O  O646  1  0.358800  0.511100  0.444600  1.0
  O  O647  1  0.803400  0.511100  0.555400  1.0
  O  O648  1  0.641200  0.488900  0.555400  1.0
  Pd  Pd649  1  0.220610  0.189020  0.511020  1.0
  Pd  Pd650  1  0.268370  0.810980  0.511020  1.0
  Pd  Pd651  1  0.779390  0.810980  0.488980  1.0
  Pd  Pd652  1  0.731630  0.189020  0.488980  1.0
