# generated using pymatgen
data_ZrSiC38N
_symmetry_space_group_name_H-M   'P 1'
_cell_length_a   14.62110000
_cell_length_b   15.03420000
_cell_length_c   17.76750000
_cell_angle_alpha   65.45500000
_cell_angle_beta   66.89500000
_cell_angle_gamma   88.62100000
_symmetry_Int_Tables_number   1
_chemical_formula_structural   ZrSiC38N
_chemical_formula_sum   'Zr4 Si4 C152 N4'
_cell_volume   3222.31771110
_cell_formula_units_Z   4
loop_
 _symmetry_equiv_pos_site_id
 _symmetry_equiv_pos_as_xyz
  1  'x, y, z'
loop_
 _atom_site_type_symbol
 _atom_site_label
 _atom_site_symmetry_multiplicity
 _atom_site_fract_x
 _atom_site_fract_y
 _atom_site_fract_z
 _atom_site_occupancy
  Zr  Zr1  1  0.674040  0.289520  0.674480  1.0
  Zr  Zr2  1  0.325960  0.710480  0.325520  1.0
  Zr  Zr3  1  0.275490  0.793800  0.844460  1.0
  Zr  Zr4  1  0.724510  0.206200  0.155540  1.0
  Si  Si5  1  0.523450  0.496140  0.676270  1.0
  Si  Si6  1  0.476550  0.503860  0.323730  1.0
  Si  Si7  1  0.909810  0.293880  0.481670  1.0
  Si  Si8  1  0.090190  0.706120  0.518330  1.0
  C  C9  1  0.779100  0.938300  0.915900  1
  C  C10  1  0.220900  0.061700  0.084100  1
  C  C11  1  0.764800  0.930900  0.848200  1
  C  C12  1  0.235200  0.069100  0.151800  1
  C  C13  1  0.667000  0.897300  0.862700  1
  C  C14  1  0.333000  0.102700  0.137300  1
  C  C15  1  0.589500  0.879500  0.940200  1
  C  C16  1  0.410500  0.120500  0.059800  1
  C  C17  1  0.603700  0.896500  0.004600  1
  C  C18  1  0.396300  0.103500  0.995400  1
  C  C19  1  0.699800  0.920700  0.994400  1
  C  C20  1  0.300200  0.079300  0.005600  1
  C  C21  1  0.173900  0.464800  0.111200  1
  C  C22  1  0.826100  0.535200  0.888800  1
  C  C23  1  0.175800  0.411300  0.064600  1
  C  C24  1  0.824200  0.588700  0.935400  1
  C  C25  1  0.260300  0.379400  0.027500  1
  C  C26  1  0.739700  0.620600  0.972500  1
  C  C27  1  0.346800  0.402100  0.032800  1
  C  C28  1  0.653200  0.597900  0.967200  1
  C  C29  1  0.345100  0.457300  0.078200  1
  C  C30  1  0.654900  0.542700  0.921800  1
  C  C31  1  0.258800  0.486400  0.119200  1
  C  C32  1  0.741200  0.513600  0.880800  1
  C  C33  1  0.161900  0.196200  0.292200  1
  C  C34  1  0.838100  0.803800  0.707800  1
  C  C35  1  0.245900  0.225300  0.298000  1
  C  C36  1  0.754100  0.774700  0.702000  1
  C  C37  1  0.271100  0.166500  0.364800  1
  C  C38  1  0.728900  0.833500  0.635200  1
  C  C39  1  0.213100  0.074800  0.427200  1
  C  C40  1  0.786900  0.925200  0.572800  1
  C  C41  1  0.130700  0.043900  0.422500  1
  C  C42  1  0.869300  0.956100  0.577500  1
  C  C43  1  0.103100  0.102400  0.355700  1
  C  C44  1  0.896900  0.897600  0.644300  1
  C  C45  1  0.627800  0.439300  0.620900  1.0
  C  C46  1  0.372200  0.560700  0.379100  1.0
  C  C47  1  0.703500  0.490200  0.535900  1.0
  C  C48  1  0.296500  0.509800  0.464100  1.0
  C  C49  1  0.786500  0.443100  0.490600  1.0
  C  C50  1  0.213500  0.556900  0.509400  1.0
  C  C51  1  0.804900  0.351200  0.536100  1.0
  C  C52  1  0.195100  0.648800  0.463900  1.0
  C  C53  1  0.843800  0.502400  0.388800  1.0
  C  C54  1  0.156200  0.497600  0.611200  1.0
  C  C55  1  0.816600  0.478600  0.332200  1.0
  C  C56  1  0.183400  0.521400  0.667800  1.0
  C  C57  1  0.920700  0.582600  0.348400  1.0
  C  C58  1  0.079300  0.417400  0.651600  1.0
  C  C59  1  0.863200  0.533300  0.238100  1.0
  C  C60  1  0.136800  0.466700  0.761900  1.0
  C  C61  1  0.968200  0.636600  0.254700  1.0
  C  C62  1  0.031800  0.363400  0.745300  1.0
  C  C63  1  0.939600  0.613900  0.197800  1.0
  C  C64  1  0.060400  0.386100  0.802200  1.0
  C  C65  1  0.087100  0.709200  0.049400  1.0
  C  C66  1  0.912900  0.290800  0.950600  1.0
  C  C67  1  0.986600  0.675300  0.097400  1.0
  C  C68  1  0.013400  0.324700  0.902600  1.0
  C  C69  1  0.926900  0.700400  0.046500  1.0
  C  C70  1  0.073100  0.299600  0.953500  1.0
  C  C71  1  0.967800  0.764600  0.956800  1.0
  C  C72  1  0.032200  0.235400  0.043200  1.0
  C  C73  1  0.071200  0.808100  0.912400  1.0
  C  C74  1  0.928800  0.191900  0.087600  1.0
  C  C75  1  0.115800  0.891100  0.826200  1.0
  C  C76  1  0.884200  0.108900  0.173800  1.0
  C  C77  1  0.063800  0.940900  0.771400  1.0
  C  C78  1  0.936200  0.059100  0.228600  1.0
  C  C79  1  0.102900  0.034300  0.704500  1.0
  C  C80  1  0.897100  0.965700  0.295500  1.0
  C  C81  1  0.196800  0.083200  0.687800  1.0
  C  C82  1  0.803200  0.916800  0.312200  1.0
  C  C83  1  0.251300  0.025900  0.730500  1.0
  C  C84  1  0.748700  0.974100  0.269500  1.0
  C  C85  1  0.232000  0.190600  0.626300  1.0
  C  C86  1  0.768000  0.809400  0.373700  1.0
  C  C87  1  0.280600  0.251000  0.646400  1.0
  C  C88  1  0.719400  0.749000  0.353600  1.0
  C  C89  1  0.212400  0.236200  0.549200  1.0
  C  C90  1  0.787600  0.763800  0.450800  1.0
  C  C91  1  0.304900  0.353100  0.593600  1.0
  C  C92  1  0.695100  0.646900  0.406400  1.0
  C  C93  1  0.237700  0.338500  0.495900  1.0
  C  C94  1  0.762300  0.661500  0.504100  1.0
  C  C95  1  0.717200  0.601000  0.482300  1.0
  C  C96  1  0.282800  0.399000  0.517700  1.0
  C  C97  1  0.533100  0.245500  0.641800  1.0
  C  C98  1  0.466900  0.754500  0.358200  1.0
  C  C99  1  0.506800  0.185300  0.734900  1.0
  C  C100  1  0.493200  0.814700  0.265100  1.0
  C  C101  1  0.575400  0.118700  0.741100  1.0
  C  C102  1  0.424600  0.881300  0.258900  1.0
  C  C103  1  0.644000  0.138200  0.652900  1.0
  C  C104  1  0.356000  0.861800  0.347100  1.0
  C  C105  1  0.617800  0.217000  0.591100  1.0
  C  C106  1  0.382200  0.783000  0.408900  1.0
  C  C107  1  0.812200  0.321200  0.714800  1.0
  C  C108  1  0.187800  0.678800  0.285200  1.0
  C  C109  1  0.740200  0.376900  0.742100  1.0
  C  C110  1  0.259800  0.623100  0.257900  1.0
  C  C111  1  0.653700  0.310800  0.814700  1.0
  C  C112  1  0.346300  0.689200  0.185300  1.0
  C  C113  1  0.673500  0.214500  0.831700  1.0
  C  C114  1  0.326500  0.785500  0.168300  1.0
  C  C115  1  0.771400  0.220800  0.769800  1.0
  C  C116  1  0.228600  0.779200  0.230200  1.0
  C  C117  1  0.282600  0.768700  0.709900  1.0
  C  C118  1  0.717400  0.231300  0.290100  1.0
  C  C119  1  0.355300  0.719400  0.735600  1.0
  C  C120  1  0.644700  0.280600  0.264400  1.0
  C  C121  1  0.305800  0.638900  0.821800  1.0
  C  C122  1  0.694200  0.361100  0.178200  1.0
  C  C123  1  0.201900  0.639100  0.849300  1.0
  C  C124  1  0.798100  0.360900  0.150700  1.0
  C  C125  1  0.186800  0.718700  0.780500  1.0
  C  C126  1  0.813200  0.281300  0.219500  1.0
  C  C127  1  0.440900  0.775300  0.852800  1.0
  C  C128  1  0.559100  0.224700  0.147200  1.0
  C  C129  1  0.370500  0.748400  0.941100  1.0
  C  C130  1  0.629500  0.251600  0.058900  1.0
  C  C131  1  0.333400  0.831900  0.946400  1.0
  C  C132  1  0.666600  0.168100  0.053600  1.0
  C  C133  1  0.379200  0.910000  0.862200  1.0
  C  C134  1  0.620800  0.090000  0.137800  1.0
  C  C135  1  0.445300  0.877600  0.803100  1.0
  C  C136  1  0.554700  0.122400  0.196900  1.0
  C  C137  1  0.412300  0.396600  0.768700  1.0
  C  C138  1  0.587700  0.603400  0.231300  1.0
  C  C139  1  0.474600  0.586900  0.597100  1.0
  C  C140  1  0.525400  0.413100  0.402900  1.0
  C  C141  1  0.563100  0.558800  0.733100  1.0
  C  C142  1  0.436900  0.441200  0.266900  1.0
  C  C143  1  0.873400  0.232200  0.422500  1.0
  C  C144  1  0.126600  0.767800  0.577500  1.0
  C  C145  1  0.940700  0.196000  0.572000  1.0
  C  C146  1  0.059300  0.804000  0.428000  1.0
  C  C147  1  0.031400  0.381200  0.399300  1.0
  C  C148  1  0.968600  0.618800  0.600700  1.0
  C  C149  1  0.102500  0.020100  0.946300  1.0
  C  C150  1  0.897500  0.979900  0.053700  1.0
  C  C151  1  0.061600  0.943000  0.033700  1.0
  C  C152  1  0.938400  0.057000  0.966300  1.0
  C  C153  1  0.040100  0.076700  0.913900  1.0
  C  C154  1  0.959900  0.923300  0.086100  1.0
  C  C155  1  0.576800  0.947200  0.497800  1.0
  C  C156  1  0.423200  0.052800  0.502200  1.0
  C  C157  1  0.511200  0.931100  0.466600  1.0
  C  C158  1  0.488800  0.068900  0.533400  1.0
  C  C159  1  0.565800  0.017000  0.531500  1.0
  C  C160  1  0.434200  0.983000  0.468500  1.0
  N  N161  1  0.132800  0.769000  0.957600  1.0
  N  N162  1  0.867200  0.231000  0.042400  1.0
  N  N163  1  0.218000  0.928800  0.793400  1.0
  N  N164  1  0.782000  0.071200  0.206600  1.0
