# generated using pymatgen
data_ZrSiC23N
_symmetry_space_group_name_H-M   'P 1'
_cell_length_a   13.88460000
_cell_length_b   14.05010000
_cell_length_c   14.20320000
_cell_angle_alpha   61.38500000
_cell_angle_beta   87.02900000
_cell_angle_gamma   65.55900000
_symmetry_Int_Tables_number   1
_chemical_formula_structural   ZrSiC23N
_chemical_formula_sum   'Zr4 Si4 C92 N4'
_cell_volume   2176.93402394
_cell_formula_units_Z   4
loop_
 _symmetry_equiv_pos_site_id
 _symmetry_equiv_pos_as_xyz
  1  'x, y, z'
loop_
 _atom_site_type_symbol
 _atom_site_label
 _atom_site_symmetry_multiplicity
 _atom_site_fract_x
 _atom_site_fract_y
 _atom_site_fract_z
 _atom_site_occupancy
  Zr  Zr1  1  0.988940  0.697140  0.683380  1.0
  Zr  Zr2  1  0.011060  0.302860  0.316620  1.0
  Zr  Zr3  1  0.289320  0.952290  0.954690  1.0
  Zr  Zr4  1  0.710680  0.047710  0.045310  1.0
  Si  Si5  1  0.724050  0.949670  0.656890  1.0
  Si  Si6  1  0.275950  0.050330  0.343110  1.0
  Si  Si7  1  0.259740  0.586990  0.838600  1.0
  Si  Si8  1  0.740260  0.413010  0.161400  1.0
  C  C9  1  0.357800  0.310500  0.515000  1
  C  C10  1  0.642200  0.689500  0.485000  1
  C  C11  1  0.373500  0.356700  0.409500  1
  C  C12  1  0.626500  0.643300  0.590500  1
  C  C13  1  0.381000  0.456500  0.354900  1
  C  C14  1  0.619000  0.543500  0.645100  1
  C  C15  1  0.359000  0.522500  0.405500  1
  C  C16  1  0.641000  0.477500  0.594500  1
  C  C17  1  0.354000  0.472200  0.515500  1
  C  C18  1  0.646000  0.527800  0.484500  1
  C  C19  1  0.351800  0.368900  0.567200  1
  C  C20  1  0.648200  0.631100  0.432800  1
  C  C21  1  0.871400  0.848800  0.707400  1.0
  C  C22  1  0.128600  0.151200  0.292600  1.0
  C  C23  1  0.933500  0.854700  0.774100  1.0
  C  C24  1  0.066500  0.145300  0.225900  1.0
  C  C25  1  0.052700  0.769900  0.818700  1.0
  C  C26  1  0.947300  0.230100  0.181300  1.0
  C  C27  1  0.111400  0.685700  0.790500  1.0
  C  C28  1  0.888600  0.314300  0.209500  1.0
  C  C29  1  0.142900  0.862100  0.874900  1.0
  C  C30  1  0.857100  0.137900  0.125100  1.0
  C  C31  1  0.098300  0.784600  0.901700  1.0
  C  C32  1  0.901700  0.215400  0.098300  1.0
  C  C33  1  0.092400  0.718900  0.014600  1.0
  C  C34  1  0.907600  0.281100  0.985400  1.0
  C  C35  1  0.120200  0.743600  0.087700  1.0
  C  C36  1  0.879800  0.256400  0.912300  1.0
  C  C37  1  0.152100  0.837900  0.051800  1.0
  C  C38  1  0.847900  0.162100  0.948200  1.0
  C  C39  1  0.154700  0.893100  0.112300  1.0
  C  C40  1  0.845300  0.106900  0.887700  1.0
  C  C41  1  0.123200  0.862600  0.216600  1.0
  C  C42  1  0.876800  0.137400  0.783400  1.0
  C  C43  1  0.099100  0.940600  0.254500  1.0
  C  C44  1  0.900900  0.059400  0.745500  1.0
  C  C45  1  0.890700  0.949200  0.807000  1.0
  C  C46  1  0.109300  0.050800  0.193000  1.0
  C  C47  1  0.153000  0.067500  0.101800  1.0
  C  C48  1  0.847000  0.932500  0.898200  1.0
  C  C49  1  0.682900  0.114200  0.600100  1.0
  C  C50  1  0.317100  0.885800  0.399900  1.0
  C  C51  1  0.675100  0.935600  0.545900  1.0
  C  C52  1  0.324900  0.064400  0.454100  1.0
  C  C53  1  0.647500  0.901800  0.769400  1.0
  C  C54  1  0.352500  0.098200  0.230600  1.0
  C  C55  1  0.306300  0.506600  0.989000  1.0
  C  C56  1  0.693700  0.493400  0.011000  1.0
  C  C57  1  0.334400  0.678900  0.770200  1.0
  C  C58  1  0.665600  0.321100  0.229800  1.0
  C  C59  1  0.301800  0.467000  0.800400  1.0
  C  C60  1  0.698200  0.533000  0.199600  1.0
  C  C61  1  0.934600  0.568300  0.852100  1.0
  C  C62  1  0.065400  0.431700  0.147900  1.0
  C  C63  1  0.036900  0.492700  0.848900  1.0
  C  C64  1  0.963100  0.507300  0.151100  1.0
  C  C65  1  0.028800  0.480800  0.757300  1.0
  C  C66  1  0.971200  0.519200  0.242700  1.0
  C  C67  1  0.920900  0.547100  0.706800  1.0
  C  C68  1  0.079100  0.452900  0.293200  1.0
  C  C69  1  0.862900  0.600700  0.765400  1.0
  C  C70  1  0.137100  0.399300  0.234600  1.0
  C  C71  1  0.942900  0.874800  0.493400  1.0
  C  C72  1  0.057100  0.125200  0.506600  1.0
  C  C73  1  0.047900  0.842500  0.533300  1.0
  C  C74  1  0.952100  0.157500  0.466700  1.0
  C  C75  1  0.113700  0.728800  0.545300  1.0
  C  C76  1  0.886300  0.271200  0.454700  1.0
  C  C77  1  0.049200  0.690500  0.514800  1.0
  C  C78  1  0.950800  0.309500  0.485200  1.0
  C  C79  1  0.942500  0.780200  0.483500  1.0
  C  C80  1  0.057500  0.219800  0.516500  1.0
  C  C81  1  0.167200  0.121700  0.773100  1.0
  C  C82  1  0.832800  0.878300  0.226900  1.0
  C  C83  1  0.169300  0.176500  0.831800  1.0
  C  C84  1  0.830700  0.823500  0.168200  1.0
  C  C85  1  0.275500  0.160900  0.849500  1.0
  C  C86  1  0.724500  0.839100  0.150500  1.0
  C  C87  1  0.339100  0.096300  0.800200  1.0
  C  C88  1  0.660900  0.903700  0.199800  1.0
  C  C89  1  0.272100  0.071200  0.753000  1.0
  C  C90  1  0.727900  0.928800  0.247000  1.0
  C  C91  1  0.447400  0.833600  0.108300  1.0
  C  C92  1  0.552600  0.166400  0.891700  1.0
  C  C93  1  0.489600  0.856500  0.013400  1.0
  C  C94  1  0.510400  0.143500  0.986600  1.0
  C  C95  1  0.473000  0.793500  0.971900  1.0
  C  C96  1  0.527000  0.206500  0.028100  1.0
  C  C97  1  0.420500  0.729500  0.039700  1.0
  C  C98  1  0.579500  0.270500  0.960300  1.0
  C  C99  1  0.403800  0.753800  0.125600  1.0
  C  C100  1  0.596200  0.246200  0.874400  1.0
  N  N101  1  0.175400  0.886600  0.946600  1.0
  N  N102  1  0.824600  0.113400  0.053400  1.0
  N  N103  1  0.181800  0.989600  0.062300  1.0
  N  N104  1  0.818200  0.010400  0.937700  1.0
