# generated using pymatgen
data_Fe2Ni2H46C65N20O9
_symmetry_space_group_name_H-M   'P 1'
_cell_length_a   11.94210000
_cell_length_b   13.33400000
_cell_length_c   20.43700000
_cell_angle_alpha   90.00000000
_cell_angle_beta   90.00000000
_cell_angle_gamma   90.00000000
_symmetry_Int_Tables_number   1
_chemical_formula_structural   Fe2Ni2H46C65N20O9
_chemical_formula_sum   'Fe4 Ni4 H92 C130 N40 O18'
_cell_volume   3254.30534313
_cell_formula_units_Z   2
loop_
 _symmetry_equiv_pos_site_id
 _symmetry_equiv_pos_as_xyz
  1  'x, y, z'
loop_
 _atom_site_type_symbol
 _atom_site_label
 _atom_site_symmetry_multiplicity
 _atom_site_fract_x
 _atom_site_fract_y
 _atom_site_fract_z
 _atom_site_occupancy
  Fe  Fe1  1  0.829860  0.663320  0.114870  1.0
  Fe  Fe2  1  0.829860  0.336680  0.885130  1.0
  Fe  Fe3  1  0.170140  0.163320  0.385130  1.0
  Fe  Fe4  1  0.170140  0.836680  0.614870  1.0
  Ni  Ni5  1  0.787140  0.363480  0.130938  1.0
  Ni  Ni6  1  0.787140  0.636520  0.869062  1.0
  Ni  Ni7  1  0.212860  0.863480  0.369062  1.0
  Ni  Ni8  1  0.212860  0.136520  0.630938  1.0
  H  H9  1  0.448100  0.771600  0.061000  1.0
  H  H10  1  0.448100  0.228400  0.939000  1.0
  H  H11  1  0.551900  0.271600  0.439000  1.0
  H  H12  1  0.551900  0.728400  0.561000  1.0
  H  H13  1  0.482700  0.942600  0.048500  1.0
  H  H14  1  0.482700  0.057400  0.951500  1.0
  H  H15  1  0.517300  0.442600  0.451500  1.0
  H  H16  1  0.517300  0.557400  0.548500  1.0
  H  H17  1  0.662300  0.004800  0.069600  1.0
  H  H18  1  0.662300  0.995200  0.930400  1.0
  H  H19  1  0.337700  0.504800  0.430400  1.0
  H  H20  1  0.337700  0.495200  0.569600  1.0
  H  H21  1  0.804200  0.895900  0.099300  1.0
  H  H22  1  0.804200  0.104100  0.900700  1.0
  H  H23  1  0.195800  0.395900  0.400700  1.0
  H  H24  1  0.195800  0.604100  0.599300  1.0
  H  H25  1  0.448700  0.561300  0.066000  1.0
  H  H26  1  0.448700  0.438700  0.934000  1.0
  H  H27  1  0.551300  0.061300  0.434000  1.0
  H  H28  1  0.551300  0.938700  0.566000  1.0
  H  H29  1  0.381000  0.373600  0.071100  1.0
  H  H30  1  0.381000  0.626400  0.928900  1.0
  H  H31  1  0.619000  0.873600  0.428900  1.0
  H  H32  1  0.619000  0.126400  0.571100  1.0
  H  H33  1  0.337300  0.202200  0.085000  1.0
  H  H34  1  0.337300  0.797800  0.915000  1.0
  H  H35  1  0.662700  0.702200  0.415000  1.0
  H  H36  1  0.662700  0.297800  0.585000  1.0
  H  H37  1  0.478800  0.091700  0.118900  1.0
  H  H38  1  0.478800  0.908300  0.881100  1.0
  H  H39  1  0.521200  0.591700  0.381100  1.0
  H  H40  1  0.521200  0.408300  0.618900  1.0
  H  H41  1  0.658300  0.152900  0.136100  1.0
  H  H42  1  0.658300  0.847100  0.863900  1.0
  H  H43  1  0.341700  0.652900  0.363900  1.0
  H  H44  1  0.341700  0.347100  0.636100  1.0
  H  H45  1  0.894800  0.109900  0.294000  1.0
  H  H46  1  0.894800  0.890100  0.706000  1.0
  H  H47  1  0.105200  0.609900  0.206000  1.0
  H  H48  1  0.105200  0.390100  0.794000  1.0
  H  H49  1  0.970800  0.987800  0.223800  1.0
  H  H50  1  0.970800  0.012200  0.776200  1.0
  H  H51  1  0.029200  0.487800  0.276200  1.0
  H  H52  1  0.029200  0.512200  0.723800  1.0
  H  H53  1  0.977200  0.020100  0.111900  1.0
  H  H54  1  0.977200  0.979900  0.888100  1.0
  H  H55  1  0.022800  0.520100  0.388100  1.0
  H  H56  1  0.022800  0.479900  0.611900  1.0
  H  H57  1  0.913600  0.173100  0.071900  1.0
  H  H58  1  0.913600  0.826900  0.928100  1.0
  H  H59  1  0.086400  0.673100  0.428100  1.0
  H  H60  1  0.086400  0.326900  0.571900  1.0
  H  H61  1  0.812400  0.287900  0.307300  1.0
  H  H62  1  0.812400  0.712100  0.692700  1.0
  H  H63  1  0.187600  0.787900  0.192700  1.0
  H  H64  1  0.187600  0.212100  0.807300  1.0
  H  H65  1  0.744000  0.513400  0.248600  1.0
  H  H66  1  0.744000  0.486600  0.751400  1.0
  H  H67  1  0.256000  0.013400  0.251400  1.0
  H  H68  1  0.256000  0.986600  0.748600  1.0
  H  H69  1  0.715900  0.394800  0.363400  1.0
  H  H70  1  0.715900  0.605200  0.636600  1.0
  H  H71  1  0.284100  0.894800  0.136600  1.0
  H  H72  1  0.284100  0.105200  0.863400  1.0
  H  H73  1  0.714700  0.514700  0.360500  1.0
  H  H74  1  0.714700  0.485300  0.639500  1.0
  H  H75  1  0.285300  0.014700  0.139500  1.0
  H  H76  1  0.285300  0.985300  0.860500  1.0
  H  H77  1  0.828200  0.454700  0.346100  1.0
  H  H78  1  0.828200  0.545300  0.653900  1.0
  H  H79  1  0.171800  0.954700  0.153900  1.0
  H  H80  1  0.171800  0.045300  0.846100  1.0
  H  H81  1  0.569100  0.595300  0.239600  1.0
  H  H82  1  0.569100  0.404700  0.760400  1.0
  H  H83  1  0.430900  0.095300  0.260400  1.0
  H  H84  1  0.430900  0.904700  0.739600  1.0
  H  H85  1  0.374700  0.588800  0.228300  1.0
  H  H86  1  0.374700  0.411200  0.771700  1.0
  H  H87  1  0.625300  0.088800  0.271700  1.0
  H  H88  1  0.625300  0.911200  0.728300  1.0
  H  H89  1  0.280400  0.437000  0.236500  1.0
  H  H90  1  0.280400  0.563000  0.763500  1.0
  H  H91  1  0.719600  0.937000  0.263500  1.0
  H  H92  1  0.719600  0.063000  0.736500  1.0
  H  H93  1  0.377700  0.291400  0.261900  1.0
  H  H94  1  0.377700  0.708600  0.738100  1.0
  H  H95  1  0.622300  0.791400  0.238100  1.0
  H  H96  1  0.622300  0.208600  0.761900  1.0
  H  H97  1  0.572300  0.296000  0.276000  1.0
  H  H98  1  0.572300  0.704000  0.724000  1.0
  H  H99  1  0.427700  0.796000  0.224000  1.0
  H  H100  1  0.427700  0.204000  0.776000  1.0
  C  C101  1  0.200900  0.588500  0.080800  1
  C  C102  1  0.200900  0.411500  0.919200  1
  C  C103  1  0.799100  0.088500  0.419200  1
  C  C104  1  0.799100  0.911500  0.580800  1
  C  C105  1  0.126700  0.500000  0.000000  1
  C  C106  1  0.873300  0.000000  0.500000  1
  C  C107  1  0.912900  0.544100  0.132370  1.0
  C  C108  1  0.912900  0.455900  0.867630  1.0
  C  C109  1  0.087100  0.044100  0.367630  1.0
  C  C110  1  0.087100  0.955900  0.632370  1.0
  C  C111  1  0.841100  0.650600  0.019940  1.0
  C  C112  1  0.841100  0.349400  0.980060  1.0
  C  C113  1  0.158900  0.150600  0.480060  1.0
  C  C114  1  0.158900  0.849400  0.519940  1.0
  C  C115  1  0.957400  0.752700  0.107670  1.0
  C  C116  1  0.957400  0.247300  0.892330  1.0
  C  C117  1  0.042600  0.252700  0.392330  1.0
  C  C118  1  0.042600  0.747300  0.607670  1.0
  C  C119  1  0.827300  0.696500  0.208170  1.0
  C  C120  1  0.827300  0.303500  0.791830  1.0
  C  C121  1  0.172700  0.196500  0.291830  1.0
  C  C122  1  0.172700  0.803500  0.708170  1.0
  C  C123  1  0.609600  0.734200  0.085210  1.0
  C  C124  1  0.609600  0.265800  0.914790  1.0
  C  C125  1  0.390400  0.234200  0.414790  1.0
  C  C126  1  0.390400  0.765800  0.585210  1.0
  C  C127  1  0.521000  0.797800  0.067960  1.0
  C  C128  1  0.521000  0.202200  0.932040  1.0
  C  C129  1  0.479000  0.297800  0.432040  1.0
  C  C130  1  0.479000  0.702200  0.567960  1.0
  C  C131  1  0.541100  0.898500  0.061270  1.0
  C  C132  1  0.541100  0.101500  0.938730  1.0
  C  C133  1  0.458900  0.398500  0.438730  1.0
  C  C134  1  0.458900  0.601500  0.561270  1.0
  C  C135  1  0.647400  0.935000  0.073310  1.0
  C  C136  1  0.647400  0.065000  0.926690  1.0
  C  C137  1  0.352600  0.435000  0.426690  1.0
  C  C138  1  0.352600  0.565000  0.573310  1.0
  C  C139  1  0.731700  0.869800  0.090740  1.0
  C  C140  1  0.731700  0.130200  0.909260  1.0
  C  C141  1  0.268300  0.369800  0.409260  1.0
  C  C142  1  0.268300  0.630200  0.590740  1.0
  C  C143  1  0.602300  0.626000  0.091200  1.0
  C  C144  1  0.602300  0.374000  0.908800  1.0
  C  C145  1  0.397700  0.126000  0.408800  1.0
  C  C146  1  0.397700  0.874000  0.591200  1.0
  C  C147  1  0.523900  0.553100  0.080150  1.0
  C  C148  1  0.523900  0.446900  0.919850  1.0
  C  C149  1  0.476100  0.053100  0.419850  1.0
  C  C150  1  0.476100  0.946900  0.580150  1.0
  C  C151  1  0.580000  0.463700  0.094540  1.0
  C  C152  1  0.580000  0.536300  0.905460  1.0
  C  C153  1  0.420000  0.963700  0.405460  1.0
  C  C154  1  0.420000  0.036300  0.594540  1.0
  C  C155  1  0.546300  0.359300  0.097070  1.0
  C  C156  1  0.546300  0.640700  0.902930  1.0
  C  C157  1  0.453700  0.859300  0.402930  1.0
  C  C158  1  0.453700  0.140700  0.597070  1.0
  C  C159  1  0.436800  0.327300  0.084760  1.0
  C  C160  1  0.436800  0.672700  0.915240  1.0
  C  C161  1  0.563200  0.827300  0.415240  1.0
  C  C162  1  0.563200  0.172700  0.584760  1.0
  C  C163  1  0.411100  0.226000  0.092870  1.0
  C  C164  1  0.411100  0.774000  0.907130  1.0
  C  C165  1  0.588900  0.726000  0.407130  1.0
  C  C166  1  0.588900  0.274000  0.592870  1.0
  C  C167  1  0.494400  0.160800  0.112560  1.0
  C  C168  1  0.494400  0.839200  0.887440  1.0
  C  C169  1  0.505600  0.660800  0.387440  1.0
  C  C170  1  0.505600  0.339200  0.612560  1.0
  C  C171  1  0.601300  0.198300  0.122840  1.0
  C  C172  1  0.601300  0.801700  0.877160  1.0
  C  C173  1  0.398700  0.698300  0.377160  1.0
  C  C174  1  0.398700  0.301700  0.622840  1.0
  C  C175  1  0.861700  0.211300  0.221760  1.0
  C  C176  1  0.861700  0.788700  0.778240  1.0
  C  C177  1  0.138300  0.711300  0.278240  1.0
  C  C178  1  0.138300  0.288700  0.721760  1.0
  C  C179  1  0.899300  0.121700  0.248220  1.0
  C  C180  1  0.899300  0.878300  0.751780  1.0
  C  C181  1  0.100700  0.621700  0.251780  1.0
  C  C182  1  0.100700  0.378300  0.748220  1.0
  C  C183  1  0.943700  0.049600  0.206800  1.0
  C  C184  1  0.943700  0.950400  0.793200  1.0
  C  C185  1  0.056300  0.549600  0.293200  1.0
  C  C186  1  0.056300  0.450400  0.706800  1.0
  C  C187  1  0.947900  0.068800  0.141200  1.0
  C  C188  1  0.947900  0.931200  0.858800  1.0
  C  C189  1  0.052100  0.568800  0.358800  1.0
  C  C190  1  0.052100  0.431200  0.641200  1.0
  C  C191  1  0.909100  0.160000  0.117560  1.0
  C  C192  1  0.909100  0.840000  0.882440  1.0
  C  C193  1  0.090900  0.660000  0.382440  1.0
  C  C194  1  0.090900  0.340000  0.617560  1.0
  C  C195  1  0.812300  0.291600  0.260860  1.0
  C  C196  1  0.812300  0.708400  0.739140  1.0
  C  C197  1  0.187700  0.791600  0.239140  1.0
  C  C198  1  0.187700  0.208400  0.760860  1.0
  C  C199  1  0.716800  0.449600  0.268670  1.0
  C  C200  1  0.716800  0.550400  0.731330  1.0
  C  C201  1  0.283200  0.949600  0.231330  1.0
  C  C202  1  0.283200  0.050400  0.768670  1.0
  C  C203  1  0.746500  0.453800  0.341130  1.0
  C  C204  1  0.746500  0.546200  0.658870  1.0
  C  C205  1  0.253500  0.953800  0.158870  1.0
  C  C206  1  0.253500  0.046200  0.841130  1.0
  C  C207  1  0.590900  0.445900  0.258380  1.0
  C  C208  1  0.590900  0.554100  0.741620  1.0
  C  C209  1  0.409100  0.945900  0.241620  1.0
  C  C210  1  0.409100  0.054100  0.758380  1.0
  C  C211  1  0.530900  0.533200  0.244310  1.0
  C  C212  1  0.530900  0.466800  0.755690  1.0
  C  C213  1  0.469100  0.033200  0.255690  1.0
  C  C214  1  0.469100  0.966800  0.744310  1.0
  C  C215  1  0.415400  0.529100  0.237150  1.0
  C  C216  1  0.415400  0.470900  0.762850  1.0
  C  C217  1  0.584600  0.029100  0.262850  1.0
  C  C218  1  0.584600  0.970900  0.737150  1.0
  C  C219  1  0.359200  0.439300  0.242730  1.0
  C  C220  1  0.359200  0.560700  0.757270  1.0
  C  C221  1  0.640800  0.939300  0.257270  1.0
  C  C222  1  0.640800  0.060700  0.742730  1.0
  C  C223  1  0.416800  0.353000  0.257320  1.0
  C  C224  1  0.416800  0.647000  0.742680  1.0
  C  C225  1  0.583200  0.853000  0.242680  1.0
  C  C226  1  0.583200  0.147000  0.757320  1.0
  C  C227  1  0.532800  0.355700  0.265520  1.0
  C  C228  1  0.532800  0.644300  0.734480  1.0
  C  C229  1  0.467200  0.855700  0.234480  1.0
  C  C230  1  0.467200  0.144300  0.765520  1.0
  N  N231  1  0.943400  0.463200  0.143900  1.0
  N  N232  1  0.943400  0.536800  0.856100  1.0
  N  N233  1  0.056600  0.963200  0.356100  1.0
  N  N234  1  0.056600  0.036800  0.643900  1.0
  N  N235  1  0.831800  0.647700  0.964210  1.0
  N  N236  1  0.831800  0.352300  0.035790  1.0
  N  N237  1  0.168200  0.147700  0.535790  1.0
  N  N238  1  0.168200  0.852300  0.464210  1.0
  N  N239  1  0.027200  0.809000  0.100810  1.0
  N  N240  1  0.027200  0.191000  0.899190  1.0
  N  N241  1  0.972800  0.309000  0.399190  1.0
  N  N242  1  0.972800  0.691000  0.600810  1.0
  N  N243  1  0.827400  0.717300  0.262590  1.0
  N  N244  1  0.827400  0.282700  0.737410  1.0
  N  N245  1  0.172600  0.217300  0.237410  1.0
  N  N246  1  0.172600  0.782700  0.762590  1.0
  N  N247  1  0.714900  0.770500  0.096090  1.0
  N  N248  1  0.714900  0.229500  0.903910  1.0
  N  N249  1  0.285100  0.270500  0.403910  1.0
  N  N250  1  0.285100  0.729500  0.596090  1.0
  N  N251  1  0.700100  0.582480  0.111290  1.0
  N  N252  1  0.700100  0.417520  0.888710  1.0
  N  N253  1  0.299900  0.082480  0.388710  1.0
  N  N254  1  0.299900  0.917520  0.611290  1.0
  N  N255  1  0.685800  0.483090  0.112630  1.0
  N  N256  1  0.685800  0.516910  0.887370  1.0
  N  N257  1  0.314200  0.983090  0.387370  1.0
  N  N258  1  0.314200  0.016910  0.612630  1.0
  N  N259  1  0.628400  0.294600  0.115170  1.0
  N  N260  1  0.628400  0.705400  0.884830  1.0
  N  N261  1  0.371600  0.794600  0.384830  1.0
  N  N262  1  0.371600  0.205400  0.615170  1.0
  N  N263  1  0.865500  0.230100  0.157080  1.0
  N  N264  1  0.865500  0.769900  0.842920  1.0
  N  N265  1  0.134500  0.730100  0.342920  1.0
  N  N266  1  0.134500  0.269900  0.657080  1.0
  N  N267  1  0.769200  0.366600  0.231920  1.0
  N  N268  1  0.769200  0.633400  0.768080  1.0
  N  N269  1  0.230800  0.866600  0.268080  1.0
  N  N270  1  0.230800  0.133400  0.731920  1.0
  O  O271  1  0.273600  0.677500  0.088800  1
  O  O272  1  0.273600  0.322500  0.911200  1
  O  O273  1  0.726400  0.177500  0.411200  1
  O  O274  1  0.726400  0.822500  0.588800  1
  O  O275  1  0.165900  0.178900  0.010600  1
  O  O276  1  0.165900  0.821100  0.989400  1
  O  O277  1  0.834100  0.678900  0.489400  1
  O  O278  1  0.834100  0.321100  0.510600  1
  O  O279  1  0.128700  0.313200  0.114190  1
  O  O280  1  0.128700  0.686800  0.885810  1
  O  O281  1  0.871300  0.813200  0.385810  1
  O  O282  1  0.871300  0.186800  0.614190  1
  O  O283  1  0.304100  0.000000  0.000000  1
  O  O284  1  0.695900  0.500000  0.500000  1
  O  O285  1  0.213000  0.475500  0.048100  1
  O  O286  1  0.213000  0.524500  0.951900  1
  O  O287  1  0.787000  0.975500  0.451900  1
  O  O288  1  0.787000  0.024500  0.548100  1
