# generated using pymatgen
data_Fe2Ni2H44C65N20O9
_symmetry_space_group_name_H-M   'P 1'
_cell_length_a   11.93440000
_cell_length_b   13.31900000
_cell_length_c   20.39000000
_cell_angle_alpha   90.00000000
_cell_angle_beta   90.00000000
_cell_angle_gamma   90.00000000
_symmetry_Int_Tables_number   1
_chemical_formula_structural   Fe2Ni2H44C65N20O9
_chemical_formula_sum   'Fe4 Ni4 H88 C130 N40 O18'
_cell_volume   3241.07763870
_cell_formula_units_Z   2
loop_
 _symmetry_equiv_pos_site_id
 _symmetry_equiv_pos_as_xyz
  1  'x, y, z'
loop_
 _atom_site_type_symbol
 _atom_site_label
 _atom_site_symmetry_multiplicity
 _atom_site_fract_x
 _atom_site_fract_y
 _atom_site_fract_z
 _atom_site_occupancy
  Fe  Fe1  1  0.329500  0.663020  0.384490  1.0
  Fe  Fe2  1  0.329500  0.336980  0.615510  1.0
  Fe  Fe3  1  0.670500  0.163020  0.115510  1.0
  Fe  Fe4  1  0.670500  0.836980  0.884490  1.0
  Ni  Ni5  1  0.287380  0.363080  0.369150  1.0
  Ni  Ni6  1  0.287380  0.636920  0.630850  1.0
  Ni  Ni7  1  0.712620  0.863080  0.130850  1.0
  Ni  Ni8  1  0.712620  0.136920  0.869150  1.0
  H  H9  1  0.947600  0.770100  0.438700  1.0
  H  H10  1  0.947600  0.229900  0.561300  1.0
  H  H11  1  0.052400  0.270100  0.061300  1.0
  H  H12  1  0.052400  0.729900  0.938700  1.0
  H  H13  1  0.982700  0.941500  0.451800  1.0
  H  H14  1  0.982700  0.058500  0.548200  1.0
  H  H15  1  0.017300  0.441500  0.048200  1.0
  H  H16  1  0.017300  0.558500  0.951800  1.0
  H  H17  1  0.302700  0.894600  0.400800  1.0
  H  H18  1  0.302700  0.105400  0.599200  1.0
  H  H19  1  0.697300  0.394600  0.099200  1.0
  H  H20  1  0.697300  0.605400  0.900800  1.0
  H  H21  1  0.948900  0.559300  0.433900  1.0
  H  H22  1  0.948900  0.440700  0.566100  1.0
  H  H23  1  0.051100  0.059300  0.066100  1.0
  H  H24  1  0.051100  0.940700  0.933900  1.0
  H  H25  1  0.880900  0.372100  0.428500  1.0
  H  H26  1  0.880900  0.627900  0.571500  1.0
  H  H27  1  0.119100  0.872100  0.071500  1.0
  H  H28  1  0.119100  0.127900  0.928500  1.0
  H  H29  1  0.837400  0.201700  0.415100  1.0
  H  H30  1  0.837400  0.798300  0.584900  1.0
  H  H31  1  0.162600  0.701700  0.084900  1.0
  H  H32  1  0.162600  0.298300  0.915100  1.0
  H  H33  1  0.979900  0.091000  0.380800  1.0
  H  H34  1  0.979900  0.909000  0.619200  1.0
  H  H35  1  0.020100  0.591000  0.119200  1.0
  H  H36  1  0.020100  0.409000  0.880800  1.0
  H  H37  1  0.159400  0.152100  0.364800  1.0
  H  H38  1  0.159400  0.847900  0.635200  1.0
  H  H39  1  0.840600  0.652100  0.135200  1.0
  H  H40  1  0.840600  0.347900  0.864800  1.0
  H  H41  1  0.396300  0.108700  0.206500  1.0
  H  H42  1  0.396300  0.891300  0.793500  1.0
  H  H43  1  0.603700  0.608700  0.293500  1.0
  H  H44  1  0.603700  0.391300  0.706500  1.0
  H  H45  1  0.470400  0.986900  0.277600  1.0
  H  H46  1  0.470400  0.013100  0.722400  1.0
  H  H47  1  0.529600  0.486900  0.222400  1.0
  H  H48  1  0.529600  0.513100  0.777600  1.0
  H  H49  1  0.479200  0.020100  0.389800  1.0
  H  H50  1  0.479200  0.979900  0.610200  1.0
  H  H51  1  0.520800  0.520100  0.110200  1.0
  H  H52  1  0.520800  0.479900  0.889800  1.0
  H  H53  1  0.415300  0.173900  0.428700  1.0
  H  H54  1  0.415300  0.826100  0.571300  1.0
  H  H55  1  0.584700  0.673900  0.071300  1.0
  H  H56  1  0.584700  0.326100  0.928700  1.0
  H  H57  1  0.311300  0.285900  0.192900  1.0
  H  H58  1  0.311300  0.714100  0.807100  1.0
  H  H59  1  0.688700  0.785900  0.307100  1.0
  H  H60  1  0.688700  0.214100  0.692900  1.0
  H  H61  1  0.244100  0.512200  0.250800  1.0
  H  H62  1  0.244100  0.487800  0.749200  1.0
  H  H63  1  0.755900  0.012200  0.249200  1.0
  H  H64  1  0.755900  0.987800  0.750800  1.0
  H  H65  1  0.327500  0.455900  0.153000  1.0
  H  H66  1  0.327500  0.544100  0.847000  1.0
  H  H67  1  0.672500  0.955900  0.347000  1.0
  H  H68  1  0.672500  0.044100  0.653000  1.0
  H  H69  1  0.210800  0.510800  0.138300  1.0
  H  H70  1  0.210800  0.489200  0.861700  1.0
  H  H71  1  0.789200  0.010800  0.361700  1.0
  H  H72  1  0.789200  0.989200  0.638300  1.0
  H  H73  1  0.218200  0.390800  0.136700  1.0
  H  H74  1  0.218200  0.609200  0.863300  1.0
  H  H75  1  0.781800  0.890800  0.363300  1.0
  H  H76  1  0.781800  0.109200  0.636700  1.0
  H  H77  1  0.068900  0.592600  0.260500  1.0
  H  H78  1  0.068900  0.407400  0.739500  1.0
  H  H79  1  0.931100  0.092600  0.239500  1.0
  H  H80  1  0.931100  0.907400  0.760500  1.0
  H  H81  1  0.875200  0.587900  0.271400  1.0
  H  H82  1  0.875200  0.412100  0.728600  1.0
  H  H83  1  0.124800  0.087900  0.228600  1.0
  H  H84  1  0.124800  0.912100  0.771400  1.0
  H  H85  1  0.779700  0.435100  0.264000  1.0
  H  H86  1  0.779700  0.564900  0.736000  1.0
  H  H87  1  0.220300  0.935100  0.236000  1.0
  H  H88  1  0.220300  0.064900  0.764000  1.0
  H  H89  1  0.877500  0.289900  0.238300  1.0
  H  H90  1  0.877500  0.710100  0.761700  1.0
  H  H91  1  0.122500  0.789900  0.261700  1.0
  H  H92  1  0.122500  0.210100  0.738300  1.0
  H  H93  1  0.072200  0.293900  0.225100  1.0
  H  H94  1  0.072200  0.706100  0.774900  1.0
  H  H95  1  0.927800  0.793900  0.274900  1.0
  H  H96  1  0.927800  0.206100  0.725100  1.0
  C  C97  1  0.297200  0.089000  0.076900  1
  C  C98  1  0.297200  0.911000  0.923100  1
  C  C99  1  0.702800  0.589000  0.423100  1
  C  C100  1  0.702800  0.411000  0.576900  1
  C  C101  1  0.372500  0.000000  0.000000  1
  C  C102  1  0.627500  0.500000  0.500000  1
  C  C103  1  0.412600  0.543800  0.367200  1.0
  C  C104  1  0.412600  0.456200  0.632800  1.0
  C  C105  1  0.587400  0.043800  0.132800  1.0
  C  C106  1  0.587400  0.956200  0.867200  1.0
  C  C107  1  0.340700  0.650100  0.479200  1.0
  C  C108  1  0.340700  0.349900  0.520800  1.0
  C  C109  1  0.659300  0.150100  0.020800  1.0
  C  C110  1  0.659300  0.849900  0.979200  1.0
  C  C111  1  0.455700  0.753100  0.391700  1.0
  C  C112  1  0.455700  0.246900  0.608300  1.0
  C  C113  1  0.544300  0.253100  0.108300  1.0
  C  C114  1  0.544300  0.746900  0.891700  1.0
  C  C115  1  0.326700  0.696000  0.291000  1.0
  C  C116  1  0.326700  0.304000  0.709000  1.0
  C  C117  1  0.673300  0.196000  0.209000  1.0
  C  C118  1  0.673300  0.804000  0.791000  1.0
  C  C119  1  0.109100  0.734200  0.414950  1.0
  C  C120  1  0.109100  0.265800  0.585050  1.0
  C  C121  1  0.890900  0.234200  0.085050  1.0
  C  C122  1  0.890900  0.765800  0.914950  1.0
  C  C123  1  0.020700  0.796500  0.431900  1.0
  C  C124  1  0.020700  0.203500  0.568100  1.0
  C  C125  1  0.979300  0.296500  0.068100  1.0
  C  C126  1  0.979300  0.703500  0.931900  1.0
  C  C127  1  0.041300  0.897600  0.438700  1.0
  C  C128  1  0.041300  0.102400  0.561300  1.0
  C  C129  1  0.958700  0.397600  0.061300  1.0
  C  C130  1  0.958700  0.602400  0.938700  1.0
  C  C131  1  0.146200  0.934900  0.426700  1.0
  C  C132  1  0.146200  0.065100  0.573300  1.0
  C  C133  1  0.853800  0.434900  0.073300  1.0
  C  C134  1  0.853800  0.565100  0.926700  1.0
  C  C135  1  0.230000  0.868600  0.409140  1.0
  C  C136  1  0.230000  0.131400  0.590860  1.0
  C  C137  1  0.770000  0.368600  0.090860  1.0
  C  C138  1  0.770000  0.631400  0.909140  1.0
  C  C139  1  0.102300  0.625900  0.408760  1.0
  C  C140  1  0.102300  0.374100  0.591240  1.0
  C  C141  1  0.897700  0.125900  0.091240  1.0
  C  C142  1  0.897700  0.874100  0.908760  1.0
  C  C143  1  0.024300  0.551600  0.419750  1.0
  C  C144  1  0.024300  0.448400  0.580250  1.0
  C  C145  1  0.975700  0.051600  0.080250  1.0
  C  C146  1  0.975700  0.948400  0.919750  1.0
  C  C147  1  0.080500  0.462800  0.405580  1.0
  C  C148  1  0.080500  0.537200  0.594420  1.0
  C  C149  1  0.919500  0.962800  0.094420  1.0
  C  C150  1  0.919500  0.037200  0.905580  1.0
  C  C151  1  0.046000  0.359100  0.402820  1.0
  C  C152  1  0.046000  0.640900  0.597180  1.0
  C  C153  1  0.954000  0.859100  0.097180  1.0
  C  C154  1  0.954000  0.140900  0.902820  1.0
  C  C155  1  0.936900  0.325900  0.414950  1.0
  C  C156  1  0.936900  0.674100  0.585050  1.0
  C  C157  1  0.063100  0.825900  0.085050  1.0
  C  C158  1  0.063100  0.174100  0.914950  1.0
  C  C159  1  0.911200  0.225600  0.407100  1.0
  C  C160  1  0.911200  0.774400  0.592900  1.0
  C  C161  1  0.088800  0.725600  0.092900  1.0
  C  C162  1  0.088800  0.274400  0.907100  1.0
  C  C163  1  0.995400  0.160200  0.387400  1.0
  C  C164  1  0.995400  0.839800  0.612600  1.0
  C  C165  1  0.004600  0.660200  0.112600  1.0
  C  C166  1  0.004600  0.339800  0.887400  1.0
  C  C167  1  0.102200  0.197600  0.377600  1.0
  C  C168  1  0.102200  0.802400  0.622400  1.0
  C  C169  1  0.897800  0.697600  0.122400  1.0
  C  C170  1  0.897800  0.302400  0.877600  1.0
  C  C171  1  0.362100  0.210100  0.278800  1.0
  C  C172  1  0.362100  0.789900  0.721200  1.0
  C  C173  1  0.637900  0.710100  0.221200  1.0
  C  C174  1  0.637900  0.289900  0.778800  1.0
  C  C175  1  0.400200  0.120700  0.252300  1.0
  C  C176  1  0.400200  0.879300  0.747700  1.0
  C  C177  1  0.599800  0.620700  0.247700  1.0
  C  C178  1  0.599800  0.379300  0.752300  1.0
  C  C179  1  0.444100  0.049200  0.294400  1.0
  C  C180  1  0.444100  0.950800  0.705600  1.0
  C  C181  1  0.555900  0.549200  0.205600  1.0
  C  C182  1  0.555900  0.450800  0.794400  1.0
  C  C183  1  0.449400  0.068400  0.360300  1.0
  C  C184  1  0.449400  0.931600  0.639700  1.0
  C  C185  1  0.550600  0.568400  0.139700  1.0
  C  C186  1  0.550600  0.431600  0.860300  1.0
  C  C187  1  0.410300  0.160200  0.383100  1.0
  C  C188  1  0.410300  0.839800  0.616900  1.0
  C  C189  1  0.589700  0.660200  0.116900  1.0
  C  C190  1  0.589700  0.339800  0.883100  1.0
  C  C191  1  0.311900  0.290200  0.239420  1.0
  C  C192  1  0.311900  0.709800  0.760580  1.0
  C  C193  1  0.688100  0.790200  0.260580  1.0
  C  C194  1  0.688100  0.209800  0.739420  1.0
  C  C195  1  0.217000  0.448000  0.230980  1.0
  C  C196  1  0.217000  0.552000  0.769020  1.0
  C  C197  1  0.783000  0.948000  0.269020  1.0
  C  C198  1  0.783000  0.052000  0.730980  1.0
  C  C199  1  0.246000  0.451700  0.158200  1.0
  C  C200  1  0.246000  0.548300  0.841800  1.0
  C  C201  1  0.754000  0.951700  0.341800  1.0
  C  C202  1  0.754000  0.048300  0.658200  1.0
  C  C203  1  0.089700  0.444100  0.241230  1.0
  C  C204  1  0.089700  0.555900  0.758770  1.0
  C  C205  1  0.910300  0.944100  0.258770  1.0
  C  C206  1  0.910300  0.055900  0.741230  1.0
  C  C207  1  0.030200  0.530700  0.255600  1.0
  C  C208  1  0.030200  0.469300  0.744400  1.0
  C  C209  1  0.969800  0.030700  0.244400  1.0
  C  C210  1  0.969800  0.969300  0.755600  1.0
  C  C211  1  0.915400  0.527800  0.262800  1.0
  C  C212  1  0.915400  0.472200  0.737200  1.0
  C  C213  1  0.084600  0.027800  0.237200  1.0
  C  C214  1  0.084600  0.972200  0.762800  1.0
  C  C215  1  0.858500  0.437500  0.257600  1.0
  C  C216  1  0.858500  0.562500  0.742400  1.0
  C  C217  1  0.141500  0.937500  0.242400  1.0
  C  C218  1  0.141500  0.062500  0.757600  1.0
  C  C219  1  0.916600  0.351600  0.243000  1.0
  C  C220  1  0.916600  0.648400  0.757000  1.0
  C  C221  1  0.083400  0.851600  0.257000  1.0
  C  C222  1  0.083400  0.148400  0.743000  1.0
  C  C223  1  0.032500  0.353900  0.234920  1.0
  C  C224  1  0.032500  0.646100  0.765080  1.0
  C  C225  1  0.967500  0.853900  0.265080  1.0
  C  C226  1  0.967500  0.146100  0.734920  1.0
  N  N227  1  0.443700  0.462600  0.356110  1.0
  N  N228  1  0.443700  0.537400  0.643890  1.0
  N  N229  1  0.556300  0.962600  0.143890  1.0
  N  N230  1  0.556300  0.037400  0.856110  1.0
  N  N231  1  0.331500  0.647100  0.535600  1.0
  N  N232  1  0.331500  0.352900  0.464400  1.0
  N  N233  1  0.668500  0.147100  0.964400  1.0
  N  N234  1  0.668500  0.852900  0.035600  1.0
  N  N235  1  0.526800  0.810800  0.398500  1.0
  N  N236  1  0.526800  0.189200  0.601500  1.0
  N  N237  1  0.473200  0.310800  0.101500  1.0
  N  N238  1  0.473200  0.689200  0.898500  1.0
  N  N239  1  0.326300  0.716200  0.236380  1.0
  N  N240  1  0.326300  0.283800  0.763620  1.0
  N  N241  1  0.673700  0.216200  0.263620  1.0
  N  N242  1  0.673700  0.783800  0.736380  1.0
  N  N243  1  0.213700  0.770200  0.403330  1.0
  N  N244  1  0.213700  0.229800  0.596670  1.0
  N  N245  1  0.786300  0.270200  0.096670  1.0
  N  N246  1  0.786300  0.729800  0.903330  1.0
  N  N247  1  0.199700  0.582100  0.388680  1.0
  N  N248  1  0.199700  0.417900  0.611320  1.0
  N  N249  1  0.800300  0.082100  0.111320  1.0
  N  N250  1  0.800300  0.917900  0.888680  1.0
  N  N251  1  0.185600  0.482500  0.387530  1.0
  N  N252  1  0.185600  0.517500  0.612470  1.0
  N  N253  1  0.814400  0.982500  0.112470  1.0
  N  N254  1  0.814400  0.017500  0.887530  1.0
  N  N255  1  0.129300  0.294000  0.385090  1.0
  N  N256  1  0.129300  0.706000  0.614910  1.0
  N  N257  1  0.870700  0.794000  0.114910  1.0
  N  N258  1  0.870700  0.206000  0.885090  1.0
  N  N259  1  0.366200  0.229900  0.343850  1.0
  N  N260  1  0.366200  0.770100  0.656150  1.0
  N  N261  1  0.633800  0.729900  0.156150  1.0
  N  N262  1  0.633800  0.270100  0.843850  1.0
  N  N263  1  0.269300  0.365300  0.268170  1.0
  N  N264  1  0.269300  0.634700  0.731830  1.0
  N  N265  1  0.730700  0.865300  0.231830  1.0
  N  N266  1  0.730700  0.134700  0.768170  1.0
  O  O267  1  0.226300  0.176900  0.088000  1
  O  O268  1  0.226300  0.823100  0.912000  1
  O  O269  1  0.773700  0.676900  0.412000  1
  O  O270  1  0.773700  0.323100  0.588000  1
  O  O271  1  0.370500  0.813100  0.113050  1
  O  O272  1  0.370500  0.186900  0.886950  1
  O  O273  1  0.629500  0.313100  0.386950  1
  O  O274  1  0.629500  0.686900  0.613050  1
  O  O275  1  0.331500  0.680600  0.008200  1
  O  O276  1  0.331500  0.319400  0.991800  1
  O  O277  1  0.668500  0.180600  0.491800  1
  O  O278  1  0.668500  0.819400  0.508200  1
  O  O279  1  0.287100  0.975000  0.048200  1
  O  O280  1  0.287100  0.025000  0.951800  1
  O  O281  1  0.712900  0.475000  0.451800  1
  O  O282  1  0.712900  0.525000  0.548200  1
  O  O283  1  0.196300  0.500000  0.000000  1
  O  O284  1  0.803700  0.000000  0.500000  1
