# generated using pymatgen
data_Ag8B10H336C336N48OF48
_symmetry_space_group_name_H-M   'P 1'
_cell_length_a   13.30390000
_cell_length_b   24.38960000
_cell_length_c   24.38960000
_cell_angle_alpha   90.00000000
_cell_angle_beta   90.00000000
_cell_angle_gamma   90.00000000
_symmetry_Int_Tables_number   1
_chemical_formula_structural   Ag8B10H336C336N48OF48
_chemical_formula_sum   'Ag8 B10 H336 C336 N48 O1 F48'
_cell_volume   7913.85934762
_cell_formula_units_Z   1
loop_
 _symmetry_equiv_pos_site_id
 _symmetry_equiv_pos_as_xyz
  1  'x, y, z'
loop_
 _atom_site_type_symbol
 _atom_site_label
 _atom_site_symmetry_multiplicity
 _atom_site_fract_x
 _atom_site_fract_y
 _atom_site_fract_z
 _atom_site_occupancy
  Ag  Ag1  1  0.833230  0.002060  0.760180  1.0
  Ag  Ag2  1  0.833230  0.997940  0.239820  1.0
  Ag  Ag3  1  0.833230  0.239820  0.002060  1.0
  Ag  Ag4  1  0.833230  0.760180  0.997940  1.0
  Ag  Ag5  1  0.337360  0.757920  0.495690  1.0
  Ag  Ag6  1  0.337360  0.242080  0.504310  1.0
  Ag  Ag7  1  0.337360  0.504310  0.757920  1.0
  Ag  Ag8  1  0.337360  0.495690  0.242080  1.0
  B  B9  1  0.858000  0.000000  0.000000  1
  B  B10  1  0.387000  0.500000  0.500000  1
  B  B11  1  0.326400  0.145700  0.882100  1
  B  B12  1  0.326400  0.854300  0.117900  1
  B  B13  1  0.326400  0.117900  0.145700  1
  B  B14  1  0.326400  0.882100  0.854300  1
  B  B15  1  0.843500  0.643300  0.351600  1
  B  B16  1  0.843500  0.356700  0.648400  1
  B  B17  1  0.843500  0.648400  0.643300  1
  B  B18  1  0.843500  0.351600  0.356700  1
  H  H19  1  0.169300  0.108000  0.775900  1.0
  H  H20  1  0.169300  0.892000  0.224100  1.0
  H  H21  1  0.169300  0.224100  0.108000  1.0
  H  H22  1  0.169300  0.775900  0.892000  1.0
  H  H23  1  0.153500  0.168300  0.709000  1.0
  H  H24  1  0.153500  0.831700  0.291000  1.0
  H  H25  1  0.153500  0.291000  0.168300  1.0
  H  H26  1  0.153500  0.709000  0.831700  1.0
  H  H27  1  0.129100  0.953000  0.903400  1.0
  H  H28  1  0.129100  0.047000  0.096600  1.0
  H  H29  1  0.129100  0.096600  0.953000  1.0
  H  H30  1  0.129100  0.903400  0.047000  1.0
  H  H31  1  0.192800  0.030000  0.844100  1.0
  H  H32  1  0.192800  0.970000  0.155900  1.0
  H  H33  1  0.192800  0.155900  0.030000  1.0
  H  H34  1  0.192800  0.844100  0.970000  1.0
  H  H35  1  0.872100  0.932100  0.883800  1.0
  H  H36  1  0.872100  0.067900  0.116200  1.0
  H  H37  1  0.872100  0.116200  0.932100  1.0
  H  H38  1  0.872100  0.883800  0.067900  1.0
  H  H39  1  0.965600  0.900000  0.908800  1.0
  H  H40  1  0.965600  0.100000  0.091200  1.0
  H  H41  1  0.965600  0.091200  0.900000  1.0
  H  H42  1  0.965600  0.908800  0.100000  1.0
  H  H43  1  0.805000  0.883000  0.930100  1.0
  H  H44  1  0.805000  0.117000  0.069900  1.0
  H  H45  1  0.805000  0.069900  0.883000  1.0
  H  H46  1  0.805000  0.930100  0.117000  1.0
  H  H47  1  0.718000  0.920300  0.904800  1.0
  H  H48  1  0.718000  0.079700  0.095200  1.0
  H  H49  1  0.718000  0.095200  0.920300  1.0
  H  H50  1  0.718000  0.904800  0.079700  1.0
  H  H51  1  0.060500  0.875900  0.810300  1.0
  H  H52  1  0.060500  0.124100  0.189700  1.0
  H  H53  1  0.060500  0.189700  0.875900  1.0
  H  H54  1  0.060500  0.810300  0.124100  1.0
  H  H55  1  0.049600  0.813700  0.737500  1.0
  H  H56  1  0.049600  0.186300  0.262500  1.0
  H  H57  1  0.049600  0.262500  0.813700  1.0
  H  H58  1  0.049600  0.737500  0.186300  1.0
  H  H59  1  0.898400  0.767700  0.720300  1.0
  H  H60  1  0.898400  0.232300  0.279700  1.0
  H  H61  1  0.898400  0.279700  0.767700  1.0
  H  H62  1  0.898400  0.720300  0.232300  1.0
  H  H63  1  0.596200  0.828500  0.871600  1.0
  H  H64  1  0.596200  0.171500  0.128400  1.0
  H  H65  1  0.596200  0.128400  0.828500  1.0
  H  H66  1  0.596200  0.871600  0.171500  1.0
  H  H67  1  0.585200  0.766300  0.798800  1.0
  H  H68  1  0.585200  0.233700  0.201200  1.0
  H  H69  1  0.585200  0.201200  0.766300  1.0
  H  H70  1  0.585200  0.798800  0.233700  1.0
  H  H71  1  0.725400  0.750100  0.743100  1.0
  H  H72  1  0.725400  0.249900  0.256900  1.0
  H  H73  1  0.725400  0.256900  0.750100  1.0
  H  H74  1  0.725400  0.743100  0.249900  1.0
  H  H75  1  0.551900  0.914800  0.956000  1.0
  H  H76  1  0.551900  0.085200  0.044000  1.0
  H  H77  1  0.551900  0.044000  0.914800  1.0
  H  H78  1  0.551900  0.956000  0.085200  1.0
  H  H79  1  0.478400  0.853400  0.029800  1.0
  H  H80  1  0.478400  0.146600  0.970200  1.0
  H  H81  1  0.478400  0.970200  0.853400  1.0
  H  H82  1  0.478400  0.029800  0.146600  1.0
  H  H83  1  0.479200  0.917200  0.768200  1.0
  H  H84  1  0.479200  0.082800  0.231800  1.0
  H  H85  1  0.479200  0.231800  0.917200  1.0
  H  H86  1  0.479200  0.768200  0.082800  1.0
  H  H87  1  0.481900  0.865300  0.684200  1.0
  H  H88  1  0.481900  0.134700  0.315800  1.0
  H  H89  1  0.481900  0.315800  0.865300  1.0
  H  H90  1  0.481900  0.684200  0.134700  1.0
  H  H91  1  0.077300  0.095200  0.566000  1.0
  H  H92  1  0.077300  0.904800  0.434000  1.0
  H  H93  1  0.077300  0.434000  0.095200  1.0
  H  H94  1  0.077300  0.566000  0.904800  1.0
  H  H95  1  0.974800  0.076200  0.537400  1.0
  H  H96  1  0.974800  0.923800  0.462600  1.0
  H  H97  1  0.974800  0.462600  0.076200  1.0
  H  H98  1  0.974800  0.537400  0.923800  1.0
  H  H99  1  0.992800  0.064600  0.601200  1.0
  H  H100  1  0.992800  0.935400  0.398800  1.0
  H  H101  1  0.992800  0.398800  0.064600  1.0
  H  H102  1  0.992800  0.601200  0.935400  1.0
  H  H103  1  0.008100  0.165000  0.506000  1.0
  H  H104  1  0.008100  0.835000  0.494000  1.0
  H  H105  1  0.008100  0.494000  0.165000  1.0
  H  H106  1  0.008100  0.506000  0.835000  1.0
  H  H107  1  0.968000  0.217300  0.539200  1.0
  H  H108  1  0.968000  0.782700  0.460800  1.0
  H  H109  1  0.968000  0.460800  0.217300  1.0
  H  H110  1  0.968000  0.539200  0.782700  1.0
  H  H111  1  0.889900  0.174500  0.513500  1.0
  H  H112  1  0.889900  0.825500  0.486500  1.0
  H  H113  1  0.889900  0.486500  0.174500  1.0
  H  H114  1  0.889900  0.513500  0.825500  1.0
  H  H115  1  0.789700  0.103900  0.681300  1.0
  H  H116  1  0.789700  0.896100  0.318700  1.0
  H  H117  1  0.789700  0.318700  0.103900  1.0
  H  H118  1  0.789700  0.681300  0.896100  1.0
  H  H119  1  0.846900  0.063500  0.639800  1.0
  H  H120  1  0.846900  0.936500  0.360200  1.0
  H  H121  1  0.846900  0.360200  0.063500  1.0
  H  H122  1  0.846900  0.639800  0.936500  1.0
  H  H123  1  0.791900  0.147600  0.589200  1.0
  H  H124  1  0.791900  0.852400  0.410800  1.0
  H  H125  1  0.791900  0.410800  0.147600  1.0
  H  H126  1  0.791900  0.589200  0.852400  1.0
  H  H127  1  0.862700  0.204700  0.681000  1.0
  H  H128  1  0.862700  0.795300  0.319000  1.0
  H  H129  1  0.862700  0.319000  0.204700  1.0
  H  H130  1  0.862700  0.681000  0.795300  1.0
  H  H131  1  0.867500  0.234500  0.621000  1.0
  H  H132  1  0.867500  0.765500  0.379000  1.0
  H  H133  1  0.867500  0.379000  0.234500  1.0
  H  H134  1  0.867500  0.621000  0.765500  1.0
  H  H135  1  0.050900  0.208100  0.627000  1.0
  H  H136  1  0.050900  0.791900  0.373000  1.0
  H  H137  1  0.050900  0.373000  0.208100  1.0
  H  H138  1  0.050900  0.627000  0.791900  1.0
  H  H139  1  0.590400  0.959100  0.548300  1.0
  H  H140  1  0.590400  0.040900  0.451700  1.0
  H  H141  1  0.590400  0.451700  0.959100  1.0
  H  H142  1  0.590400  0.548300  0.040900  1.0
  H  H143  1  0.705200  0.978600  0.546800  1.0
  H  H144  1  0.705200  0.021400  0.453200  1.0
  H  H145  1  0.705200  0.453200  0.978600  1.0
  H  H146  1  0.705200  0.546800  0.021400  1.0
  H  H147  1  0.648300  0.972100  0.604300  1.0
  H  H148  1  0.648300  0.027900  0.395700  1.0
  H  H149  1  0.648300  0.395700  0.972100  1.0
  H  H150  1  0.648300  0.604300  0.027900  1.0
  H  H151  1  0.709900  0.838100  0.510200  1.0
  H  H152  1  0.709900  0.161900  0.489800  1.0
  H  H153  1  0.709900  0.489800  0.838100  1.0
  H  H154  1  0.709900  0.510200  0.161900  1.0
  H  H155  1  0.733400  0.898400  0.487700  1.0
  H  H156  1  0.733400  0.101600  0.512300  1.0
  H  H157  1  0.733400  0.512300  0.898400  1.0
  H  H158  1  0.733400  0.487700  0.101600  1.0
  H  H159  1  0.619400  0.878900  0.495500  1.0
  H  H160  1  0.619400  0.121100  0.504500  1.0
  H  H161  1  0.619400  0.504500  0.878900  1.0
  H  H162  1  0.619400  0.495500  0.121100  1.0
  H  H163  1  0.858700  0.901700  0.674400  1.0
  H  H164  1  0.858700  0.098300  0.325600  1.0
  H  H165  1  0.858700  0.325600  0.901700  1.0
  H  H166  1  0.858700  0.674400  0.098300  1.0
  H  H167  1  0.824900  0.955800  0.641900  1.0
  H  H168  1  0.824900  0.044200  0.358100  1.0
  H  H169  1  0.824900  0.358100  0.955800  1.0
  H  H170  1  0.824900  0.641900  0.044200  1.0
  H  H171  1  0.852100  0.882900  0.574000  1.0
  H  H172  1  0.852100  0.117100  0.426000  1.0
  H  H173  1  0.852100  0.426000  0.882900  1.0
  H  H174  1  0.852100  0.574000  0.117100  1.0
  H  H175  1  0.763300  0.812900  0.650900  1.0
  H  H176  1  0.763300  0.187100  0.349100  1.0
  H  H177  1  0.763300  0.349100  0.812900  1.0
  H  H178  1  0.763300  0.650900  0.187100  1.0
  H  H179  1  0.754900  0.797800  0.585700  1.0
  H  H180  1  0.754900  0.202200  0.414300  1.0
  H  H181  1  0.754900  0.414300  0.797800  1.0
  H  H182  1  0.754900  0.585700  0.202200  1.0
  H  H183  1  0.579700  0.835500  0.597700  1.0
  H  H184  1  0.579700  0.164500  0.402300  1.0
  H  H185  1  0.579700  0.402300  0.835500  1.0
  H  H186  1  0.579700  0.597700  0.164500  1.0
  H  H187  1  0.987000  0.732300  0.587000  1.0
  H  H188  1  0.987000  0.267700  0.413000  1.0
  H  H189  1  0.987000  0.413000  0.732300  1.0
  H  H190  1  0.987000  0.587000  0.267700  1.0
  H  H191  1  0.973200  0.816300  0.628800  1.0
  H  H192  1  0.973200  0.183700  0.371200  1.0
  H  H193  1  0.973200  0.371200  0.816300  1.0
  H  H194  1  0.973200  0.628800  0.183700  1.0
  H  H195  1  0.093800  0.579100  0.478500  1.0
  H  H196  1  0.093800  0.420900  0.521500  1.0
  H  H197  1  0.093800  0.521500  0.579100  1.0
  H  H198  1  0.093800  0.478500  0.420900  1.0
  H  H199  1  0.016700  0.644300  0.543200  1.0
  H  H200  1  0.016700  0.355700  0.456800  1.0
  H  H201  1  0.016700  0.456800  0.644300  1.0
  H  H202  1  0.016700  0.543200  0.355700  1.0
  H  H203  1  0.255100  0.577100  0.417400  1.0
  H  H204  1  0.255100  0.422900  0.582600  1.0
  H  H205  1  0.255100  0.582600  0.577100  1.0
  H  H206  1  0.255100  0.417400  0.422900  1.0
  H  H207  1  0.334800  0.622800  0.435400  1.0
  H  H208  1  0.334800  0.377200  0.564600  1.0
  H  H209  1  0.334800  0.564600  0.622800  1.0
  H  H210  1  0.334800  0.435400  0.377200  1.0
  H  H211  1  0.458000  0.584000  0.407600  1.0
  H  H212  1  0.458000  0.416000  0.592400  1.0
  H  H213  1  0.458000  0.592400  0.584000  1.0
  H  H214  1  0.458000  0.407600  0.416000  1.0
  H  H215  1  0.369700  0.557300  0.372600  1.0
  H  H216  1  0.369700  0.442700  0.627400  1.0
  H  H217  1  0.369700  0.627400  0.557300  1.0
  H  H218  1  0.369700  0.372600  0.442700  1.0
  H  H219  1  0.109100  0.664300  0.378800  1.0
  H  H220  1  0.109100  0.335700  0.621200  1.0
  H  H221  1  0.109100  0.621200  0.664300  1.0
  H  H222  1  0.109100  0.378800  0.335700  1.0
  H  H223  1  0.088500  0.726100  0.306300  1.0
  H  H224  1  0.088500  0.273900  0.693700  1.0
  H  H225  1  0.088500  0.693700  0.726100  1.0
  H  H226  1  0.088500  0.306300  0.273900  1.0
  H  H227  1  0.222500  0.744100  0.246800  1.0
  H  H228  1  0.222500  0.255900  0.753200  1.0
  H  H229  1  0.222500  0.753200  0.744100  1.0
  H  H230  1  0.222500  0.246800  0.255900  1.0
  H  H231  1  0.569300  0.623200  0.304800  1.0
  H  H232  1  0.569300  0.376800  0.695200  1.0
  H  H233  1  0.569300  0.695200  0.623200  1.0
  H  H234  1  0.569300  0.304800  0.376800  1.0
  H  H235  1  0.548600  0.685000  0.232300  1.0
  H  H236  1  0.548600  0.315000  0.767700  1.0
  H  H237  1  0.548600  0.767700  0.685000  1.0
  H  H238  1  0.548600  0.232300  0.315000  1.0
  H  H239  1  0.394000  0.728800  0.219200  1.0
  H  H240  1  0.394000  0.271200  0.780800  1.0
  H  H241  1  0.394000  0.780800  0.728800  1.0
  H  H242  1  0.394000  0.219200  0.271200  1.0
  H  H243  1  0.639800  0.540500  0.392400  1.0
  H  H244  1  0.639800  0.459500  0.607600  1.0
  H  H245  1  0.639800  0.607600  0.540500  1.0
  H  H246  1  0.639800  0.392400  0.459500  1.0
  H  H247  1  0.701600  0.469300  0.320900  1.0
  H  H248  1  0.701600  0.530700  0.679100  1.0
  H  H249  1  0.701600  0.679100  0.469300  1.0
  H  H250  1  0.701600  0.320900  0.530700  1.0
  H  H251  1  0.676800  0.741500  0.392200  1.0
  H  H252  1  0.676800  0.258500  0.607800  1.0
  H  H253  1  0.676800  0.607800  0.741500  1.0
  H  H254  1  0.676800  0.392200  0.258500  1.0
  H  H255  1  0.667300  0.820100  0.338600  1.0
  H  H256  1  0.667300  0.179900  0.661400  1.0
  H  H257  1  0.667300  0.661400  0.820100  1.0
  H  H258  1  0.667300  0.338600  0.179900  1.0
  H  H259  1  0.256600  0.838600  0.673600  1.0
  H  H260  1  0.256600  0.161400  0.326400  1.0
  H  H261  1  0.256600  0.326400  0.838600  1.0
  H  H262  1  0.256600  0.673600  0.161400  1.0
  H  H263  1  0.202400  0.865400  0.725700  1.0
  H  H264  1  0.202400  0.134600  0.274300  1.0
  H  H265  1  0.202400  0.274300  0.865400  1.0
  H  H266  1  0.202400  0.725700  0.134600  1.0
  H  H267  1  0.310800  0.886800  0.706900  1.0
  H  H268  1  0.310800  0.113200  0.293100  1.0
  H  H269  1  0.310800  0.293100  0.886800  1.0
  H  H270  1  0.310800  0.706900  0.113200  1.0
  H  H271  1  0.247800  0.972200  0.714600  1.0
  H  H272  1  0.247800  0.027800  0.285400  1.0
  H  H273  1  0.247800  0.285400  0.972200  1.0
  H  H274  1  0.247800  0.714600  0.027800  1.0
  H  H275  1  0.128000  0.965900  0.715000  1.0
  H  H276  1  0.128000  0.034100  0.285000  1.0
  H  H277  1  0.128000  0.285000  0.965900  1.0
  H  H278  1  0.128000  0.715000  0.034100  1.0
  H  H279  1  0.182000  0.999400  0.666800  1.0
  H  H280  1  0.182000  0.000600  0.333200  1.0
  H  H281  1  0.182000  0.333200  0.999400  1.0
  H  H282  1  0.182000  0.666800  0.000600  1.0
  H  H283  1  0.296100  0.876300  0.534600  1.0
  H  H284  1  0.296100  0.123700  0.465400  1.0
  H  H285  1  0.296100  0.465400  0.876300  1.0
  H  H286  1  0.296100  0.534600  0.123700  1.0
  H  H287  1  0.339600  0.857200  0.592900  1.0
  H  H288  1  0.339600  0.142800  0.407100  1.0
  H  H289  1  0.339600  0.407100  0.857200  1.0
  H  H290  1  0.339600  0.592900  0.142800  1.0
  H  H291  1  0.296200  0.957000  0.597500  1.0
  H  H292  1  0.296200  0.043000  0.402500  1.0
  H  H293  1  0.296200  0.402500  0.957000  1.0
  H  H294  1  0.296200  0.597500  0.043000  1.0
  H  H295  1  0.121300  0.925800  0.540500  1.0
  H  H296  1  0.121300  0.074200  0.459500  1.0
  H  H297  1  0.121300  0.459500  0.925800  1.0
  H  H298  1  0.121300  0.540500  0.074200  1.0
  H  H299  1  0.116300  0.978800  0.581400  1.0
  H  H300  1  0.116300  0.021200  0.418600  1.0
  H  H301  1  0.116300  0.418600  0.978800  1.0
  H  H302  1  0.116300  0.581400  0.021200  1.0
  H  H303  1  0.031300  0.910800  0.644500  1.0
  H  H304  1  0.031300  0.089200  0.355500  1.0
  H  H305  1  0.031300  0.355500  0.910800  1.0
  H  H306  1  0.031300  0.644500  0.089200  1.0
  H  H307  1  0.379600  0.811100  0.309100  1.0
  H  H308  1  0.379600  0.188900  0.690900  1.0
  H  H309  1  0.379600  0.690900  0.811100  1.0
  H  H310  1  0.379600  0.309100  0.188900  1.0
  H  H311  1  0.418700  0.829600  0.249800  1.0
  H  H312  1  0.418700  0.170400  0.750200  1.0
  H  H313  1  0.418700  0.750200  0.829600  1.0
  H  H314  1  0.418700  0.249800  0.170400  1.0
  H  H315  1  0.306700  0.844300  0.268700  1.0
  H  H316  1  0.306700  0.155700  0.731300  1.0
  H  H317  1  0.306700  0.731300  0.844300  1.0
  H  H318  1  0.306700  0.268700  0.155700  1.0
  H  H319  1  0.327700  0.941900  0.252100  1.0
  H  H320  1  0.327700  0.058100  0.747900  1.0
  H  H321  1  0.327700  0.747900  0.941900  1.0
  H  H322  1  0.327700  0.252100  0.058100  1.0
  H  H323  1  0.434600  0.926000  0.226500  1.0
  H  H324  1  0.434600  0.074000  0.773500  1.0
  H  H325  1  0.434600  0.773500  0.926000  1.0
  H  H326  1  0.434600  0.226500  0.074000  1.0
  H  H327  1  0.427400  0.972200  0.273000  1.0
  H  H328  1  0.427400  0.027800  0.727000  1.0
  H  H329  1  0.427400  0.727000  0.972200  1.0
  H  H330  1  0.427400  0.273000  0.027800  1.0
  H  H331  1  0.301500  0.840000  0.387800  1.0
  H  H332  1  0.301500  0.160000  0.612200  1.0
  H  H333  1  0.301500  0.612200  0.840000  1.0
  H  H334  1  0.301500  0.387800  0.160000  1.0
  H  H335  1  0.341200  0.876800  0.437600  1.0
  H  H336  1  0.341200  0.123200  0.562400  1.0
  H  H337  1  0.341200  0.562400  0.876800  1.0
  H  H338  1  0.341200  0.437600  0.123200  1.0
  H  H339  1  0.306800  0.938300  0.358800  1.0
  H  H340  1  0.306800  0.061700  0.641200  1.0
  H  H341  1  0.306800  0.641200  0.938300  1.0
  H  H342  1  0.306800  0.358800  0.061700  1.0
  H  H343  1  0.494700  0.938800  0.411800  1.0
  H  H344  1  0.494700  0.061200  0.588200  1.0
  H  H345  1  0.494700  0.588200  0.938800  1.0
  H  H346  1  0.494700  0.411800  0.061200  1.0
  H  H347  1  0.477300  0.980100  0.359800  1.0
  H  H348  1  0.477300  0.019900  0.640200  1.0
  H  H349  1  0.477300  0.640200  0.980100  1.0
  H  H350  1  0.477300  0.359800  0.019900  1.0
  H  H351  1  0.577300  0.908300  0.309200  1.0
  H  H352  1  0.577300  0.091700  0.690800  1.0
  H  H353  1  0.577300  0.690800  0.908300  1.0
  H  H354  1  0.577300  0.309200  0.091700  1.0
  C  C355  1  0.039200  0.065800  0.764500  1.0
  C  C356  1  0.039200  0.934200  0.235500  1.0
  C  C357  1  0.039200  0.235500  0.065800  1.0
  C  C358  1  0.039200  0.764500  0.934200  1.0
  C  C359  1  0.110800  0.106700  0.753600  1.0
  C  C360  1  0.110800  0.893300  0.246400  1.0
  C  C361  1  0.110800  0.246400  0.106700  1.0
  C  C362  1  0.110800  0.753600  0.893300  1.0
  C  C363  1  0.101600  0.142200  0.715200  1.0
  C  C364  1  0.101600  0.857800  0.284800  1.0
  C  C365  1  0.101600  0.284800  0.142200  1.0
  C  C366  1  0.101600  0.715200  0.857800  1.0
  C  C367  1  0.012600  0.142800  0.681500  1.0
  C  C368  1  0.012600  0.857200  0.318500  1.0
  C  C369  1  0.012600  0.318500  0.142800  1.0
  C  C370  1  0.012600  0.681500  0.857200  1.0
  C  C371  1  0.941800  0.103000  0.692500  1.0
  C  C372  1  0.941800  0.897000  0.307500  1.0
  C  C373  1  0.941800  0.307500  0.103000  1.0
  C  C374  1  0.941800  0.692500  0.897000  1.0
  C  C375  1  0.094500  0.970400  0.874100  1.0
  C  C376  1  0.094500  0.029600  0.125900  1.0
  C  C377  1  0.094500  0.125900  0.970400  1.0
  C  C378  1  0.094500  0.874100  0.029600  1.0
  C  C379  1  0.128700  0.012900  0.842700  1.0
  C  C380  1  0.128700  0.987100  0.157300  1.0
  C  C381  1  0.128700  0.157300  0.012900  1.0
  C  C382  1  0.128700  0.842700  0.987100  1.0
  C  C383  1  0.045400  0.026100  0.807000  1.0
  C  C384  1  0.045400  0.973900  0.193000  1.0
  C  C385  1  0.045400  0.193000  0.026100  1.0
  C  C386  1  0.045400  0.807000  0.973900  1.0
  C  C387  1  0.937300  0.915000  0.874400  1.0
  C  C388  1  0.937300  0.085000  0.125600  1.0
  C  C389  1  0.937300  0.125600  0.915000  1.0
  C  C390  1  0.937300  0.874400  0.085000  1.0
  C  C391  1  0.737000  0.882030  0.913630  1.0
  C  C392  1  0.737000  0.117970  0.086370  1.0
  C  C393  1  0.737000  0.086370  0.882030  1.0
  C  C394  1  0.737000  0.913630  0.117970  1.0
  C  C395  1  0.915900  0.866860  0.836350  1.0
  C  C396  1  0.915900  0.133140  0.163650  1.0
  C  C397  1  0.915900  0.163650  0.866860  1.0
  C  C398  1  0.915900  0.836350  0.133140  1.0
  C  C399  1  0.999200  0.857220  0.803310  1.0
  C  C400  1  0.999200  0.142780  0.196690  1.0
  C  C401  1  0.999200  0.196690  0.857220  1.0
  C  C402  1  0.999200  0.803310  0.142780  1.0
  C  C403  1  0.992700  0.820270  0.760070  1.0
  C  C404  1  0.992700  0.179730  0.239930  1.0
  C  C405  1  0.992700  0.239930  0.820270  1.0
  C  C406  1  0.992700  0.760070  0.179730  1.0
  C  C407  1  0.902900  0.792970  0.749860  1.0
  C  C408  1  0.902900  0.207030  0.250140  1.0
  C  C409  1  0.902900  0.250140  0.792970  1.0
  C  C410  1  0.902900  0.749860  0.207030  1.0
  C  C411  1  0.819600  0.802620  0.782900  1.0
  C  C412  1  0.819600  0.197380  0.217100  1.0
  C  C413  1  0.819600  0.217100  0.802620  1.0
  C  C414  1  0.819600  0.782900  0.197380  1.0
  C  C415  1  0.826100  0.839560  0.826140  1.0
  C  C416  1  0.826100  0.160440  0.173860  1.0
  C  C417  1  0.826100  0.173860  0.839560  1.0
  C  C418  1  0.826100  0.826140  0.160440  1.0
  C  C419  1  0.742900  0.849210  0.859190  1.0
  C  C420  1  0.742900  0.150790  0.140810  1.0
  C  C421  1  0.742900  0.140810  0.849210  1.0
  C  C422  1  0.742900  0.859190  0.150790  1.0
  C  C423  1  0.653100  0.821910  0.848980  1.0
  C  C424  1  0.653100  0.178090  0.151020  1.0
  C  C425  1  0.653100  0.151020  0.821910  1.0
  C  C426  1  0.653100  0.848980  0.178090  1.0
  C  C427  1  0.646600  0.784970  0.805730  1.0
  C  C428  1  0.646600  0.215030  0.194270  1.0
  C  C429  1  0.646600  0.194270  0.784970  1.0
  C  C430  1  0.646600  0.805730  0.215030  1.0
  C  C431  1  0.729800  0.775320  0.772690  1.0
  C  C432  1  0.729800  0.224680  0.227310  1.0
  C  C433  1  0.729800  0.227310  0.775320  1.0
  C  C434  1  0.729800  0.772690  0.224680  1.0
  C  C435  1  0.581400  0.882300  0.970100  1.0
  C  C436  1  0.581400  0.117700  0.029900  1.0
  C  C437  1  0.581400  0.029900  0.882300  1.0
  C  C438  1  0.581400  0.970100  0.117700  1.0
  C  C439  1  0.540200  0.849000  0.010800  1.0
  C  C440  1  0.540200  0.151000  0.989200  1.0
  C  C441  1  0.540200  0.989200  0.849000  1.0
  C  C442  1  0.540200  0.010800  0.151000  1.0
  C  C443  1  0.615000  0.982900  0.806000  1.0
  C  C444  1  0.615000  0.017100  0.194000  1.0
  C  C445  1  0.615000  0.194000  0.982900  1.0
  C  C446  1  0.615000  0.806000  0.017100  1.0
  C  C447  1  0.617300  0.946600  0.758300  1.0
  C  C448  1  0.617300  0.053400  0.241700  1.0
  C  C449  1  0.617300  0.241700  0.946600  1.0
  C  C450  1  0.617300  0.758300  0.053400  1.0
  C  C451  1  0.536700  0.917500  0.745100  1.0
  C  C452  1  0.536700  0.082500  0.254900  1.0
  C  C453  1  0.536700  0.254900  0.917500  1.0
  C  C454  1  0.536700  0.745100  0.082500  1.0
  C  C455  1  0.538100  0.886600  0.695400  1.0
  C  C456  1  0.538100  0.113400  0.304600  1.0
  C  C457  1  0.538100  0.304600  0.886600  1.0
  C  C458  1  0.538100  0.695400  0.113400  1.0
  C  C459  1  0.627300  0.889000  0.663300  1.0
  C  C460  1  0.627300  0.111000  0.336700  1.0
  C  C461  1  0.627300  0.336700  0.889000  1.0
  C  C462  1  0.627300  0.663300  0.111000  1.0
  C  C463  1  0.707400  0.918500  0.682700  1.0
  C  C464  1  0.707400  0.081500  0.317300  1.0
  C  C465  1  0.707400  0.317300  0.918500  1.0
  C  C466  1  0.707400  0.682700  0.081500  1.0
  C  C467  1  0.004800  0.090500  0.571200  1.0
  C  C468  1  0.004800  0.909500  0.428800  1.0
  C  C469  1  0.004800  0.428800  0.090500  1.0
  C  C470  1  0.004800  0.571200  0.909500  1.0
  C  C471  1  0.958200  0.144800  0.584900  1.0
  C  C472  1  0.958200  0.855200  0.415100  1.0
  C  C473  1  0.958200  0.415100  0.144800  1.0
  C  C474  1  0.958200  0.584900  0.855200  1.0
  C  C475  1  0.955800  0.178500  0.530900  1.0
  C  C476  1  0.955800  0.821500  0.469100  1.0
  C  C477  1  0.955800  0.469100  0.178500  1.0
  C  C478  1  0.955800  0.530900  0.821500  1.0
  C  C479  1  0.850200  0.099800  0.658000  1.0
  C  C480  1  0.850200  0.900200  0.342000  1.0
  C  C481  1  0.850200  0.342000  0.099800  1.0
  C  C482  1  0.850200  0.658000  0.900200  1.0
  C  C483  1  0.851700  0.145700  0.614000  1.0
  C  C484  1  0.851700  0.854300  0.386000  1.0
  C  C485  1  0.851700  0.386000  0.145700  1.0
  C  C486  1  0.851700  0.614000  0.854300  1.0
  C  C487  1  0.884200  0.201200  0.642300  1.0
  C  C488  1  0.884200  0.798800  0.357700  1.0
  C  C489  1  0.884200  0.357700  0.201200  1.0
  C  C490  1  0.884200  0.642300  0.798800  1.0
  C  C491  1  0.997700  0.180100  0.634600  1.0
  C  C492  1  0.997700  0.819900  0.365400  1.0
  C  C493  1  0.997700  0.365400  0.180100  1.0
  C  C494  1  0.997700  0.634600  0.819900  1.0
  C  C495  1  0.655300  0.957200  0.567200  1.0
  C  C496  1  0.655300  0.042800  0.432800  1.0
  C  C497  1  0.655300  0.432800  0.957200  1.0
  C  C498  1  0.655300  0.567200  0.042800  1.0
  C  C499  1  0.688800  0.898800  0.570500  1.0
  C  C500  1  0.688800  0.101200  0.429500  1.0
  C  C501  1  0.688800  0.429500  0.898800  1.0
  C  C502  1  0.688800  0.570500  0.101200  1.0
  C  C503  1  0.687800  0.876500  0.510300  1.0
  C  C504  1  0.687800  0.123500  0.489700  1.0
  C  C505  1  0.687800  0.489700  0.876500  1.0
  C  C506  1  0.687800  0.510300  0.123500  1.0
  C  C507  1  0.805100  0.917900  0.651400  1.0
  C  C508  1  0.805100  0.082100  0.348600  1.0
  C  C509  1  0.805100  0.348600  0.917900  1.0
  C  C510  1  0.805100  0.651400  0.082100  1.0
  C  C511  1  0.792300  0.884000  0.598900  1.0
  C  C512  1  0.792300  0.116000  0.401100  1.0
  C  C513  1  0.792300  0.401100  0.884000  1.0
  C  C514  1  0.792300  0.598900  0.116000  1.0
  C  C515  1  0.745200  0.826400  0.614000  1.0
  C  C516  1  0.745200  0.173600  0.386000  1.0
  C  C517  1  0.745200  0.386000  0.826400  1.0
  C  C518  1  0.745200  0.614000  0.173600  1.0
  C  C519  1  0.638900  0.856900  0.611000  1.0
  C  C520  1  0.638900  0.143100  0.389000  1.0
  C  C521  1  0.638900  0.389000  0.856900  1.0
  C  C522  1  0.638900  0.611000  0.143100  1.0
  C  C523  1  0.126300  0.748300  0.556000  1.0
  C  C524  1  0.126300  0.251700  0.444000  1.0
  C  C525  1  0.126300  0.444000  0.748300  1.0
  C  C526  1  0.126300  0.556000  0.251700  1.0
  C  C527  1  0.039500  0.758600  0.584700  1.0
  C  C528  1  0.039500  0.241400  0.415300  1.0
  C  C529  1  0.039500  0.415300  0.758600  1.0
  C  C530  1  0.039500  0.584700  0.241400  1.0
  C  C531  1  0.032400  0.807100  0.609100  1.0
  C  C532  1  0.032400  0.192900  0.390900  1.0
  C  C533  1  0.032400  0.390900  0.807100  1.0
  C  C534  1  0.032400  0.609100  0.192900  1.0
  C  C535  1  0.110400  0.844400  0.605900  1.0
  C  C536  1  0.110400  0.155600  0.394100  1.0
  C  C537  1  0.110400  0.394100  0.844400  1.0
  C  C538  1  0.110400  0.605900  0.155600  1.0
  C  C539  1  0.194100  0.829300  0.579000  1.0
  C  C540  1  0.194100  0.170700  0.421000  1.0
  C  C541  1  0.194100  0.421000  0.829300  1.0
  C  C542  1  0.194100  0.579000  0.170700  1.0
  C  C543  1  0.117100  0.615300  0.485500  1.0
  C  C544  1  0.117100  0.384700  0.514500  1.0
  C  C545  1  0.117100  0.514500  0.615300  1.0
  C  C546  1  0.117100  0.485500  0.384700  1.0
  C  C547  1  0.074700  0.650400  0.521300  1.0
  C  C548  1  0.074700  0.349600  0.478700  1.0
  C  C549  1  0.074700  0.478700  0.650400  1.0
  C  C550  1  0.074700  0.521300  0.349600  1.0
  C  C551  1  0.129000  0.693900  0.519600  1.0
  C  C552  1  0.129000  0.306100  0.480400  1.0
  C  C553  1  0.129000  0.480400  0.693900  1.0
  C  C554  1  0.129000  0.519600  0.306100  1.0
  C  C555  1  0.265700  0.617000  0.421500  1.0
  C  C556  1  0.265700  0.383000  0.578500  1.0
  C  C557  1  0.265700  0.578500  0.617000  1.0
  C  C558  1  0.265700  0.421500  0.383000  1.0
  C  C559  1  0.437500  0.573750  0.369950  1.0
  C  C560  1  0.437500  0.426250  0.630050  1.0
  C  C561  1  0.437500  0.630050  0.573750  1.0
  C  C562  1  0.437500  0.369950  0.426250  1.0
  C  C563  1  0.255400  0.645600  0.362410  1.0
  C  C564  1  0.255400  0.354400  0.637590  1.0
  C  C565  1  0.255400  0.637590  0.645600  1.0
  C  C566  1  0.255400  0.362410  0.354400  1.0
  C  C567  1  0.163500  0.671620  0.354660  1.0
  C  C568  1  0.163500  0.328380  0.645340  1.0
  C  C569  1  0.163500  0.645340  0.671620  1.0
  C  C570  1  0.163500  0.354660  0.328380  1.0
  C  C571  1  0.151300  0.708340  0.311590  1.0
  C  C572  1  0.151300  0.291660  0.688410  1.0
  C  C573  1  0.151300  0.688410  0.708340  1.0
  C  C574  1  0.151300  0.311590  0.291660  1.0
  C  C575  1  0.230900  0.719030  0.276260  1.0
  C  C576  1  0.230900  0.280970  0.723740  1.0
  C  C577  1  0.230900  0.723740  0.719030  1.0
  C  C578  1  0.230900  0.276260  0.280970  1.0
  C  C579  1  0.322800  0.693000  0.284000  1.0
  C  C580  1  0.322800  0.307000  0.716000  1.0
  C  C581  1  0.322800  0.716000  0.693000  1.0
  C  C582  1  0.322800  0.284000  0.307000  1.0
  C  C583  1  0.335000  0.656280  0.327080  1.0
  C  C584  1  0.335000  0.343720  0.672920  1.0
  C  C585  1  0.335000  0.672920  0.656280  1.0
  C  C586  1  0.335000  0.327080  0.343720  1.0
  C  C587  1  0.426900  0.630260  0.334820  1.0
  C  C588  1  0.426900  0.369740  0.665180  1.0
  C  C589  1  0.426900  0.665180  0.630260  1.0
  C  C590  1  0.426900  0.334820  0.369740  1.0
  C  C591  1  0.506500  0.640950  0.299490  1.0
  C  C592  1  0.506500  0.359050  0.700510  1.0
  C  C593  1  0.506500  0.700510  0.640950  1.0
  C  C594  1  0.506500  0.299490  0.359050  1.0
  C  C595  1  0.494200  0.677660  0.256420  1.0
  C  C596  1  0.494200  0.322340  0.743580  1.0
  C  C597  1  0.494200  0.743580  0.677660  1.0
  C  C598  1  0.494200  0.256420  0.322340  1.0
  C  C599  1  0.402400  0.703690  0.248670  1.0
  C  C600  1  0.402400  0.296310  0.751330  1.0
  C  C601  1  0.402400  0.751330  0.703690  1.0
  C  C602  1  0.402400  0.248670  0.296310  1.0
  C  C603  1  0.601100  0.524200  0.364100  1.0
  C  C604  1  0.601100  0.475800  0.635900  1.0
  C  C605  1  0.601100  0.635900  0.524200  1.0
  C  C606  1  0.601100  0.364100  0.475800  1.0
  C  C607  1  0.636000  0.484200  0.324600  1.0
  C  C608  1  0.636000  0.515800  0.675400  1.0
  C  C609  1  0.636000  0.675400  0.484200  1.0
  C  C610  1  0.636000  0.324600  0.515800  1.0
  C  C611  1  0.553800  0.705800  0.472800  1.0
  C  C612  1  0.553800  0.294200  0.527200  1.0
  C  C613  1  0.553800  0.527200  0.705800  1.0
  C  C614  1  0.553800  0.472800  0.294200  1.0
  C  C615  1  0.540300  0.751700  0.434200  1.0
  C  C616  1  0.540300  0.248300  0.565800  1.0
  C  C617  1  0.540300  0.565800  0.751700  1.0
  C  C618  1  0.540300  0.434200  0.248300  1.0
  C  C619  1  0.620200  0.765000  0.395400  1.0
  C  C620  1  0.620200  0.235000  0.604600  1.0
  C  C621  1  0.620200  0.604600  0.765000  1.0
  C  C622  1  0.620200  0.395400  0.235000  1.0
  C  C623  1  0.614600  0.811300  0.363400  1.0
  C  C624  1  0.614600  0.188700  0.636600  1.0
  C  C625  1  0.614600  0.636600  0.811300  1.0
  C  C626  1  0.614600  0.363400  0.188700  1.0
  C  C627  1  0.533100  0.844000  0.367800  1.0
  C  C628  1  0.533100  0.156000  0.632200  1.0
  C  C629  1  0.533100  0.632200  0.844000  1.0
  C  C630  1  0.533100  0.367800  0.156000  1.0
  C  C631  1  0.455900  0.829700  0.402000  1.0
  C  C632  1  0.455900  0.170300  0.598000  1.0
  C  C633  1  0.455900  0.598000  0.829700  1.0
  C  C634  1  0.455900  0.402000  0.170300  1.0
  C  C635  1  0.246000  0.872700  0.694100  1.0
  C  C636  1  0.246000  0.127300  0.305900  1.0
  C  C637  1  0.246000  0.305900  0.872700  1.0
  C  C638  1  0.246000  0.694100  0.127300  1.0
  C  C639  1  0.197000  0.914400  0.657400  1.0
  C  C640  1  0.197000  0.085600  0.342600  1.0
  C  C641  1  0.197000  0.342600  0.914400  1.0
  C  C642  1  0.197000  0.657400  0.085600  1.0
  C  C643  1  0.187900  0.967900  0.691600  1.0
  C  C644  1  0.187900  0.032100  0.308400  1.0
  C  C645  1  0.187900  0.308400  0.967900  1.0
  C  C646  1  0.187900  0.691600  0.032100  1.0
  C  C647  1  0.279000  0.871000  0.573800  1.0
  C  C648  1  0.279000  0.129000  0.426200  1.0
  C  C649  1  0.279000  0.426200  0.871000  1.0
  C  C650  1  0.279000  0.573800  0.129000  1.0
  C  C651  1  0.246100  0.926400  0.599100  1.0
  C  C652  1  0.246100  0.073600  0.400900  1.0
  C  C653  1  0.246100  0.400900  0.926400  1.0
  C  C654  1  0.246100  0.599100  0.073600  1.0
  C  C655  1  0.135900  0.939800  0.577700  1.0
  C  C656  1  0.135900  0.060200  0.422300  1.0
  C  C657  1  0.135900  0.422300  0.939800  1.0
  C  C658  1  0.135900  0.577700  0.060200  1.0
  C  C659  1  0.096400  0.901200  0.626300  1.0
  C  C660  1  0.096400  0.098800  0.373700  1.0
  C  C661  1  0.096400  0.373700  0.901200  1.0
  C  C662  1  0.096400  0.626300  0.098800  1.0
  C  C663  1  0.376400  0.839900  0.281100  1.0
  C  C664  1  0.376400  0.160100  0.718900  1.0
  C  C665  1  0.376400  0.718900  0.839900  1.0
  C  C666  1  0.376400  0.281100  0.160100  1.0
  C  C667  1  0.413300  0.892900  0.304800  1.0
  C  C668  1  0.413300  0.107100  0.695200  1.0
  C  C669  1  0.413300  0.695200  0.892900  1.0
  C  C670  1  0.413300  0.304800  0.107100  1.0
  C  C671  1  0.399500  0.937300  0.260000  1.0
  C  C672  1  0.399500  0.062700  0.740000  1.0
  C  C673  1  0.399500  0.740000  0.937300  1.0
  C  C674  1  0.399500  0.260000  0.062700  1.0
  C  C675  1  0.357400  0.863700  0.400300  1.0
  C  C676  1  0.357400  0.136300  0.599700  1.0
  C  C677  1  0.357400  0.599700  0.863700  1.0
  C  C678  1  0.357400  0.400300  0.136300  1.0
  C  C679  1  0.366600  0.913500  0.361300  1.0
  C  C680  1  0.366600  0.086500  0.638700  1.0
  C  C681  1  0.366600  0.638700  0.913500  1.0
  C  C682  1  0.366600  0.361300  0.086500  1.0
  C  C683  1  0.472000  0.941900  0.373300  1.0
  C  C684  1  0.472000  0.058100  0.626700  1.0
  C  C685  1  0.472000  0.626700  0.941900  1.0
  C  C686  1  0.472000  0.373300  0.058100  1.0
  C  C687  1  0.519500  0.896700  0.332700  1.0
  C  C688  1  0.519500  0.103300  0.667300  1.0
  C  C689  1  0.519500  0.667300  0.896700  1.0
  C  C690  1  0.519500  0.332700  0.103300  1.0
  N  N691  1  0.953200  0.065000  0.733500  1.0
  N  N692  1  0.953200  0.935000  0.266500  1.0
  N  N693  1  0.953200  0.266500  0.065000  1.0
  N  N694  1  0.953200  0.733500  0.935000  1.0
  N  N695  1  0.974100  0.990700  0.815400  1.0
  N  N696  1  0.974100  0.009300  0.184600  1.0
  N  N697  1  0.974100  0.184600  0.990700  1.0
  N  N698  1  0.974100  0.815400  0.009300  1.0
  N  N699  1  0.004300  0.958400  0.855600  1.0
  N  N700  1  0.004300  0.041600  0.144400  1.0
  N  N701  1  0.004300  0.144400  0.958400  1.0
  N  N702  1  0.004300  0.855600  0.041600  1.0
  N  N703  1  0.691400  0.017300  0.815800  1.0
  N  N704  1  0.691400  0.982700  0.184200  1.0
  N  N705  1  0.691400  0.184200  0.017300  1.0
  N  N706  1  0.691400  0.815800  0.982700  1.0
  N  N707  1  0.667100  0.861400  0.954600  1.0
  N  N708  1  0.667100  0.138600  0.045400  1.0
  N  N709  1  0.667100  0.045400  0.861400  1.0
  N  N710  1  0.667100  0.954600  0.138600  1.0
  N  N711  1  0.704600  0.946300  0.730000  1.0
  N  N712  1  0.704600  0.053700  0.270000  1.0
  N  N713  1  0.704600  0.270000  0.946300  1.0
  N  N714  1  0.704600  0.730000  0.053700  1.0
  N  N715  1  0.203200  0.783100  0.550800  1.0
  N  N716  1  0.203200  0.216900  0.449200  1.0
  N  N717  1  0.203200  0.449200  0.783100  1.0
  N  N718  1  0.203200  0.550800  0.216900  1.0
  N  N719  1  0.210300  0.687900  0.487200  1.0
  N  N720  1  0.210300  0.312100  0.512800  1.0
  N  N721  1  0.210300  0.512800  0.687900  1.0
  N  N722  1  0.210300  0.487200  0.312100  1.0
  N  N723  1  0.195100  0.638000  0.461400  1.0
  N  N724  1  0.195100  0.362000  0.538600  1.0
  N  N725  1  0.195100  0.538600  0.638000  1.0
  N  N726  1  0.195100  0.461400  0.362000  1.0
  N  N727  1  0.480500  0.700100  0.505500  1.0
  N  N728  1  0.480500  0.299900  0.494500  1.0
  N  N729  1  0.480500  0.494500  0.700100  1.0
  N  N730  1  0.480500  0.505500  0.299900  1.0
  N  N731  1  0.500500  0.534400  0.352700  1.0
  N  N732  1  0.500500  0.465600  0.647300  1.0
  N  N733  1  0.500500  0.647300  0.534400  1.0
  N  N734  1  0.500500  0.352700  0.465600  1.0
  N  N735  1  0.459800  0.785500  0.434100  1.0
  N  N736  1  0.459800  0.214500  0.565900  1.0
  N  N737  1  0.459800  0.565900  0.785500  1.0
  N  N738  1  0.459800  0.434100  0.214500  1.0
  O  O739  1  0.960000  0.500000  0.500000  1
  F  F740  1  0.317700  0.091300  0.894400  1
  F  F741  1  0.317700  0.908700  0.105600  1
  F  F742  1  0.317700  0.105600  0.091300  1
  F  F743  1  0.317700  0.894400  0.908700  1
  F  F744  1  0.324700  0.177500  0.928300  1
  F  F745  1  0.324700  0.822500  0.071700  1
  F  F746  1  0.324700  0.071700  0.177500  1
  F  F747  1  0.324700  0.928300  0.822500  1
  F  F748  1  0.244900  0.158600  0.851800  1
  F  F749  1  0.244900  0.841400  0.148200  1
  F  F750  1  0.244900  0.148200  0.158600  1
  F  F751  1  0.244900  0.851800  0.841400  1
  F  F752  1  0.411400  0.157000  0.854800  1
  F  F753  1  0.411400  0.843000  0.145200  1
  F  F754  1  0.411400  0.145200  0.157000  1
  F  F755  1  0.411400  0.854800  0.843000  1
  F  F756  1  0.840200  0.589700  0.341700  1
  F  F757  1  0.840200  0.410300  0.658300  1
  F  F758  1  0.840200  0.658300  0.589700  1
  F  F759  1  0.840200  0.341700  0.410300  1
  F  F760  1  0.844200  0.669800  0.399900  1
  F  F761  1  0.844200  0.330200  0.600100  1
  F  F762  1  0.844200  0.600100  0.669800  1
  F  F763  1  0.844200  0.399900  0.330200  1
  F  F764  1  0.749800  0.657700  0.341800  1
  F  F765  1  0.749800  0.342300  0.658200  1
  F  F766  1  0.749800  0.658200  0.657700  1
  F  F767  1  0.749800  0.341800  0.342300  1
  F  F768  1  0.915100  0.666400  0.320600  1
  F  F769  1  0.915100  0.333600  0.679400  1
  F  F770  1  0.915100  0.679400  0.666400  1
  F  F771  1  0.915100  0.320600  0.333600  1
  F  F772  1  0.911200  0.001900  0.951800  1
  F  F773  1  0.911200  0.998100  0.048200  1
  F  F774  1  0.911200  0.048200  0.001900  1
  F  F775  1  0.911200  0.951800  0.998100  1
  F  F776  1  0.313000  0.497000  0.461200  1
  F  F777  1  0.313000  0.503000  0.538800  1
  F  F778  1  0.313000  0.538800  0.497000  1
  F  F779  1  0.313000  0.461200  0.503000  1
  F  F780  1  0.810600  0.999800  0.948700  1.0
  F  F781  1  0.810600  0.000200  0.051300  1.0
  F  F782  1  0.810600  0.051300  0.999800  1.0
  F  F783  1  0.810600  0.948700  0.000200  1.0
  F  F784  1  0.445000  0.546200  0.493300  1.0
  F  F785  1  0.445000  0.453800  0.506700  1.0
  F  F786  1  0.445000  0.506700  0.546200  1.0
  F  F787  1  0.445000  0.493300  0.453800  1.0
