# generated using pymatgen
data_FeAgPH42C40(N4F3)2
_symmetry_space_group_name_H-M   'P 1'
_cell_length_a   14.21000000
_cell_length_b   15.94350000
_cell_length_c   17.21530000
_cell_angle_alpha   101.89000000
_cell_angle_beta   90.00000000
_cell_angle_gamma   90.00000000
_symmetry_Int_Tables_number   1
_chemical_formula_structural   FeAgPH42C40(N4F3)2
_chemical_formula_sum   'Fe4 Ag4 P4 H168 C160 N32 F24'
_cell_volume   3816.56904538
_cell_formula_units_Z   4
loop_
 _symmetry_equiv_pos_site_id
 _symmetry_equiv_pos_as_xyz
  1  'x, y, z'
loop_
 _atom_site_type_symbol
 _atom_site_label
 _atom_site_symmetry_multiplicity
 _atom_site_fract_x
 _atom_site_fract_y
 _atom_site_fract_z
 _atom_site_occupancy
  Fe  Fe1  1  0.427650  0.694890  0.058820  1.0
  Fe  Fe2  1  0.927650  0.305110  0.441180  1.0
  Fe  Fe3  1  0.572350  0.305110  0.941180  1.0
  Fe  Fe4  1  0.072350  0.694890  0.558820  1.0
  Ag  Ag5  1  0.364250  0.478250  0.506600  1.0
  Ag  Ag6  1  0.864250  0.521750  0.993400  1.0
  Ag  Ag7  1  0.635750  0.521750  0.493400  1.0
  Ag  Ag8  1  0.135750  0.478250  0.006600  1.0
  P  P9  1  0.411960  0.092820  0.675890  1
  P  P10  1  0.911960  0.907180  0.824110  1
  P  P11  1  0.588040  0.907180  0.324110  1
  P  P12  1  0.088040  0.092820  0.175890  1
  H  H13  1  0.345600  0.546700  0.080600  1.0
  H  H14  1  0.845600  0.453300  0.419400  1.0
  H  H15  1  0.654400  0.453300  0.919400  1.0
  H  H16  1  0.154400  0.546700  0.580600  1.0
  H  H17  1  0.340100  0.675300  0.195200  1.0
  H  H18  1  0.840100  0.324700  0.304800  1.0
  H  H19  1  0.659900  0.324700  0.804800  1.0
  H  H20  1  0.159900  0.675300  0.695200  1.0
  H  H21  1  0.575600  0.584400  0.053800  1.0
  H  H22  1  0.075600  0.415600  0.446200  1.0
  H  H23  1  0.424400  0.415600  0.946200  1.0
  H  H24  1  0.924400  0.584400  0.553800  1.0
  H  H25  1  0.260200  0.370600  0.829100  1.0
  H  H26  1  0.760200  0.629400  0.670900  1.0
  H  H27  1  0.739800  0.629400  0.170900  1.0
  H  H28  1  0.239800  0.370600  0.329100  1.0
  H  H29  1  0.508000  0.229300  0.535400  1.0
  H  H30  1  0.008000  0.770700  0.964600  1.0
  H  H31  1  0.492000  0.770700  0.464600  1.0
  H  H32  1  0.992000  0.229300  0.035400  1.0
  H  H33  1  0.509800  0.408600  0.802200  1.0
  H  H34  1  0.009800  0.591400  0.697800  1.0
  H  H35  1  0.490200  0.591400  0.197800  1.0
  H  H36  1  0.990200  0.408600  0.302200  1.0
  H  H37  1  0.246000  0.192700  0.568800  1.0
  H  H38  1  0.746000  0.807300  0.931200  1.0
  H  H39  1  0.754000  0.807300  0.431200  1.0
  H  H40  1  0.254000  0.192700  0.068800  1.0
  H  H41  1  0.320200  0.566100  0.719200  1.0
  H  H42  1  0.820200  0.433900  0.780800  1.0
  H  H43  1  0.679800  0.433900  0.280800  1.0
  H  H44  1  0.179800  0.566100  0.219200  1.0
  H  H45  1  0.561500  0.605900  0.693100  1.0
  H  H46  1  0.061500  0.394100  0.806900  1.0
  H  H47  1  0.438500  0.394100  0.306900  1.0
  H  H48  1  0.938500  0.605900  0.193100  1.0
  H  H49  1  0.520700  0.843500  0.116500  1.0
  H  H50  1  0.020700  0.156500  0.383500  1.0
  H  H51  1  0.479300  0.156500  0.883500  1.0
  H  H52  1  0.979300  0.843500  0.616500  1.0
  H  H53  1  0.568200  0.712500  0.169800  1.0
  H  H54  1  0.068200  0.287500  0.330200  1.0
  H  H55  1  0.431800  0.287500  0.830200  1.0
  H  H56  1  0.931800  0.712500  0.669800  1.0
  H  H57  1  0.500200  0.798400  0.967100  1.0
  H  H58  1  0.000200  0.201600  0.532900  1.0
  H  H59  1  0.499800  0.201600  0.032900  1.0
  H  H60  1  0.999800  0.798400  0.467100  1.0
  H  H61  1  0.280400  0.761700  0.991800  1.0
  H  H62  1  0.780400  0.238300  0.508200  1.0
  H  H63  1  0.719600  0.238300  0.008200  1.0
  H  H64  1  0.219600  0.761700  0.491800  1.0
  H  H65  1  0.299800  0.807300  0.141000  1.0
  H  H66  1  0.799800  0.192700  0.359000  1.0
  H  H67  1  0.700200  0.192700  0.859000  1.0
  H  H68  1  0.200200  0.807300  0.641000  1.0
  H  H69  1  0.434100  0.181700  0.150600  1.0
  H  H70  1  0.934100  0.818300  0.349400  1.0
  H  H71  1  0.565900  0.818300  0.849400  1.0
  H  H72  1  0.065900  0.181700  0.650600  1.0
  H  H73  1  0.345300  0.136600  0.181900  1.0
  H  H74  1  0.845300  0.863400  0.318100  1.0
  H  H75  1  0.654700  0.863400  0.818100  1.0
  H  H76  1  0.154700  0.136600  0.681900  1.0
  H  H77  1  0.516700  0.237300  0.273400  1.0
  H  H78  1  0.016700  0.762700  0.226600  1.0
  H  H79  1  0.483300  0.762700  0.726600  1.0
  H  H80  1  0.983300  0.237300  0.773400  1.0
  H  H81  1  0.422200  0.217900  0.317200  1.0
  H  H82  1  0.922200  0.782100  0.182800  1.0
  H  H83  1  0.577800  0.782100  0.682800  1.0
  H  H84  1  0.077800  0.217900  0.817200  1.0
  H  H85  1  0.254600  0.279500  0.703700  1.0
  H  H86  1  0.754600  0.720500  0.796300  1.0
  H  H87  1  0.745400  0.720500  0.296300  1.0
  H  H88  1  0.245400  0.279500  0.203700  1.0
  H  H89  1  0.514900  0.315700  0.678300  1.0
  H  H90  1  0.014900  0.684300  0.821700  1.0
  H  H91  1  0.485100  0.684300  0.321700  1.0
  H  H92  1  0.985100  0.315700  0.178300  1.0
  H  H93  1  0.532100  0.088400  0.215900  1.0
  H  H94  1  0.032100  0.911600  0.284100  1.0
  H  H95  1  0.467900  0.911600  0.784100  1.0
  H  H96  1  0.967900  0.088400  0.715900  1.0
  H  H97  1  0.437700  0.069000  0.259800  1.0
  H  H98  1  0.937700  0.931000  0.240200  1.0
  H  H99  1  0.562300  0.931000  0.740200  1.0
  H  H100  1  0.062300  0.069000  0.759800  1.0
  H  H101  1  0.291400  0.137100  0.349000  1.0
  H  H102  1  0.791400  0.862900  0.151000  1.0
  H  H103  1  0.708600  0.862900  0.651000  1.0
  H  H104  1  0.208600  0.137100  0.849000  1.0
  H  H105  1  0.191800  0.125900  0.389100  1.0
  H  H106  1  0.691800  0.874100  0.110900  1.0
  H  H107  1  0.808200  0.874100  0.610900  1.0
  H  H108  1  0.308200  0.125900  0.889100  1.0
  H  H109  1  0.317600  0.972600  0.321600  1.0
  H  H110  1  0.817600  0.027400  0.178400  1.0
  H  H111  1  0.682400  0.027400  0.678400  1.0
  H  H112  1  0.182400  0.972600  0.821600  1.0
  H  H113  1  0.212600  0.970100  0.355000  1.0
  H  H114  1  0.712600  0.029900  0.145000  1.0
  H  H115  1  0.787400  0.029900  0.645000  1.0
  H  H116  1  0.287400  0.970100  0.855000  1.0
  H  H117  1  0.511200  0.133400  0.391100  1.0
  H  H118  1  0.011200  0.866600  0.108900  1.0
  H  H119  1  0.488800  0.866600  0.608900  1.0
  H  H120  1  0.988800  0.133400  0.891100  1.0
  H  H121  1  0.605400  0.157000  0.349000  1.0
  H  H122  1  0.105400  0.843000  0.151000  1.0
  H  H123  1  0.394600  0.843000  0.651000  1.0
  H  H124  1  0.894600  0.157000  0.849000  1.0
  H  H125  1  0.338500  0.810600  0.301000  1.0
  H  H126  1  0.838500  0.189400  0.199000  1.0
  H  H127  1  0.661500  0.189400  0.699000  1.0
  H  H128  1  0.161500  0.810600  0.801000  1.0
  H  H129  1  0.319300  0.763600  0.373000  1.0
  H  H130  1  0.819300  0.236400  0.127000  1.0
  H  H131  1  0.680700  0.236400  0.627000  1.0
  H  H132  1  0.180700  0.763600  0.873000  1.0
  H  H133  1  0.267700  0.054700  0.480900  1.0
  H  H134  1  0.767700  0.945300  0.019100  1.0
  H  H135  1  0.732300  0.945300  0.519100  1.0
  H  H136  1  0.232300  0.054700  0.980900  1.0
  H  H137  1  0.366600  0.064500  0.439200  1.0
  H  H138  1  0.866600  0.935500  0.060800  1.0
  H  H139  1  0.633400  0.935500  0.560800  1.0
  H  H140  1  0.133400  0.064500  0.939200  1.0
  H  H141  1  0.371500  0.902000  0.425200  1.0
  H  H142  1  0.871500  0.098000  0.074800  1.0
  H  H143  1  0.628500  0.098000  0.574800  1.0
  H  H144  1  0.128500  0.902000  0.925200  1.0
  H  H145  1  0.264600  0.894500  0.451700  1.0
  H  H146  1  0.764600  0.105500  0.048300  1.0
  H  H147  1  0.735400  0.105500  0.548300  1.0
  H  H148  1  0.235400  0.894500  0.951700  1.0
  H  H149  1  0.399900  0.958300  0.154100  1.0
  H  H150  1  0.899900  0.041700  0.345900  1.0
  H  H151  1  0.600100  0.041700  0.845900  1.0
  H  H152  1  0.100100  0.958300  0.654100  1.0
  H  H153  1  0.387900  0.925500  0.060400  1.0
  H  H154  1  0.887900  0.074500  0.439600  1.0
  H  H155  1  0.612100  0.074500  0.939600  1.0
  H  H156  1  0.112100  0.925500  0.560400  1.0
  H  H157  1  0.305700  0.979500  0.111100  1.0
  H  H158  1  0.805700  0.020500  0.388900  1.0
  H  H159  1  0.694300  0.020500  0.888900  1.0
  H  H160  1  0.194300  0.979500  0.611100  1.0
  H  H161  1  0.154600  0.791200  0.362200  1.0
  H  H162  1  0.654600  0.208800  0.137800  1.0
  H  H163  1  0.845400  0.208800  0.637800  1.0
  H  H164  1  0.345400  0.791200  0.862200  1.0
  H  H165  1  0.195500  0.731400  0.283200  1.0
  H  H166  1  0.695500  0.268600  0.216800  1.0
  H  H167  1  0.804500  0.268600  0.716800  1.0
  H  H168  1  0.304500  0.731400  0.783200  1.0
  H  H169  1  0.176700  0.830900  0.286000  1.0
  H  H170  1  0.676700  0.169100  0.214000  1.0
  H  H171  1  0.823300  0.169100  0.714000  1.0
  H  H172  1  0.323300  0.830900  0.786000  1.0
  H  H173  1  0.385700  0.072200  0.046900  1.0
  H  H174  1  0.885700  0.927800  0.453100  1.0
  H  H175  1  0.614300  0.927800  0.953100  1.0
  H  H176  1  0.114300  0.072200  0.546900  1.0
  H  H177  1  0.484900  0.043800  0.077200  1.0
  H  H178  1  0.984900  0.956200  0.422800  1.0
  H  H179  1  0.515100  0.956200  0.922800  1.0
  H  H180  1  0.015100  0.043800  0.577200  1.0
  C  C181  1  0.331700  0.604000  0.077000  1.0
  C  C182  1  0.831700  0.396000  0.423000  1.0
  C  C183  1  0.668300  0.396000  0.923000  1.0
  C  C184  1  0.168300  0.604000  0.577000  1.0
  C  C185  1  0.552900  0.355000  0.536200  1.0
  C  C186  1  0.052900  0.645000  0.963800  1.0
  C  C187  1  0.447100  0.645000  0.463800  1.0
  C  C188  1  0.947100  0.355000  0.036200  1.0
  C  C189  1  0.284600  0.317000  0.561400  1.0
  C  C190  1  0.784600  0.683000  0.938600  1.0
  C  C191  1  0.715400  0.683000  0.438600  1.0
  C  C192  1  0.215400  0.317000  0.061400  1.0
  C  C193  1  0.328800  0.676300  0.141000  1.0
  C  C194  1  0.828800  0.323700  0.359000  1.0
  C  C195  1  0.671200  0.323700  0.859000  1.0
  C  C196  1  0.171200  0.676300  0.641000  1.0
  C  C197  1  0.297700  0.536400  0.862900  1.0
  C  C198  1  0.797700  0.463600  0.637100  1.0
  C  C199  1  0.702300  0.463600  0.137100  1.0
  C  C200  1  0.202300  0.536400  0.362900  1.0
  C  C201  1  0.292000  0.479300  0.787700  1.0
  C  C202  1  0.792000  0.520700  0.712300  1.0
  C  C203  1  0.708000  0.520700  0.212300  1.0
  C  C204  1  0.208000  0.479300  0.287700  1.0
  C  C205  1  0.536100  0.518200  0.761300  1.0
  C  C206  1  0.036100  0.481800  0.738700  1.0
  C  C207  1  0.463900  0.481800  0.238700  1.0
  C  C208  1  0.963900  0.518200  0.261300  1.0
  C  C209  1  0.560400  0.641700  0.050800  1.0
  C  C210  1  0.060400  0.358300  0.449200  1.0
  C  C211  1  0.439600  0.358300  0.949200  1.0
  C  C212  1  0.939600  0.641700  0.550800  1.0
  C  C213  1  0.271700  0.392200  0.782500  1.0
  C  C214  1  0.771700  0.607800  0.717500  1.0
  C  C215  1  0.728300  0.607800  0.217500  1.0
  C  C216  1  0.228300  0.392200  0.282500  1.0
  C  C217  1  0.537600  0.672100  0.979700  1.0
  C  C218  1  0.037600  0.327900  0.520300  1.0
  C  C219  1  0.462400  0.327900  0.020300  1.0
  C  C220  1  0.962400  0.672100  0.479700  1.0
  C  C221  1  0.531600  0.269800  0.506800  1.0
  C  C222  1  0.031600  0.730200  0.993200  1.0
  C  C223  1  0.468400  0.730200  0.493200  1.0
  C  C224  1  0.968400  0.269800  0.006800  1.0
  C  C225  1  0.535600  0.621100  0.901800  1.0
  C  C226  1  0.035600  0.378900  0.598200  1.0
  C  C227  1  0.464400  0.378900  0.098200  1.0
  C  C228  1  0.964400  0.621100  0.401800  1.0
  C  C229  1  0.309600  0.633800  0.005500  1.0
  C  C230  1  0.809600  0.366200  0.494500  1.0
  C  C231  1  0.690400  0.366200  0.994500  1.0
  C  C232  1  0.190400  0.633800  0.505500  1.0
  C  C233  1  0.521900  0.430200  0.755700  1.0
  C  C234  1  0.021900  0.569800  0.744300  1.0
  C  C235  1  0.478100  0.569800  0.244300  1.0
  C  C236  1  0.978100  0.430200  0.255700  1.0
  C  C237  1  0.535200  0.576200  0.836500  1.0
  C  C238  1  0.035200  0.423800  0.663500  1.0
  C  C239  1  0.464800  0.423800  0.163500  1.0
  C  C240  1  0.964800  0.576200  0.336500  1.0
  C  C241  1  0.264200  0.231800  0.536700  1.0
  C  C242  1  0.764200  0.768200  0.963300  1.0
  C  C243  1  0.735800  0.768200  0.463300  1.0
  C  C244  1  0.235800  0.231800  0.036700  1.0
  C  C245  1  0.307500  0.507100  0.716400  1.0
  C  C246  1  0.807500  0.492900  0.783600  1.0
  C  C247  1  0.692500  0.492900  0.283600  1.0
  C  C248  1  0.192500  0.507100  0.216400  1.0
  C  C249  1  0.552800  0.546300  0.690300  1.0
  C  C250  1  0.052800  0.453700  0.809700  1.0
  C  C251  1  0.447200  0.453700  0.309700  1.0
  C  C252  1  0.947200  0.546300  0.190300  1.0
  C  C253  1  0.529300  0.787300  0.085800  1.0
  C  C254  1  0.029300  0.212700  0.414200  1.0
  C  C255  1  0.470700  0.212700  0.914200  1.0
  C  C256  1  0.970700  0.787300  0.585800  1.0
  C  C257  1  0.303400  0.581500  0.928500  1.0
  C  C258  1  0.803400  0.418500  0.571500  1.0
  C  C259  1  0.696600  0.418500  0.071500  1.0
  C  C260  1  0.196600  0.581500  0.428500  1.0
  C  C261  1  0.555800  0.713600  0.115800  1.0
  C  C262  1  0.055800  0.286400  0.384200  1.0
  C  C263  1  0.444200  0.286400  0.884200  1.0
  C  C264  1  0.944200  0.713600  0.615800  1.0
  C  C265  1  0.285900  0.371900  0.640900  1.0
  C  C266  1  0.785900  0.628100  0.859100  1.0
  C  C267  1  0.714100  0.628100  0.359100  1.0
  C  C268  1  0.214100  0.371900  0.140900  1.0
  C  C269  1  0.517800  0.762100  0.002000  1.0
  C  C270  1  0.017800  0.237900  0.498000  1.0
  C  C271  1  0.482200  0.237900  0.998000  1.0
  C  C272  1  0.982200  0.762100  0.502000  1.0
  C  C273  1  0.295000  0.725000  0.027200  1.0
  C  C274  1  0.795000  0.275000  0.472800  1.0
  C  C275  1  0.705000  0.275000  0.972800  1.0
  C  C276  1  0.205000  0.725000  0.527200  1.0
  C  C277  1  0.306200  0.750600  0.110700  1.0
  C  C278  1  0.806200  0.249400  0.389300  1.0
  C  C279  1  0.693800  0.249400  0.889300  1.0
  C  C280  1  0.193800  0.750600  0.610700  1.0
  C  C281  1  0.412000  0.128200  0.165300  1.0
  C  C282  1  0.912000  0.871800  0.334700  1.0
  C  C283  1  0.588000  0.871800  0.834700  1.0
  C  C284  1  0.088000  0.128200  0.665300  1.0
  C  C285  1  0.545200  0.409200  0.615500  1.0
  C  C286  1  0.045200  0.590800  0.884500  1.0
  C  C287  1  0.454800  0.590800  0.384500  1.0
  C  C288  1  0.954800  0.409200  0.115500  1.0
  C  C289  1  0.484300  0.194300  0.297900  1.0
  C  C290  1  0.984300  0.805700  0.202100  1.0
  C  C291  1  0.515700  0.805700  0.702100  1.0
  C  C292  1  0.015700  0.194300  0.797900  1.0
  C  C293  1  0.268500  0.338600  0.708600  1.0
  C  C294  1  0.768500  0.661400  0.791400  1.0
  C  C295  1  0.731500  0.661400  0.291400  1.0
  C  C296  1  0.231500  0.338600  0.208600  1.0
  C  C297  1  0.525500  0.375400  0.683000  1.0
  C  C298  1  0.025500  0.624600  0.817000  1.0
  C  C299  1  0.474500  0.624600  0.317000  1.0
  C  C300  1  0.974500  0.375400  0.183000  1.0
  C  C301  1  0.470000  0.112100  0.235300  1.0
  C  C302  1  0.970000  0.887900  0.264700  1.0
  C  C303  1  0.530000  0.887900  0.764700  1.0
  C  C304  1  0.030000  0.112100  0.735300  1.0
  C  C305  1  0.260000  0.133900  0.399700  1.0
  C  C306  1  0.760000  0.866100  0.100300  1.0
  C  C307  1  0.740000  0.866100  0.600300  1.0
  C  C308  1  0.240000  0.133900  0.899700  1.0
  C  C309  1  0.279900  0.973500  0.370100  1.0
  C  C310  1  0.779900  0.026500  0.129900  1.0
  C  C311  1  0.720100  0.026500  0.629900  1.0
  C  C312  1  0.220100  0.973500  0.870100  1.0
  C  C313  1  0.542100  0.178100  0.367800  1.0
  C  C314  1  0.042100  0.821900  0.132200  1.0
  C  C315  1  0.457900  0.821900  0.632200  1.0
  C  C316  1  0.957900  0.178100  0.867800  1.0
  C  C317  1  0.297000  0.809800  0.347000  1.0
  C  C318  1  0.797000  0.190200  0.153000  1.0
  C  C319  1  0.703000  0.190200  0.653000  1.0
  C  C320  1  0.203000  0.809800  0.847000  1.0
  C  C321  1  0.298100  0.057300  0.429800  1.0
  C  C322  1  0.798100  0.942700  0.070200  1.0
  C  C323  1  0.701900  0.942700  0.570200  1.0
  C  C324  1  0.201900  0.057300  0.929800  1.0
  C  C325  1  0.305900  0.895400  0.405600  1.0
  C  C326  1  0.805900  0.104600  0.094400  1.0
  C  C327  1  0.694100  0.104600  0.594400  1.0
  C  C328  1  0.194100  0.895400  0.905600  1.0
  C  C329  1  0.374000  0.972200  0.105600  1.0
  C  C330  1  0.874000  0.027800  0.394400  1.0
  C  C331  1  0.626000  0.027800  0.894400  1.0
  C  C332  1  0.126000  0.972200  0.605600  1.0
  C  C333  1  0.197000  0.789000  0.316900  1.0
  C  C334  1  0.697000  0.211000  0.183100  1.0
  C  C335  1  0.803000  0.211000  0.683100  1.0
  C  C336  1  0.303000  0.789000  0.816900  1.0
  C  C337  1  0.417900  0.054600  0.091900  1.0
  C  C338  1  0.917900  0.945400  0.408100  1.0
  C  C339  1  0.582100  0.945400  0.908100  1.0
  C  C340  1  0.082100  0.054600  0.591900  1.0
  N  N341  1  0.584380  0.387960  0.473970  1.0
  N  N342  1  0.084380  0.612040  0.026030  1.0
  N  N343  1  0.415620  0.612040  0.526030  1.0
  N  N344  1  0.915620  0.387960  0.973970  1.0
  N  N345  1  0.307210  0.347580  0.495450  1.0
  N  N346  1  0.807210  0.652420  0.004550  1.0
  N  N347  1  0.692790  0.652420  0.504550  1.0
  N  N348  1  0.192790  0.347580  0.995450  1.0
  N  N349  1  0.275300  0.215060  0.457440  1.0
  N  N350  1  0.775300  0.784940  0.042560  1.0
  N  N351  1  0.724700  0.784940  0.542560  1.0
  N  N352  1  0.224700  0.215060  0.957440  1.0
  N  N353  1  0.557300  0.493830  0.619500  1.0
  N  N354  1  0.057300  0.506170  0.880500  1.0
  N  N355  1  0.442700  0.506170  0.380500  1.0
  N  N356  1  0.942700  0.493830  0.119500  1.0
  N  N357  1  0.584000  0.328090  0.408370  1.0
  N  N358  1  0.084000  0.671910  0.091630  1.0
  N  N359  1  0.416000  0.671910  0.591630  1.0
  N  N360  1  0.916000  0.328090  0.908370  1.0
  N  N361  1  0.551600  0.256610  0.428540  1.0
  N  N362  1  0.051600  0.743390  0.071460  1.0
  N  N363  1  0.448400  0.743390  0.571460  1.0
  N  N364  1  0.948400  0.256610  0.928540  1.0
  N  N365  1  0.305320  0.455190  0.645080  1.0
  N  N366  1  0.805320  0.544810  0.854920  1.0
  N  N367  1  0.694680  0.544810  0.354920  1.0
  N  N368  1  0.194680  0.455190  0.145080  1.0
  N  N369  1  0.301800  0.285700  0.432230  1.0
  N  N370  1  0.801800  0.714300  0.067770  1.0
  N  N371  1  0.698200  0.714300  0.567770  1.0
  N  N372  1  0.198200  0.285700  0.932230  1.0
  F  F373  1  0.352300  0.159900  0.738400  1
  F  F374  1  0.852300  0.840100  0.761600  1
  F  F375  1  0.647700  0.840100  0.261600  1
  F  F376  1  0.147700  0.159900  0.238400  1
  F  F377  1  0.449700  0.167700  0.636200  1
  F  F378  1  0.949700  0.832300  0.863800  1
  F  F379  1  0.550300  0.832300  0.363800  1
  F  F380  1  0.050300  0.167700  0.136200  1
  F  F381  1  0.322300  0.081800  0.619000  1
  F  F382  1  0.822300  0.918200  0.881000  1
  F  F383  1  0.677700  0.918200  0.381000  1
  F  F384  1  0.177700  0.081800  0.119000  1
  F  F385  1  0.371400  0.017600  0.716600  1
  F  F386  1  0.871400  0.982400  0.783400  1
  F  F387  1  0.628600  0.982400  0.283400  1
  F  F388  1  0.128600  0.017600  0.216600  1
  F  F389  1  0.498400  0.102600  0.734700  1
  F  F390  1  0.998400  0.897400  0.765300  1
  F  F391  1  0.501600  0.897400  0.265300  1
  F  F392  1  0.001600  0.102600  0.234700  1
  F  F393  1  0.468600  0.023100  0.614200  1
  F  F394  1  0.968600  0.976900  0.885800  1
  F  F395  1  0.531400  0.976900  0.385800  1
  F  F396  1  0.031400  0.023100  0.114200  1
