# generated using pymatgen
data_FeB2H42PdC40(NF)8
_symmetry_space_group_name_H-M   'P 1'
_cell_length_a   8.83500000
_cell_length_b   17.62240000
_cell_length_c   26.18980000
_cell_angle_alpha   106.43800000
_cell_angle_beta   90.00000000
_cell_angle_gamma   90.00000000
_symmetry_Int_Tables_number   1
_chemical_formula_structural   FeB2H42PdC40(NF)8
_chemical_formula_sum   'Fe4 B8 H168 Pd4 C160 N32 F32'
_cell_volume   3910.92677299
_cell_formula_units_Z   4
loop_
 _symmetry_equiv_pos_site_id
 _symmetry_equiv_pos_as_xyz
  1  'x, y, z'
loop_
 _atom_site_type_symbol
 _atom_site_label
 _atom_site_symmetry_multiplicity
 _atom_site_fract_x
 _atom_site_fract_y
 _atom_site_fract_z
 _atom_site_occupancy
  Fe  Fe1  1  0.190860  0.831530  0.203240  1.0
  Fe  Fe2  1  0.690860  0.668470  0.296760  1.0
  Fe  Fe3  1  0.809140  0.168470  0.796760  1.0
  Fe  Fe4  1  0.309140  0.331530  0.703240  1.0
  B  B5  1  0.932800  0.262200  0.987870  1
  B  B6  1  0.432800  0.237800  0.512130  1
  B  B7  1  0.067200  0.737800  0.012130  1
  B  B8  1  0.567200  0.762200  0.487870  1
  B  B9  1  0.925400  0.834500  0.726710  1
  B  B10  1  0.425400  0.665500  0.773290  1
  B  B11  1  0.074600  0.165500  0.273290  1
  B  B12  1  0.574600  0.334500  0.226710  1
  H  H13  1  0.874900  0.935700  0.011600  1.0
  H  H14  1  0.374900  0.564300  0.488400  1.0
  H  H15  1  0.125100  0.064300  0.988400  1.0
  H  H16  1  0.625100  0.435700  0.511600  1.0
  H  H17  1  0.289000  0.785400  0.101000  1.0
  H  H18  1  0.789000  0.714600  0.399000  1.0
  H  H19  1  0.711000  0.214600  0.899000  1.0
  H  H20  1  0.211000  0.285400  0.601000  1.0
  H  H21  1  0.262100  0.987600  0.227500  1.0
  H  H22  1  0.762100  0.512400  0.272500  1.0
  H  H23  1  0.737900  0.012400  0.772500  1.0
  H  H24  1  0.237900  0.487600  0.727500  1.0
  H  H25  1  0.788400  0.213400  0.705800  1.0
  H  H26  1  0.288400  0.286600  0.794200  1.0
  H  H27  1  0.211600  0.786600  0.294200  1.0
  H  H28  1  0.711600  0.713400  0.205800  1.0
  H  H29  1  0.471700  0.772100  0.171500  1.0
  H  H30  1  0.971700  0.727900  0.328500  1.0
  H  H31  1  0.528300  0.227900  0.828500  1.0
  H  H32  1  0.028300  0.272100  0.671500  1.0
  H  H33  1  0.302500  0.933500  0.752800  1.0
  H  H34  1  0.802500  0.566500  0.747200  1.0
  H  H35  1  0.697500  0.066500  0.247200  1.0
  H  H36  1  0.197500  0.433500  0.252800  1.0
  H  H37  1  0.395200  0.347400  0.040800  1.0
  H  H38  1  0.895200  0.152600  0.459200  1.0
  H  H39  1  0.604800  0.652600  0.959200  1.0
  H  H40  1  0.104800  0.847400  0.540800  1.0
  H  H41  1  0.265500  0.289100  0.009500  1.0
  H  H42  1  0.765500  0.210900  0.490500  1.0
  H  H43  1  0.734500  0.710900  0.990500  1.0
  H  H44  1  0.234500  0.789100  0.509500  1.0
  H  H45  1  0.014700  0.277000  0.848900  1.0
  H  H46  1  0.514700  0.223000  0.651100  1.0
  H  H47  1  0.985300  0.723000  0.151100  1.0
  H  H48  1  0.485300  0.777000  0.348900  1.0
  H  H49  1  0.968900  0.101600  0.706400  1.0
  H  H50  1  0.468900  0.398400  0.793600  1.0
  H  H51  1  0.031100  0.898400  0.293600  1.0
  H  H52  1  0.531100  0.601600  0.206400  1.0
  H  H53  1  0.480900  0.847400  0.772000  1.0
  H  H54  1  0.980900  0.652600  0.728000  1.0
  H  H55  1  0.519100  0.152600  0.228000  1.0
  H  H56  1  0.019100  0.347400  0.272000  1.0
  H  H57  1  0.817900  0.321000  0.792500  1.0
  H  H58  1  0.317900  0.179000  0.707500  1.0
  H  H59  1  0.182100  0.679000  0.207500  1.0
  H  H60  1  0.682100  0.821000  0.292500  1.0
  H  H61  1  0.453300  0.894400  0.250200  1.0
  H  H62  1  0.953300  0.605600  0.249800  1.0
  H  H63  1  0.546700  0.105600  0.749800  1.0
  H  H64  1  0.046700  0.394400  0.750200  1.0
  H  H65  1  0.758800  0.180900  0.129800  1.0
  H  H66  1  0.258800  0.319100  0.370200  1.0
  H  H67  1  0.241200  0.819100  0.870200  1.0
  H  H68  1  0.741200  0.680900  0.629800  1.0
  H  H69  1  0.934000  0.098900  0.155100  1.0
  H  H70  1  0.434000  0.401100  0.344900  1.0
  H  H71  1  0.066000  0.901100  0.844900  1.0
  H  H72  1  0.566000  0.598900  0.655100  1.0
  H  H73  1  0.706000  0.766800  0.804200  1.0
  H  H74  1  0.206000  0.733200  0.695800  1.0
  H  H75  1  0.294000  0.233200  0.195800  1.0
  H  H76  1  0.794000  0.266800  0.304200  1.0
  H  H77  1  0.014200  0.576900  0.817500  1.0
  H  H78  1  0.514200  0.923100  0.682500  1.0
  H  H79  1  0.985800  0.423100  0.182500  1.0
  H  H80  1  0.485800  0.076900  0.317500  1.0
  H  H81  1  0.046000  0.596700  0.880000  1.0
  H  H82  1  0.546000  0.903300  0.620000  1.0
  H  H83  1  0.954000  0.403300  0.120000  1.0
  H  H84  1  0.454000  0.096700  0.380000  1.0
  H  H85  1  0.372300  0.284800  0.927400  1.0
  H  H86  1  0.872300  0.215200  0.572600  1.0
  H  H87  1  0.627700  0.715200  0.072600  1.0
  H  H88  1  0.127700  0.784800  0.427400  1.0
  H  H89  1  0.521700  0.329700  0.955200  1.0
  H  H90  1  0.021700  0.170300  0.544800  1.0
  H  H91  1  0.478300  0.670300  0.044800  1.0
  H  H92  1  0.978300  0.829700  0.455200  1.0
  H  H93  1  0.568500  0.265300  0.086800  1.0
  H  H94  1  0.068500  0.234700  0.413200  1.0
  H  H95  1  0.431500  0.734700  0.913200  1.0
  H  H96  1  0.931500  0.765300  0.586800  1.0
  H  H97  1  0.225400  0.401000  0.966400  1.0
  H  H98  1  0.725400  0.099000  0.533600  1.0
  H  H99  1  0.774600  0.599000  0.033600  1.0
  H  H100  1  0.274600  0.901000  0.466400  1.0
  H  H101  1  0.374300  0.445800  0.994400  1.0
  H  H102  1  0.874300  0.054200  0.505600  1.0
  H  H103  1  0.625700  0.554200  0.005600  1.0
  H  H104  1  0.125700  0.945800  0.494400  1.0
  H  H105  1  0.315300  0.397800  0.882200  1.0
  H  H106  1  0.815300  0.102200  0.617800  1.0
  H  H107  1  0.684700  0.602200  0.117800  1.0
  H  H108  1  0.184700  0.897800  0.382200  1.0
  H  H109  1  0.478000  0.429300  0.905700  1.0
  H  H110  1  0.978000  0.070700  0.594300  1.0
  H  H111  1  0.522000  0.570700  0.094300  1.0
  H  H112  1  0.022000  0.929300  0.405700  1.0
  H  H113  1  0.776900  0.638600  0.832600  1.0
  H  H114  1  0.276900  0.861400  0.667400  1.0
  H  H115  1  0.223100  0.361400  0.167400  1.0
  H  H116  1  0.723100  0.138600  0.332600  1.0
  H  H117  1  0.788700  0.648800  0.895300  1.0
  H  H118  1  0.288700  0.851200  0.604700  1.0
  H  H119  1  0.211300  0.351200  0.104700  1.0
  H  H120  1  0.711300  0.148800  0.395300  1.0
  H  H121  1  0.464600  0.545400  0.866500  1.0
  H  H122  1  0.964600  0.954600  0.633500  1.0
  H  H123  1  0.535400  0.454600  0.133500  1.0
  H  H124  1  0.035400  0.045400  0.366500  1.0
  H  H125  1  0.318300  0.601200  0.877900  1.0
  H  H126  1  0.818300  0.898800  0.622100  1.0
  H  H127  1  0.681700  0.398800  0.122100  1.0
  H  H128  1  0.181700  0.101200  0.377900  1.0
  H  H129  1  0.305600  0.512500  0.840100  1.0
  H  H130  1  0.805600  0.987500  0.659900  1.0
  H  H131  1  0.694400  0.487500  0.159900  1.0
  H  H132  1  0.194400  0.012500  0.340100  1.0
  H  H133  1  0.991400  0.738700  0.903100  1.0
  H  H134  1  0.491400  0.761300  0.596900  1.0
  H  H135  1  0.008600  0.261300  0.096900  1.0
  H  H136  1  0.508600  0.238700  0.403100  1.0
  H  H137  1  0.993400  0.724900  0.840000  1.0
  H  H138  1  0.493400  0.775100  0.660000  1.0
  H  H139  1  0.006600  0.275100  0.160000  1.0
  H  H140  1  0.506600  0.224900  0.340000  1.0
  H  H141  1  0.983300  0.461200  0.843000  1.0
  H  H142  1  0.483300  0.038800  0.657000  1.0
  H  H143  1  0.016700  0.538800  0.157000  1.0
  H  H144  1  0.516700  0.961200  0.343000  1.0
  H  H145  1  0.822400  0.486000  0.824800  1.0
  H  H146  1  0.322400  0.014000  0.675200  1.0
  H  H147  1  0.177600  0.514000  0.175200  1.0
  H  H148  1  0.677600  0.986000  0.324800  1.0
  H  H149  1  0.206200  0.521600  0.925600  1.0
  H  H150  1  0.706200  0.978400  0.574400  1.0
  H  H151  1  0.793800  0.478400  0.074400  1.0
  H  H152  1  0.293800  0.021600  0.425600  1.0
  H  H153  1  0.366200  0.553400  0.951700  1.0
  H  H154  1  0.866200  0.946600  0.548300  1.0
  H  H155  1  0.633800  0.446600  0.048300  1.0
  H  H156  1  0.133800  0.053400  0.451700  1.0
  H  H157  1  0.897500  0.534300  0.934800  1.0
  H  H158  1  0.397500  0.965700  0.565200  1.0
  H  H159  1  0.102500  0.465700  0.065200  1.0
  H  H160  1  0.602500  0.034300  0.434800  1.0
  H  H161  1  0.732100  0.524900  0.909300  1.0
  H  H162  1  0.232100  0.975100  0.590700  1.0
  H  H163  1  0.267900  0.475100  0.090700  1.0
  H  H164  1  0.767900  0.024900  0.409300  1.0
  H  H165  1  0.759300  0.386200  0.886200  1.0
  H  H166  1  0.259300  0.113800  0.613800  1.0
  H  H167  1  0.240700  0.613800  0.113800  1.0
  H  H168  1  0.740700  0.886200  0.386200  1.0
  H  H169  1  0.771900  0.425300  0.949100  1.0
  H  H170  1  0.271900  0.074700  0.550900  1.0
  H  H171  1  0.228100  0.574700  0.050900  1.0
  H  H172  1  0.728100  0.925300  0.449100  1.0
  H  H173  1  0.921600  0.397500  0.914500  1.0
  H  H174  1  0.421600  0.102500  0.585500  1.0
  H  H175  1  0.078400  0.602500  0.085500  1.0
  H  H176  1  0.578400  0.897500  0.414500  1.0
  H  H177  1  0.396300  0.090500  0.895300  1.0
  H  H178  1  0.896300  0.409500  0.604700  1.0
  H  H179  1  0.603700  0.909500  0.104700  1.0
  H  H180  1  0.103700  0.590500  0.395300  1.0
  Pd  Pd181  1  0.634800  0.010690  0.950330  1.0
  Pd  Pd182  1  0.134800  0.489310  0.549670  1.0
  Pd  Pd183  1  0.365200  0.989310  0.049670  1.0
  Pd  Pd184  1  0.865200  0.510690  0.450330  1.0
  C  C185  1  0.853100  0.986000  0.035660  1.0
  C  C186  1  0.353100  0.514000  0.464340  1.0
  C  C187  1  0.146900  0.014000  0.964340  1.0
  C  C188  1  0.646900  0.486000  0.535660  1.0
  C  C189  1  0.306400  0.823600  0.134270  1.0
  C  C190  1  0.806400  0.676400  0.365730  1.0
  C  C191  1  0.693600  0.176400  0.865730  1.0
  C  C192  1  0.193600  0.323600  0.634270  1.0
  C  C193  1  0.034000  0.961600  0.102680  1.0
  C  C194  1  0.534000  0.538400  0.397320  1.0
  C  C195  1  0.966000  0.038400  0.897320  1.0
  C  C196  1  0.466000  0.461600  0.602680  1.0
  C  C197  1  0.650100  0.872200  0.861610  1.0
  C  C198  1  0.150100  0.627800  0.638390  1.0
  C  C199  1  0.349900  0.127800  0.138390  1.0
  C  C200  1  0.849900  0.372200  0.361610  1.0
  C  C201  1  0.290700  0.937000  0.205330  1.0
  C  C202  1  0.790700  0.563000  0.294670  1.0
  C  C203  1  0.709300  0.063000  0.794670  1.0
  C  C204  1  0.209300  0.437000  0.705330  1.0
  C  C205  1  0.614300  0.152600  0.035830  1.0
  C  C206  1  0.114300  0.347400  0.464170  1.0
  C  C207  1  0.385700  0.847400  0.964170  1.0
  C  C208  1  0.885700  0.652600  0.535830  1.0
  C  C209  1  0.855600  0.212100  0.733880  1.0
  C  C210  1  0.355600  0.287900  0.766120  1.0
  C  C211  1  0.144400  0.787900  0.266120  1.0
  C  C212  1  0.644400  0.712100  0.233880  1.0
  C  C213  1  0.721100  0.105600  0.056160  1.0
  C  C214  1  0.221100  0.394400  0.443840  1.0
  C  C215  1  0.278900  0.894400  0.943840  1.0
  C  C216  1  0.778900  0.605600  0.556160  1.0
  C  C217  1  0.407300  0.816100  0.173820  1.0
  C  C218  1  0.907300  0.683900  0.326180  1.0
  C  C219  1  0.592700  0.183900  0.826180  1.0
  C  C220  1  0.092700  0.316100  0.673820  1.0
  C  C221  1  0.357500  0.948600  0.785330  1.0
  C  C222  1  0.857500  0.551400  0.714670  1.0
  C  C223  1  0.642500  0.051400  0.214670  1.0
  C  C224  1  0.142500  0.448600  0.285330  1.0
  C  C225  1  0.538400  0.919900  0.844620  1.0
  C  C226  1  0.038400  0.580100  0.655380  1.0
  C  C227  1  0.461600  0.080100  0.155380  1.0
  C  C228  1  0.961600  0.419900  0.344620  1.0
  C  C229  1  0.036500  0.171800  0.783820  1.0
  C  C230  1  0.536500  0.328200  0.716180  1.0
  C  C231  1  0.963500  0.828200  0.216180  1.0
  C  C232  1  0.463500  0.671800  0.283820  1.0
  C  C233  1  0.374500  0.302100  0.009260  1.0
  C  C234  1  0.874500  0.197900  0.490740  1.0
  C  C235  1  0.625500  0.697900  0.990740  1.0
  C  C236  1  0.125500  0.802100  0.509260  1.0
  C  C237  1  0.125300  0.931900  0.125450  1.0
  C  C238  1  0.625300  0.568100  0.374550  1.0
  C  C239  1  0.874700  0.068100  0.874550  1.0
  C  C240  1  0.374700  0.431900  0.625450  1.0
  C  C241  1  0.982600  0.248100  0.814190  1.0
  C  C242  1  0.482600  0.251900  0.685810  1.0
  C  C243  1  0.017400  0.751900  0.185810  1.0
  C  C244  1  0.517400  0.748100  0.314190  1.0
  C  C245  1  0.956600  0.149400  0.734060  1.0
  C  C246  1  0.456600  0.350600  0.765940  1.0
  C  C247  1  0.043400  0.850600  0.265940  1.0
  C  C248  1  0.543400  0.649400  0.234060  1.0
  C  C249  1  0.234000  0.899400  0.153050  1.0
  C  C250  1  0.734000  0.600600  0.346950  1.0
  C  C251  1  0.766000  0.100600  0.846950  1.0
  C  C252  1  0.266000  0.399400  0.653050  1.0
  C  C253  1  0.462000  0.897400  0.796800  1.0
  C  C254  1  0.962000  0.602600  0.703200  1.0
  C  C255  1  0.538000  0.102600  0.203200  1.0
  C  C256  1  0.038000  0.397400  0.296800  1.0
  C  C257  1  0.871900  0.272400  0.782610  1.0
  C  C258  1  0.371900  0.227600  0.717390  1.0
  C  C259  1  0.128100  0.727600  0.217390  1.0
  C  C260  1  0.628100  0.772400  0.282610  1.0
  C  C261  1  0.397800  0.884900  0.217920  1.0
  C  C262  1  0.897800  0.615100  0.282080  1.0
  C  C263  1  0.602200  0.115100  0.782080  1.0
  C  C264  1  0.102200  0.384900  0.717920  1.0
  C  C265  1  0.785200  0.131000  0.106110  1.0
  C  C266  1  0.285200  0.369000  0.393890  1.0
  C  C267  1  0.214800  0.869000  0.893890  1.0
  C  C268  1  0.714800  0.631000  0.606110  1.0
  C  C269  1  0.888200  0.082500  0.120910  1.0
  C  C270  1  0.388200  0.417500  0.379090  1.0
  C  C271  1  0.111800  0.917500  0.879090  1.0
  C  C272  1  0.611800  0.582500  0.620910  1.0
  C  C273  1  0.925800  0.008900  0.085620  1.0
  C  C274  1  0.425800  0.491100  0.414380  1.0
  C  C275  1  0.074200  0.991100  0.914380  1.0
  C  C276  1  0.574200  0.508900  0.585620  1.0
  C  C277  1  0.721100  0.801600  0.838800  1.0
  C  C278  1  0.221100  0.698400  0.661200  1.0
  C  C279  1  0.278900  0.198400  0.161200  1.0
  C  C280  1  0.778900  0.301600  0.338800  1.0
  C  C281  1  0.966200  0.581700  0.852480  1.0
  C  C282  1  0.466200  0.918300  0.647520  1.0
  C  C283  1  0.033800  0.418300  0.147520  1.0
  C  C284  1  0.533800  0.081700  0.352480  1.0
  C  C285  1  0.410800  0.325600  0.958960  1.0
  C  C286  1  0.910800  0.174400  0.541040  1.0
  C  C287  1  0.589200  0.674400  0.041040  1.0
  C  C288  1  0.089200  0.825600  0.458960  1.0
  C  C289  1  0.552700  0.227000  0.053470  1.0
  C  C290  1  0.052700  0.273000  0.446530  1.0
  C  C291  1  0.447300  0.773000  0.946530  1.0
  C  C292  1  0.947300  0.727000  0.553470  1.0
  C  C293  1  0.336100  0.405600  0.962390  1.0
  C  C294  1  0.836100  0.094400  0.537610  1.0
  C  C295  1  0.663900  0.594400  0.037610  1.0
  C  C296  1  0.163900  0.905600  0.462390  1.0
  C  C297  1  0.368000  0.433300  0.913200  1.0
  C  C298  1  0.868000  0.066700  0.586800  1.0
  C  C299  1  0.632000  0.566700  0.086800  1.0
  C  C300  1  0.132000  0.933300  0.413200  1.0
  C  C301  1  0.847700  0.648100  0.863090  1.0
  C  C302  1  0.347700  0.851900  0.636910  1.0
  C  C303  1  0.152300  0.351900  0.136910  1.0
  C  C304  1  0.652300  0.148100  0.363090  1.0
  C  C305  1  0.354700  0.546900  0.871800  1.0
  C  C306  1  0.854700  0.953100  0.628200  1.0
  C  C307  1  0.645300  0.453100  0.128200  1.0
  C  C308  1  0.145300  0.046900  0.371800  1.0
  C  C309  1  0.927000  0.727700  0.870930  1.0
  C  C310  1  0.427000  0.772300  0.629070  1.0
  C  C311  1  0.073000  0.272300  0.129070  1.0
  C  C312  1  0.573000  0.227700  0.370930  1.0
  C  C313  1  0.901700  0.501300  0.852460  1.0
  C  C314  1  0.401700  0.998700  0.647540  1.0
  C  C315  1  0.098300  0.498700  0.147540  1.0
  C  C316  1  0.598300  0.001300  0.352460  1.0
  C  C317  1  0.317000  0.518100  0.919730  1.0
  C  C318  1  0.817000  0.981900  0.580270  1.0
  C  C319  1  0.683000  0.481900  0.080270  1.0
  C  C320  1  0.183000  0.018100  0.419730  1.0
  C  C321  1  0.834000  0.500700  0.906100  1.0
  C  C322  1  0.334000  0.999300  0.593900  1.0
  C  C323  1  0.166000  0.499300  0.093900  1.0
  C  C324  1  0.666000  0.000700  0.406100  1.0
  C  C325  1  0.820500  0.420500  0.914700  1.0
  C  C326  1  0.320500  0.079500  0.585300  1.0
  C  C327  1  0.179500  0.579500  0.085300  1.0
  C  C328  1  0.679500  0.920500  0.414700  1.0
  C  C329  1  0.144200  0.122500  0.799470  1.0
  C  C330  1  0.644200  0.377500  0.700530  1.0
  C  C331  1  0.855800  0.877500  0.200530  1.0
  C  C332  1  0.355800  0.622500  0.299470  1.0
  C  C333  1  0.413000  0.040700  0.869940  1.0
  C  C334  1  0.913000  0.459300  0.630060  1.0
  C  C335  1  0.587000  0.959300  0.130060  1.0
  C  C336  1  0.087000  0.540700  0.369940  1.0
  C  C337  1  0.231200  0.078000  0.810550  1.0
  C  C338  1  0.731200  0.422000  0.689450  1.0
  C  C339  1  0.768800  0.922000  0.189450  1.0
  C  C340  1  0.268800  0.578000  0.310550  1.0
  C  C341  1  0.333333  0.022300  0.821710  1.0
  C  C342  1  0.833333  0.477700  0.678290  1.0
  C  C343  1  0.666667  0.977700  0.178290  1.0
  C  C344  1  0.166667  0.522300  0.321710  1.0
  N  N345  1  0.558400  0.119230  0.986450  1.0
  N  N346  1  0.058400  0.380770  0.513550  1.0
  N  N347  1  0.441600  0.880770  0.013550  1.0
  N  N348  1  0.941600  0.619230  0.486450  1.0
  N  N349  1  0.753300  0.033910  0.021440  1.0
  N  N350  1  0.253300  0.466090  0.478560  1.0
  N  N351  1  0.246700  0.966090  0.978560  1.0
  N  N352  1  0.746700  0.533910  0.521440  1.0
  N  N353  1  0.708200  0.901410  0.911480  1.0
  N  N354  1  0.208200  0.598590  0.588520  1.0
  N  N355  1  0.291800  0.098590  0.088520  1.0
  N  N356  1  0.791800  0.401410  0.411480  1.0
  N  N357  1  0.811200  0.852450  0.921270  1.0
  N  N358  1  0.311200  0.647550  0.578730  1.0
  N  N359  1  0.188800  0.147550  0.078730  1.0
  N  N360  1  0.688800  0.352450  0.421270  1.0
  N  N361  1  0.512000  0.990390  0.881440  1.0
  N  N362  1  0.012000  0.509610  0.618560  1.0
  N  N363  1  0.488000  0.009610  0.118560  1.0
  N  N364  1  0.988000  0.490390  0.381440  1.0
  N  N365  1  0.466700  0.168400  0.972060  1.0
  N  N366  1  0.966700  0.331600  0.527940  1.0
  N  N367  1  0.533300  0.831600  0.027940  1.0
  N  N368  1  0.033300  0.668400  0.472060  1.0
  N  N369  1  0.817100  0.792930  0.876700  1.0
  N  N370  1  0.317100  0.707070  0.623300  1.0
  N  N371  1  0.182900  0.207070  0.123300  1.0
  N  N372  1  0.682900  0.292930  0.376700  1.0
  N  N373  1  0.464800  0.233260  0.012910  1.0
  N  N374  1  0.964800  0.266740  0.487090  1.0
  N  N375  1  0.535200  0.766740  0.987090  1.0
  N  N376  1  0.035200  0.733260  0.512910  1.0
  F  F377  1  0.780400  0.280360  0.983950  1
  F  F378  1  0.280400  0.219640  0.516050  1
  F  F379  1  0.219600  0.719640  0.016050  1
  F  F380  1  0.719600  0.780360  0.483950  1
  F  F381  1  0.003100  0.323990  0.025110  1
  F  F382  1  0.503100  0.176010  0.474890  1
  F  F383  1  0.996900  0.676010  0.974890  1
  F  F384  1  0.496900  0.823990  0.525110  1
  F  F385  1  0.940900  0.193510  0.004790  1
  F  F386  1  0.440900  0.306490  0.495210  1
  F  F387  1  0.059100  0.806490  0.995210  1
  F  F388  1  0.559100  0.693510  0.504790  1
  F  F389  1  0.004700  0.250400  0.939690  1
  F  F390  1  0.504700  0.249600  0.560310  1
  F  F391  1  0.995300  0.749600  0.060310  1
  F  F392  1  0.495300  0.750400  0.439690  1
  F  F393  1  0.984200  0.792550  0.760620  1
  F  F394  1  0.484200  0.707450  0.739380  1
  F  F395  1  0.015800  0.207450  0.239380  1
  F  F396  1  0.515800  0.292550  0.260620  1
  F  F397  1  0.913800  0.783160  0.675830  1
  F  F398  1  0.413800  0.716840  0.824170  1
  F  F399  1  0.086200  0.216840  0.324170  1
  F  F400  1  0.586200  0.283160  0.175830  1
  F  F401  1  0.788400  0.866600  0.743930  1
  F  F402  1  0.288400  0.633400  0.756070  1
  F  F403  1  0.211600  0.133400  0.256070  1
  F  F404  1  0.711600  0.366600  0.243930  1
  F  F405  1  0.027800  0.893600  0.725500  1
  F  F406  1  0.527800  0.606400  0.774500  1
  F  F407  1  0.972200  0.106400  0.274500  1
  F  F408  1  0.472200  0.393600  0.225500  1
