# generated using pymatgen
data_H120Pd3C156N29O45
_symmetry_space_group_name_H-M   'P 1'
_cell_length_a   19.84100000
_cell_length_b   19.84100000
_cell_length_c   27.85000000
_cell_angle_alpha   90.00000000
_cell_angle_beta   90.00000000
_cell_angle_gamma   120.00000000
_symmetry_Int_Tables_number   1
_chemical_formula_structural   H120Pd3C156N29O45
_chemical_formula_sum   'H240 Pd6 C312 N58 O90'
_cell_volume   9494.73713006
_cell_formula_units_Z   2
loop_
 _symmetry_equiv_pos_site_id
 _symmetry_equiv_pos_as_xyz
  1  'x, y, z'
loop_
 _atom_site_type_symbol
 _atom_site_label
 _atom_site_symmetry_multiplicity
 _atom_site_fract_x
 _atom_site_fract_y
 _atom_site_fract_z
 _atom_site_occupancy
  H  H1  1  0.021600  0.544600  0.317300  1
  H  H2  1  0.523000  0.978400  0.317300  1
  H  H3  1  0.455400  0.477000  0.317300  1
  H  H4  1  0.978400  0.455400  0.682700  1
  H  H5  1  0.477000  0.021600  0.682700  1
  H  H6  1  0.544600  0.523000  0.682700  1
  H  H7  1  0.100100  0.623800  0.304200  1
  H  H8  1  0.523700  0.899900  0.304200  1
  H  H9  1  0.376200  0.476300  0.304200  1
  H  H10  1  0.899900  0.376200  0.695800  1
  H  H11  1  0.476300  0.100100  0.695800  1
  H  H12  1  0.623800  0.523700  0.695800  1
  H  H13  1  0.067000  0.470500  0.287500  1
  H  H14  1  0.403500  0.933000  0.287500  1
  H  H15  1  0.529500  0.596500  0.287500  1
  H  H16  1  0.933000  0.529500  0.712500  1
  H  H17  1  0.596500  0.067000  0.712500  1
  H  H18  1  0.470500  0.403500  0.712500  1
  H  H19  1  0.151300  0.547600  0.292000  1
  H  H20  1  0.396300  0.848700  0.292000  1
  H  H21  1  0.452400  0.603700  0.292000  1
  H  H22  1  0.848700  0.452400  0.708000  1
  H  H23  1  0.603700  0.151300  0.708000  1
  H  H24  1  0.547600  0.396300  0.708000  1
  H  H25  1  0.160100  0.559600  0.211500  1
  H  H26  1  0.399500  0.839900  0.211500  1
  H  H27  1  0.440400  0.600500  0.211500  1
  H  H28  1  0.839900  0.440400  0.788500  1
  H  H29  1  0.600500  0.160100  0.788500  1
  H  H30  1  0.559600  0.399500  0.788500  1
  H  H31  1  0.078500  0.479400  0.207000  1
  H  H32  1  0.400900  0.921500  0.207000  1
  H  H33  1  0.520600  0.599100  0.207000  1
  H  H34  1  0.921500  0.520600  0.793000  1
  H  H35  1  0.599100  0.078500  0.793000  1
  H  H36  1  0.479400  0.400900  0.793000  1
  H  H37  1  0.104400  0.629600  0.198100  1
  H  H38  1  0.525200  0.895600  0.198100  1
  H  H39  1  0.370400  0.474800  0.198100  1
  H  H40  1  0.895600  0.370400  0.801900  1
  H  H41  1  0.474800  0.104400  0.801900  1
  H  H42  1  0.629600  0.525200  0.801900  1
  H  H43  1  0.028700  0.550300  0.181700  1
  H  H44  1  0.521600  0.971300  0.181700  1
  H  H45  1  0.449700  0.478400  0.181700  1
  H  H46  1  0.971300  0.449700  0.818300  1
  H  H47  1  0.478400  0.028700  0.818300  1
  H  H48  1  0.550300  0.521600  0.818300  1
  H  H49  1  0.220300  0.808600  0.073000  1
  H  H50  1  0.588300  0.779700  0.073000  1
  H  H51  1  0.191400  0.411700  0.073000  1
  H  H52  1  0.779700  0.191400  0.927000  1
  H  H53  1  0.411700  0.220300  0.927000  1
  H  H54  1  0.808600  0.588300  0.927000  1
  H  H55  1  0.139500  0.730000  0.082800  1
  H  H56  1  0.590500  0.860500  0.082800  1
  H  H57  1  0.270000  0.409500  0.082800  1
  H  H58  1  0.860500  0.270000  0.917200  1
  H  H59  1  0.409500  0.139500  0.917200  1
  H  H60  1  0.730000  0.590500  0.917200  1
  H  H61  1  0.290100  0.754600  0.097300  1
  H  H62  1  0.464500  0.709900  0.097300  1
  H  H63  1  0.245400  0.535500  0.097300  1
  H  H64  1  0.709900  0.245400  0.902700  1
  H  H65  1  0.535500  0.290100  0.902700  1
  H  H66  1  0.754600  0.464500  0.902700  1
  H  H67  1  0.210500  0.672300  0.093400  1
  H  H68  1  0.461800  0.789500  0.093400  1
  H  H69  1  0.327700  0.538200  0.093400  1
  H  H70  1  0.789500  0.327700  0.906600  1
  H  H71  1  0.538200  0.210500  0.906600  1
  H  H72  1  0.672300  0.461800  0.906600  1
  H  H73  1  0.196000  0.663200  0.174700  1
  H  H74  1  0.467200  0.804000  0.174700  1
  H  H75  1  0.336800  0.532800  0.174700  1
  H  H76  1  0.804000  0.336800  0.825300  1
  H  H77  1  0.532800  0.196000  0.825300  1
  H  H78  1  0.663200  0.467200  0.825300  1
  H  H79  1  0.284200  0.734800  0.178100  1
  H  H80  1  0.450600  0.715800  0.178100  1
  H  H81  1  0.265200  0.549400  0.178100  1
  H  H82  1  0.715800  0.265200  0.821900  1
  H  H83  1  0.549400  0.284200  0.821900  1
  H  H84  1  0.734800  0.450600  0.821900  1
  H  H85  1  0.157100  0.741600  0.200200  1
  H  H86  1  0.584500  0.842900  0.200200  1
  H  H87  1  0.258400  0.415500  0.200200  1
  H  H88  1  0.842900  0.258400  0.799800  1
  H  H89  1  0.415500  0.157100  0.799800  1
  H  H90  1  0.741600  0.584500  0.799800  1
  H  H91  1  0.243400  0.814300  0.197200  1
  H  H92  1  0.570900  0.756600  0.197200  1
  H  H93  1  0.185700  0.429100  0.197200  1
  H  H94  1  0.756600  0.185700  0.802800  1
  H  H95  1  0.429100  0.243400  0.802800  1
  H  H96  1  0.814300  0.570900  0.802800  1
  H  H97  1  0.179800  0.494900  0.508000  1.0
  H  H98  1  0.315100  0.820200  0.508000  1.0
  H  H99  1  0.505100  0.684900  0.508000  1.0
  H  H100  1  0.820200  0.505100  0.492000  1.0
  H  H101  1  0.684900  0.179800  0.492000  1.0
  H  H102  1  0.494900  0.315100  0.492000  1.0
  H  H103  1  0.121900  0.697000  0.512600  1.0
  H  H104  1  0.575100  0.878100  0.512600  1.0
  H  H105  1  0.303000  0.424900  0.512600  1.0
  H  H106  1  0.878100  0.303000  0.487400  1.0
  H  H107  1  0.424900  0.121900  0.487400  1.0
  H  H108  1  0.697000  0.575100  0.487400  1.0
  H  H109  1  0.237300  0.591800  0.562100  1.0
  H  H110  1  0.354500  0.762700  0.562100  1.0
  H  H111  1  0.408200  0.645500  0.562100  1.0
  H  H112  1  0.762700  0.408200  0.437900  1.0
  H  H113  1  0.645500  0.237300  0.437900  1.0
  H  H114  1  0.591800  0.354500  0.437900  1.0
  H  H115  1  0.209200  0.693300  0.566300  1.0
  H  H116  1  0.484100  0.790800  0.566300  1.0
  H  H117  1  0.306700  0.515900  0.566300  1.0
  H  H118  1  0.790800  0.306700  0.433700  1.0
  H  H119  1  0.515900  0.209200  0.433700  1.0
  H  H120  1  0.693300  0.484100  0.433700  1.0
  H  H121  1  0.928200  0.417000  0.365400  1.0
  H  H122  1  0.488800  0.071800  0.365400  1.0
  H  H123  1  0.583000  0.511200  0.365400  1.0
  H  H124  1  0.071800  0.583000  0.634600  1.0
  H  H125  1  0.511200  0.928200  0.634600  1.0
  H  H126  1  0.417000  0.488800  0.634600  1.0
  H  H127  1  0.052100  0.307400  0.365800  1.0
  H  H128  1  0.255300  0.947900  0.365800  1.0
  H  H129  1  0.692600  0.744700  0.365800  1.0
  H  H130  1  0.947900  0.692600  0.634200  1.0
  H  H131  1  0.744700  0.052100  0.634200  1.0
  H  H132  1  0.307400  0.255300  0.634200  1.0
  H  H133  1  0.866400  0.490700  0.373900  1.0
  H  H134  1  0.624300  0.133600  0.373900  1.0
  H  H135  1  0.509300  0.375700  0.373900  1.0
  H  H136  1  0.133600  0.509300  0.626100  1.0
  H  H137  1  0.375700  0.866400  0.626100  1.0
  H  H138  1  0.490700  0.624300  0.626100  1.0
  H  H139  1  0.796200  0.508800  0.311800  1.0
  H  H140  1  0.712600  0.203800  0.311800  1.0
  H  H141  1  0.491200  0.287400  0.311800  1.0
  H  H142  1  0.203800  0.491200  0.688200  1.0
  H  H143  1  0.287400  0.796200  0.688200  1.0
  H  H144  1  0.508800  0.712600  0.688200  1.0
  H  H145  1  0.023500  0.723100  0.362000  1.0
  H  H146  1  0.699600  0.976500  0.362000  1.0
  H  H147  1  0.276900  0.300400  0.362000  1.0
  H  H148  1  0.976500  0.276900  0.638000  1.0
  H  H149  1  0.300400  0.023500  0.638000  1.0
  H  H150  1  0.723100  0.699600  0.638000  1.0
  H  H151  1  0.177600  0.494100  0.992900  1.0
  H  H152  1  0.316500  0.822400  0.992900  1.0
  H  H153  1  0.505900  0.683500  0.992900  1.0
  H  H154  1  0.822400  0.505900  0.007100  1.0
  H  H155  1  0.683500  0.177600  0.007100  1.0
  H  H156  1  0.494100  0.316500  0.007100  1.0
  H  H157  1  0.237600  0.592700  0.936700  1.0
  H  H158  1  0.355100  0.762400  0.936700  1.0
  H  H159  1  0.407300  0.644900  0.936700  1.0
  H  H160  1  0.762400  0.407300  0.063300  1.0
  H  H161  1  0.644900  0.237600  0.063300  1.0
  H  H162  1  0.592700  0.355100  0.063300  1.0
  H  H163  1  0.120300  0.696200  0.987600  1.0
  H  H164  1  0.575900  0.879700  0.987600  1.0
  H  H165  1  0.303800  0.424100  0.987600  1.0
  H  H166  1  0.879700  0.303800  0.012400  1.0
  H  H167  1  0.424100  0.120300  0.012400  1.0
  H  H168  1  0.696200  0.575900  0.012400  1.0
  H  H169  1  0.947800  0.727700  0.200800  1.0
  H  H170  1  0.779900  0.052200  0.200800  1.0
  H  H171  1  0.272300  0.220100  0.200800  1.0
  H  H172  1  0.052200  0.272300  0.799200  1.0
  H  H173  1  0.220100  0.947800  0.799200  1.0
  H  H174  1  0.727700  0.779900  0.799200  1.0
  H  H175  1  0.794000  0.505300  0.187600  1.0
  H  H176  1  0.711300  0.206000  0.187600  1.0
  H  H177  1  0.494700  0.288700  0.187600  1.0
  H  H178  1  0.206000  0.494700  0.812400  1.0
  H  H179  1  0.288700  0.794000  0.812400  1.0
  H  H180  1  0.505300  0.711300  0.812400  1.0
  H  H181  1  0.866300  0.488900  0.125300  1.0
  H  H182  1  0.622600  0.133700  0.125300  1.0
  H  H183  1  0.511100  0.377400  0.125300  1.0
  H  H184  1  0.133700  0.511100  0.874700  1.0
  H  H185  1  0.377400  0.866300  0.874700  1.0
  H  H186  1  0.488900  0.622600  0.874700  1.0
  H  H187  1  0.208900  0.689800  0.933800  1.0
  H  H188  1  0.480900  0.791100  0.933800  1.0
  H  H189  1  0.310200  0.519100  0.933800  1.0
  H  H190  1  0.791100  0.310200  0.066200  1.0
  H  H191  1  0.519100  0.208900  0.066200  1.0
  H  H192  1  0.689800  0.480900  0.066200  1.0
  H  H193  1  0.027000  0.718500  0.139400  1.0
  H  H194  1  0.691500  0.973000  0.139400  1.0
  H  H195  1  0.281500  0.308500  0.139400  1.0
  H  H196  1  0.973000  0.281500  0.860600  1.0
  H  H197  1  0.308500  0.027000  0.860600  1.0
  H  H198  1  0.718500  0.691500  0.860600  1.0
  H  H199  1  0.948200  0.725100  0.297300  1.0
  H  H200  1  0.776900  0.051800  0.297300  1.0
  H  H201  1  0.274900  0.223100  0.297300  1.0
  H  H202  1  0.051800  0.274900  0.702700  1.0
  H  H203  1  0.223100  0.948200  0.702700  1.0
  H  H204  1  0.725100  0.776900  0.702700  1.0
  H  H205  1  0.963100  0.228700  0.304400  1.0
  H  H206  1  0.265600  0.036900  0.304400  1.0
  H  H207  1  0.771300  0.734400  0.304400  1.0
  H  H208  1  0.036900  0.771300  0.695600  1.0
  H  H209  1  0.734400  0.963100  0.695600  1.0
  H  H210  1  0.228700  0.265600  0.695600  1.0
  H  H211  1  0.841000  0.329700  0.308800  1.0
  H  H212  1  0.488700  0.159000  0.308800  1.0
  H  H213  1  0.670300  0.511300  0.308800  1.0
  H  H214  1  0.159000  0.670300  0.691200  1.0
  H  H215  1  0.511300  0.841000  0.691200  1.0
  H  H216  1  0.329700  0.488700  0.691200  1.0
  H  H217  1  0.966300  0.229500  0.193100  1.0
  H  H218  1  0.263200  0.033700  0.193100  1.0
  H  H219  1  0.770500  0.736800  0.193100  1.0
  H  H220  1  0.033700  0.770500  0.806900  1.0
  H  H221  1  0.736800  0.966300  0.806900  1.0
  H  H222  1  0.229500  0.263200  0.806900  1.0
  H  H223  1  0.049500  0.311200  0.135400  1.0
  H  H224  1  0.261700  0.950500  0.135400  1.0
  H  H225  1  0.688800  0.738300  0.135400  1.0
  H  H226  1  0.950500  0.688800  0.864600  1.0
  H  H227  1  0.738300  0.049500  0.864600  1.0
  H  H228  1  0.311200  0.261700  0.864600  1.0
  H  H229  1  0.843000  0.333800  0.193400  1.0
  H  H230  1  0.490800  0.157000  0.193400  1.0
  H  H231  1  0.666200  0.509200  0.193400  1.0
  H  H232  1  0.157000  0.666200  0.806600  1.0
  H  H233  1  0.509200  0.843000  0.806600  1.0
  H  H234  1  0.333800  0.490800  0.806600  1.0
  H  H235  1  0.920800  0.413000  0.130200  1.0
  H  H236  1  0.492200  0.079200  0.130200  1.0
  H  H237  1  0.587000  0.507800  0.130200  1.0
  H  H238  1  0.079200  0.587000  0.869800  1.0
  H  H239  1  0.507800  0.920800  0.869800  1.0
  H  H240  1  0.413000  0.492200  0.869800  1.0
  Pd  Pd241  1  0.798200  0.625510  0.249994  1.0
  Pd  Pd242  1  0.827310  0.201800  0.249994  1.0
  Pd  Pd243  1  0.374490  0.172690  0.249994  1.0
  Pd  Pd244  1  0.201800  0.374490  0.750006  1.0
  Pd  Pd245  1  0.172690  0.798200  0.750006  1.0
  Pd  Pd246  1  0.625510  0.827310  0.750006  1.0
  C  C247  1  0.060700  0.572100  0.291800  1
  C  C248  1  0.511400  0.939300  0.291800  1
  C  C249  1  0.427900  0.488600  0.291800  1
  C  C250  1  0.939300  0.427900  0.708200  1
  C  C251  1  0.488600  0.060700  0.708200  1
  C  C252  1  0.572100  0.511400  0.708200  1
  C  C253  1  0.099000  0.525500  0.277300  1
  C  C254  1  0.426500  0.901000  0.277300  1
  C  C255  1  0.474500  0.573500  0.277300  1
  C  C256  1  0.901000  0.474500  0.722700  1
  C  C257  1  0.573500  0.099000  0.722700  1
  C  C258  1  0.525500  0.426500  0.722700  1
  C  C259  1  0.105000  0.531700  0.221900  1
  C  C260  1  0.426700  0.895000  0.221900  1
  C  C261  1  0.468300  0.573300  0.221900  1
  C  C262  1  0.895000  0.468300  0.778100  1
  C  C263  1  0.573300  0.105000  0.778100  1
  C  C264  1  0.531700  0.426700  0.778100  1
  C  C265  1  0.065400  0.576600  0.208600  1
  C  C266  1  0.511200  0.934600  0.208600  1
  C  C267  1  0.423400  0.488800  0.208600  1
  C  C268  1  0.934600  0.423400  0.791400  1
  C  C269  1  0.488800  0.065400  0.791400  1
  C  C270  1  0.576600  0.511200  0.791400  1
  C  C271  1  0.191000  0.767300  0.096900  1
  C  C272  1  0.576300  0.809000  0.096900  1
  C  C273  1  0.232700  0.423700  0.096900  1
  C  C274  1  0.809000  0.232700  0.903100  1
  C  C275  1  0.423700  0.191000  0.903100  1
  C  C276  1  0.767300  0.576300  0.903100  1
  C  C277  1  0.236000  0.724800  0.108600  1
  C  C278  1  0.488800  0.764000  0.108600  1
  C  C279  1  0.275200  0.511200  0.108600  1
  C  C280  1  0.764000  0.275200  0.891400  1
  C  C281  1  0.511200  0.236000  0.891400  1
  C  C282  1  0.724800  0.488800  0.891400  1
  C  C283  1  0.232000  0.717300  0.164300  1
  C  C284  1  0.485300  0.768000  0.164300  1
  C  C285  1  0.282700  0.514700  0.164300  1
  C  C286  1  0.768000  0.282700  0.835700  1
  C  C287  1  0.514700  0.232000  0.835700  1
  C  C288  1  0.717300  0.485300  0.835700  1
  C  C289  1  0.202000  0.770000  0.178600  1
  C  C290  1  0.568000  0.798000  0.178600  1
  C  C291  1  0.230000  0.432000  0.178600  1
  C  C292  1  0.798000  0.230000  0.821400  1
  C  C293  1  0.432000  0.202000  0.821400  1
  C  C294  1  0.770000  0.568000  0.821400  1
  C  C295  1  0.855000  0.442000  0.237700  1
  C  C296  1  0.587000  0.145000  0.237700  1
  C  C297  1  0.558000  0.413000  0.237700  1
  C  C298  1  0.145000  0.558000  0.762300  1
  C  C299  1  0.413000  0.855000  0.762300  1
  C  C300  1  0.442000  0.587000  0.762300  1
  C  C301  1  0.785900  0.366400  0.248400  1
  C  C302  1  0.580500  0.214100  0.248400  1
  C  C303  1  0.633600  0.419500  0.248400  1
  C  C304  1  0.214100  0.633600  0.751600  1
  C  C305  1  0.419500  0.785900  0.751600  1
  C  C306  1  0.366400  0.580500  0.751600  1
  C  C307  1  0.854000  0.420000  0.253000  1
  C  C308  1  0.566000  0.146000  0.253000  1
  C  C309  1  0.580000  0.434000  0.253000  1
  C  C310  1  0.146000  0.580000  0.747000  1
  C  C311  1  0.434000  0.854000  0.747000  1
  C  C312  1  0.420000  0.566000  0.747000  1
  C  C313  1  0.772100  0.400200  0.249900  1
  C  C314  1  0.628100  0.227900  0.249900  1
  C  C315  1  0.599800  0.371900  0.249900  1
  C  C316  1  0.227900  0.599800  0.750100  1
  C  C317  1  0.371900  0.772100  0.750100  1
  C  C318  1  0.400200  0.628100  0.750100  1
  C  C319  1  0.111600  0.533900  0.476100  1.0
  C  C320  1  0.422300  0.888400  0.476100  1.0
  C  C321  1  0.466100  0.577700  0.476100  1.0
  C  C322  1  0.888400  0.466100  0.523900  1.0
  C  C323  1  0.577700  0.111600  0.523900  1.0
  C  C324  1  0.533900  0.422300  0.523900  1.0
  C  C325  1  0.094700  0.596200  0.476400  1.0
  C  C326  1  0.501500  0.905300  0.476400  1.0
  C  C327  1  0.403800  0.498500  0.476400  1.0
  C  C328  1  0.905300  0.403800  0.523600  1.0
  C  C329  1  0.498500  0.094700  0.523600  1.0
  C  C330  1  0.596200  0.501500  0.523600  1.0
  C  C331  1  0.167000  0.535100  0.508700  1.0
  C  C332  1  0.368100  0.833000  0.508700  1.0
  C  C333  1  0.464900  0.631900  0.508700  1.0
  C  C334  1  0.833000  0.464900  0.491300  1.0
  C  C335  1  0.631900  0.167000  0.491300  1.0
  C  C336  1  0.535100  0.368100  0.491300  1.0
  C  C337  1  0.042100  0.596700  0.442000  1.0
  C  C338  1  0.554600  0.957900  0.442000  1.0
  C  C339  1  0.403300  0.445400  0.442000  1.0
  C  C340  1  0.957900  0.403300  0.558000  1.0
  C  C341  1  0.445400  0.042100  0.558000  1.0
  C  C342  1  0.596700  0.554600  0.558000  1.0
  C  C343  1  0.036700  0.424800  0.411900  1.0
  C  C344  1  0.388100  0.963300  0.411900  1.0
  C  C345  1  0.575200  0.611900  0.411900  1.0
  C  C346  1  0.963300  0.575200  0.588100  1.0
  C  C347  1  0.611900  0.036700  0.588100  1.0
  C  C348  1  0.424800  0.388100  0.588100  1.0
  C  C349  1  0.132600  0.655400  0.511200  1.0
  C  C350  1  0.522800  0.867400  0.511200  1.0
  C  C351  1  0.344600  0.477200  0.511200  1.0
  C  C352  1  0.867400  0.344600  0.488800  1.0
  C  C353  1  0.477200  0.132600  0.488800  1.0
  C  C354  1  0.655400  0.522800  0.488800  1.0
  C  C355  1  0.073700  0.473300  0.441100  1.0
  C  C356  1  0.399600  0.926300  0.441100  1.0
  C  C357  1  0.526700  0.600400  0.441100  1.0
  C  C358  1  0.926300  0.526700  0.558900  1.0
  C  C359  1  0.600400  0.073700  0.558900  1.0
  C  C360  1  0.473300  0.399600  0.558900  1.0
  C  C361  1  0.200700  0.592200  0.540300  1.0
  C  C362  1  0.391500  0.799300  0.540300  1.0
  C  C363  1  0.407800  0.608500  0.540300  1.0
  C  C364  1  0.799300  0.407800  0.459700  1.0
  C  C365  1  0.608500  0.200700  0.459700  1.0
  C  C366  1  0.592200  0.391500  0.459700  1.0
  C  C367  1  0.184400  0.653600  0.542900  1.0
  C  C368  1  0.469200  0.815600  0.542900  1.0
  C  C369  1  0.346400  0.530800  0.542900  1.0
  C  C370  1  0.815600  0.346400  0.457100  1.0
  C  C371  1  0.530800  0.184400  0.457100  1.0
  C  C372  1  0.653600  0.469200  0.457100  1.0
  C  C373  1  0.992200  0.374300  0.374000  1.0
  C  C374  1  0.382100  0.007800  0.374000  1.0
  C  C375  1  0.625700  0.617900  0.374000  1.0
  C  C376  1  0.007800  0.625700  0.626000  1.0
  C  C377  1  0.617900  0.992200  0.626000  1.0
  C  C378  1  0.374300  0.382100  0.626000  1.0
  C  C379  1  0.936800  0.376300  0.354900  1.0
  C  C380  1  0.439500  0.063200  0.354900  1.0
  C  C381  1  0.623700  0.560500  0.354900  1.0
  C  C382  1  0.063200  0.623700  0.645100  1.0
  C  C383  1  0.560500  0.936800  0.645100  1.0
  C  C384  1  0.376300  0.439500  0.645100  1.0
  C  C385  1  0.010400  0.314100  0.355100  1.0
  C  C386  1  0.303700  0.989600  0.355100  1.0
  C  C387  1  0.685900  0.696300  0.355100  1.0
  C  C388  1  0.989600  0.685900  0.644900  1.0
  C  C389  1  0.696300  0.010400  0.644900  1.0
  C  C390  1  0.314100  0.303700  0.644900  1.0
  C  C391  1  0.998500  0.600500  0.413400  1.0
  C  C392  1  0.602000  0.001500  0.413400  1.0
  C  C393  1  0.399500  0.398000  0.413400  1.0
  C  C394  1  0.001500  0.399500  0.586600  1.0
  C  C395  1  0.398000  0.998500  0.586600  1.0
  C  C396  1  0.600500  0.602000  0.586600  1.0
  C  C397  1  0.953500  0.607000  0.376200  1.0
  C  C398  1  0.653500  0.046500  0.376200  1.0
  C  C399  1  0.393000  0.346500  0.376200  1.0
  C  C400  1  0.046500  0.393000  0.623800  1.0
  C  C401  1  0.346500  0.953500  0.623800  1.0
  C  C402  1  0.607000  0.653500  0.623800  1.0
  C  C403  1  0.884300  0.540600  0.360100  1.0
  C  C404  1  0.656300  0.115700  0.360100  1.0
  C  C405  1  0.459400  0.343700  0.360100  1.0
  C  C406  1  0.115700  0.459400  0.639900  1.0
  C  C407  1  0.343700  0.884300  0.639900  1.0
  C  C408  1  0.540600  0.656300  0.639900  1.0
  C  C409  1  0.843400  0.552400  0.322500  1.0
  C  C410  1  0.709000  0.156600  0.322500  1.0
  C  C411  1  0.447600  0.291000  0.322500  1.0
  C  C412  1  0.156600  0.447600  0.677500  1.0
  C  C413  1  0.291000  0.843400  0.677500  1.0
  C  C414  1  0.552400  0.709000  0.677500  1.0
  C  C415  1  0.977300  0.677100  0.352700  1.0
  C  C416  1  0.699800  0.022700  0.352700  1.0
  C  C417  1  0.322900  0.300200  0.352700  1.0
  C  C418  1  0.022700  0.322900  0.647300  1.0
  C  C419  1  0.300200  0.977300  0.647300  1.0
  C  C420  1  0.677100  0.699800  0.647300  1.0
  C  C421  1  0.110900  0.534200  0.023800  1.0
  C  C422  1  0.423300  0.889100  0.023800  1.0
  C  C423  1  0.465800  0.576700  0.023800  1.0
  C  C424  1  0.889100  0.465800  0.976200  1.0
  C  C425  1  0.576700  0.110900  0.976200  1.0
  C  C426  1  0.534200  0.423300  0.976200  1.0
  C  C427  1  0.094800  0.595600  0.023200  1.0
  C  C428  1  0.500800  0.905200  0.023200  1.0
  C  C429  1  0.404400  0.499200  0.023200  1.0
  C  C430  1  0.905200  0.404400  0.976800  1.0
  C  C431  1  0.499200  0.094800  0.976800  1.0
  C  C432  1  0.595600  0.500800  0.976800  1.0
  C  C433  1  0.955800  0.608400  0.124000  1.0
  C  C434  1  0.652600  0.044200  0.124000  1.0
  C  C435  1  0.391600  0.347400  0.124000  1.0
  C  C436  1  0.044200  0.391600  0.876000  1.0
  C  C437  1  0.347400  0.955800  0.876000  1.0
  C  C438  1  0.608400  0.652600  0.876000  1.0
  C  C439  1  0.165300  0.534600  0.991700  1.0
  C  C440  1  0.369300  0.834700  0.991700  1.0
  C  C441  1  0.465400  0.630700  0.991700  1.0
  C  C442  1  0.834700  0.465400  0.008300  1.0
  C  C443  1  0.630700  0.165300  0.008300  1.0
  C  C444  1  0.534600  0.369300  0.008300  1.0
  C  C445  1  0.201000  0.592900  0.958600  1.0
  C  C446  1  0.391900  0.799000  0.958600  1.0
  C  C447  1  0.407100  0.608100  0.958600  1.0
  C  C448  1  0.799000  0.407100  0.041400  1.0
  C  C449  1  0.608100  0.201000  0.041400  1.0
  C  C450  1  0.592900  0.391900  0.041400  1.0
  C  C451  1  0.998300  0.599600  0.087000  1.0
  C  C452  1  0.601300  0.001700  0.087000  1.0
  C  C453  1  0.400400  0.398700  0.087000  1.0
  C  C454  1  0.001700  0.400400  0.913000  1.0
  C  C455  1  0.398700  0.998300  0.913000  1.0
  C  C456  1  0.599600  0.601300  0.913000  1.0
  C  C457  1  0.131000  0.654600  0.989300  1.0
  C  C458  1  0.523600  0.869000  0.989300  1.0
  C  C459  1  0.345400  0.476400  0.989300  1.0
  C  C460  1  0.869000  0.345400  0.010700  1.0
  C  C461  1  0.476400  0.131000  0.010700  1.0
  C  C462  1  0.654600  0.523600  0.010700  1.0
  C  C463  1  0.042600  0.599900  0.058000  1.0
  C  C464  1  0.557300  0.957400  0.058000  1.0
  C  C465  1  0.400100  0.442700  0.058000  1.0
  C  C466  1  0.957400  0.400100  0.942000  1.0
  C  C467  1  0.442700  0.042600  0.942000  1.0
  C  C468  1  0.599900  0.557300  0.942000  1.0
  C  C469  1  0.931200  0.679300  0.185200  1.0
  C  C470  1  0.748100  0.068800  0.185200  1.0
  C  C471  1  0.320700  0.251900  0.185200  1.0
  C  C472  1  0.068800  0.320700  0.814800  1.0
  C  C473  1  0.251900  0.931200  0.814800  1.0
  C  C474  1  0.679300  0.748100  0.814800  1.0
  C  C475  1  0.072400  0.472300  0.059300  1.0
  C  C476  1  0.399900  0.927600  0.059300  1.0
  C  C477  1  0.527700  0.600100  0.059300  1.0
  C  C478  1  0.927600  0.527700  0.940700  1.0
  C  C479  1  0.600100  0.072400  0.940700  1.0
  C  C480  1  0.472300  0.399900  0.940700  1.0
  C  C481  1  0.841200  0.548800  0.176900  1.0
  C  C482  1  0.707600  0.158800  0.176900  1.0
  C  C483  1  0.451200  0.292400  0.176900  1.0
  C  C484  1  0.158800  0.451200  0.823100  1.0
  C  C485  1  0.292400  0.841200  0.823100  1.0
  C  C486  1  0.548800  0.707600  0.823100  1.0
  C  C487  1  0.883500  0.538400  0.139600  1.0
  C  C488  1  0.654900  0.116500  0.139600  1.0
  C  C489  1  0.461600  0.345100  0.139600  1.0
  C  C490  1  0.116500  0.461600  0.860400  1.0
  C  C491  1  0.345100  0.883500  0.860400  1.0
  C  C492  1  0.538400  0.654900  0.860400  1.0
  C  C493  1  0.184100  0.650200  0.957300  1.0
  C  C494  1  0.466100  0.815900  0.957300  1.0
  C  C495  1  0.349800  0.533900  0.957300  1.0
  C  C496  1  0.815900  0.349800  0.042700  1.0
  C  C497  1  0.533900  0.184100  0.042700  1.0
  C  C498  1  0.650200  0.466100  0.042700  1.0
  C  C499  1  0.978700  0.674000  0.147400  1.0
  C  C500  1  0.695300  0.021300  0.147400  1.0
  C  C501  1  0.326000  0.304700  0.147400  1.0
  C  C502  1  0.021300  0.326000  0.852600  1.0
  C  C503  1  0.304700  0.978700  0.852600  1.0
  C  C504  1  0.674000  0.695300  0.852600  1.0
  C  C505  1  0.038700  0.425000  0.088200  1.0
  C  C506  1  0.386300  0.961300  0.088200  1.0
  C  C507  1  0.575000  0.613700  0.088200  1.0
  C  C508  1  0.961300  0.575000  0.911800  1.0
  C  C509  1  0.613700  0.038700  0.911800  1.0
  C  C510  1  0.425000  0.386300  0.911800  1.0
  C  C511  1  0.930500  0.677800  0.314500  1.0
  C  C512  1  0.747300  0.069500  0.314500  1.0
  C  C513  1  0.322200  0.252700  0.314500  1.0
  C  C514  1  0.069500  0.322200  0.685500  1.0
  C  C515  1  0.252700  0.930500  0.685500  1.0
  C  C516  1  0.677800  0.747300  0.685500  1.0
  C  C517  1  0.955500  0.268200  0.318200  1.0
  C  C518  1  0.312700  0.044500  0.318200  1.0
  C  C519  1  0.731800  0.687300  0.318200  1.0
  C  C520  1  0.044500  0.731800  0.681800  1.0
  C  C521  1  0.687300  0.955500  0.681800  1.0
  C  C522  1  0.268200  0.312700  0.681800  1.0
  C  C523  1  0.884400  0.325700  0.319400  1.0
  C  C524  1  0.441300  0.115600  0.319400  1.0
  C  C525  1  0.674300  0.558700  0.319400  1.0
  C  C526  1  0.115600  0.674300  0.680600  1.0
  C  C527  1  0.558700  0.884400  0.680600  1.0
  C  C528  1  0.325700  0.441300  0.680600  1.0
  C  C529  1  0.994100  0.371400  0.126500  1.0
  C  C530  1  0.377300  0.005900  0.126500  1.0
  C  C531  1  0.628600  0.622700  0.126500  1.0
  C  C532  1  0.005900  0.628600  0.873500  1.0
  C  C533  1  0.622700  0.994100  0.873500  1.0
  C  C534  1  0.371400  0.377300  0.873500  1.0
  C  C535  1  0.956700  0.268600  0.180800  1.0
  C  C536  1  0.311900  0.043300  0.180800  1.0
  C  C537  1  0.731400  0.688100  0.180800  1.0
  C  C538  1  0.043300  0.731400  0.819200  1.0
  C  C539  1  0.688100  0.956700  0.819200  1.0
  C  C540  1  0.268600  0.311900  0.819200  1.0
  C  C541  1  0.006800  0.316600  0.145700  1.0
  C  C542  1  0.309800  0.993200  0.145700  1.0
  C  C543  1  0.683400  0.690200  0.145700  1.0
  C  C544  1  0.993200  0.683400  0.854300  1.0
  C  C545  1  0.690200  0.006800  0.854300  1.0
  C  C546  1  0.316600  0.309800  0.854300  1.0
  C  C547  1  0.884200  0.327800  0.180800  1.0
  C  C548  1  0.443600  0.115800  0.180800  1.0
  C  C549  1  0.672200  0.556400  0.180800  1.0
  C  C550  1  0.115800  0.672200  0.819200  1.0
  C  C551  1  0.556400  0.884200  0.819200  1.0
  C  C552  1  0.327800  0.443600  0.819200  1.0
  C  C553  1  0.932000  0.375700  0.143800  1.0
  C  C554  1  0.443700  0.068000  0.143800  1.0
  C  C555  1  0.624300  0.556300  0.143800  1.0
  C  C556  1  0.068000  0.624300  0.856200  1.0
  C  C557  1  0.556300  0.932000  0.856200  1.0
  C  C558  1  0.375700  0.443700  0.856200  1.0
  N  N559  1  0.666667  0.333333  0.149100  1
  N  N560  1  0.333333  0.666667  0.850900  1
  N  N561  1  0.666667  0.333333  0.351300  1
  N  N562  1  0.333333  0.666667  0.648700  1
  N  N563  1  0.244500  0.469100  0.367100  1
  N  N564  1  0.224600  0.755500  0.367100  1
  N  N565  1  0.530900  0.775400  0.367100  1
  N  N566  1  0.755500  0.530900  0.632900  1
  N  N567  1  0.775400  0.244500  0.632900  1
  N  N568  1  0.469100  0.224600  0.632900  1
  N  N569  1  0.146000  0.830000  0.970200  1
  N  N570  1  0.684000  0.854000  0.970200  1
  N  N571  1  0.170000  0.316000  0.970200  1
  N  N572  1  0.854000  0.170000  0.029800  1
  N  N573  1  0.316000  0.146000  0.029800  1
  N  N574  1  0.830000  0.684000  0.029800  1
  N  N575  1  0.171000  0.843800  0.527100  1
  N  N576  1  0.672800  0.829000  0.527100  1
  N  N577  1  0.156200  0.327200  0.527100  1
  N  N578  1  0.829000  0.156200  0.472900  1
  N  N579  1  0.327200  0.171000  0.472900  1
  N  N580  1  0.843800  0.672800  0.472900  1
  N  N581  1  0.739500  0.305000  0.250000  1
  N  N582  1  0.565500  0.260500  0.250000  1
  N  N583  1  0.695000  0.434500  0.250000  1
  N  N584  1  0.260500  0.695000  0.750000  1
  N  N585  1  0.434500  0.739500  0.750000  1
  N  N586  1  0.305000  0.565500  0.750000  1
  N  N587  1  0.720100  0.408100  0.249700  1
  N  N588  1  0.688000  0.279900  0.249700  1
  N  N589  1  0.591900  0.312000  0.249700  1
  N  N590  1  0.279900  0.591900  0.750300  1
  N  N591  1  0.312000  0.720100  0.750300  1
  N  N592  1  0.408100  0.688000  0.750300  1
  N  N593  1  0.866100  0.618900  0.301700  1.0
  N  N594  1  0.752800  0.133900  0.301700  1.0
  N  N595  1  0.381100  0.247200  0.301700  1.0
  N  N596  1  0.133900  0.381100  0.698300  1.0
  N  N597  1  0.247200  0.866100  0.698300  1.0
  N  N598  1  0.618900  0.752800  0.698300  1.0
  N  N599  1  0.865800  0.618200  0.197800  1.0
  N  N600  1  0.752400  0.134200  0.197800  1.0
  N  N601  1  0.381800  0.247600  0.197800  1.0
  N  N602  1  0.134200  0.381800  0.802200  1.0
  N  N603  1  0.247600  0.865800  0.802200  1.0
  N  N604  1  0.618200  0.752400  0.802200  1.0
  N  N605  1  0.727300  0.627000  0.301960  1.0
  N  N606  1  0.899700  0.272700  0.301960  1.0
  N  N607  1  0.373000  0.100300  0.301960  1.0
  N  N608  1  0.272700  0.373000  0.698040  1.0
  N  N609  1  0.100300  0.727300  0.698040  1.0
  N  N610  1  0.627000  0.899700  0.698040  1.0
  N  N611  1  0.728600  0.628200  0.198100  1.0
  N  N612  1  0.899600  0.271400  0.198100  1.0
  N  N613  1  0.371800  0.100400  0.198100  1.0
  N  N614  1  0.271400  0.371800  0.801900  1.0
  N  N615  1  0.100400  0.728600  0.801900  1.0
  N  N616  1  0.628200  0.899600  0.801900  1.0
  O  O617  1  0.226000  0.433000  0.327900  1
  O  O618  1  0.207000  0.774000  0.327900  1
  O  O619  1  0.567000  0.793000  0.327900  1
  O  O620  1  0.774000  0.567000  0.672100  1
  O  O621  1  0.793000  0.226000  0.672100  1
  O  O622  1  0.433000  0.207000  0.672100  1
  O  O623  1  0.224400  0.433500  0.405700  1
  O  O624  1  0.209100  0.775600  0.405700  1
  O  O625  1  0.566500  0.790900  0.405700  1
  O  O626  1  0.775600  0.566500  0.594300  1
  O  O627  1  0.790900  0.224400  0.594300  1
  O  O628  1  0.433500  0.209100  0.594300  1
  O  O629  1  0.281000  0.542000  0.368000  1
  O  O630  1  0.261000  0.719000  0.368000  1
  O  O631  1  0.458000  0.739000  0.368000  1
  O  O632  1  0.719000  0.458000  0.632000  1
  O  O633  1  0.739000  0.281000  0.632000  1
  O  O634  1  0.542000  0.261000  0.632000  1
  O  O635  1  0.096000  0.810000  0.002900  1
  O  O636  1  0.714000  0.904000  0.002900  1
  O  O637  1  0.190000  0.286000  0.002900  1
  O  O638  1  0.904000  0.190000  0.997100  1
  O  O639  1  0.286000  0.096000  0.997100  1
  O  O640  1  0.810000  0.714000  0.997100  1
  O  O641  1  0.215600  0.872600  0.981700  1
  O  O642  1  0.657000  0.784400  0.981700  1
  O  O643  1  0.127400  0.343000  0.981700  1
  O  O644  1  0.784400  0.127400  0.018300  1
  O  O645  1  0.343000  0.215600  0.018300  1
  O  O646  1  0.872600  0.657000  0.018300  1
  O  O647  1  0.137000  0.814000  0.926300  1
  O  O648  1  0.677000  0.863000  0.926300  1
  O  O649  1  0.186000  0.323000  0.926300  1
  O  O650  1  0.863000  0.186000  0.073700  1
  O  O651  1  0.323000  0.137000  0.073700  1
  O  O652  1  0.814000  0.677000  0.073700  1
  O  O653  1  0.236000  0.898000  0.514700  1
  O  O654  1  0.662000  0.764000  0.514700  1
  O  O655  1  0.102000  0.338000  0.514700  1
  O  O656  1  0.764000  0.102000  0.485300  1
  O  O657  1  0.338000  0.236000  0.485300  1
  O  O658  1  0.898000  0.662000  0.485300  1
  O  O659  1  0.162000  0.824000  0.570000  1
  O  O660  1  0.662000  0.838000  0.570000  1
  O  O661  1  0.176000  0.338000  0.570000  1
  O  O662  1  0.838000  0.176000  0.430000  1
  O  O663  1  0.338000  0.162000  0.430000  1
  O  O664  1  0.824000  0.662000  0.430000  1
  O  O665  1  0.111000  0.809000  0.501400  1
  O  O666  1  0.698000  0.889000  0.501400  1
  O  O667  1  0.191000  0.302000  0.501400  1
  O  O668  1  0.889000  0.191000  0.498600  1
  O  O669  1  0.302000  0.111000  0.498600  1
  O  O670  1  0.809000  0.698000  0.498600  1
  O  O671  1  0.024100  0.580600  0.249600  1
  O  O672  1  0.556500  0.975900  0.249600  1
  O  O673  1  0.419400  0.443500  0.249600  1
  O  O674  1  0.975900  0.419400  0.750400  1
  O  O675  1  0.443500  0.024100  0.750400  1
  O  O676  1  0.580600  0.556500  0.750400  1
  O  O677  1  0.179800  0.800600  0.140100  1
  O  O678  1  0.620800  0.820200  0.140100  1
  O  O679  1  0.199400  0.379200  0.140100  1
  O  O680  1  0.820200  0.199400  0.859900  1
  O  O681  1  0.379200  0.179800  0.859900  1
  O  O682  1  0.800600  0.620800  0.859900  1
  O  O683  1  0.901100  0.819000  0.249700  1
  O  O684  1  0.917900  0.098900  0.249700  1
  O  O685  1  0.181000  0.082100  0.249700  1
  O  O686  1  0.098900  0.181000  0.750300  1
  O  O687  1  0.082100  0.901100  0.750300  1
  O  O688  1  0.819000  0.917900  0.750300  1
  O  O689  1  0.828400  0.426600  0.251100  1
  O  O690  1  0.598200  0.171600  0.251100  1
  O  O691  1  0.573400  0.401800  0.251100  1
  O  O692  1  0.171600  0.573400  0.748900  1
  O  O693  1  0.401800  0.828400  0.748900  1
  O  O694  1  0.426600  0.598200  0.748900  1
  O  O695  1  0.732700  0.346200  0.150000  1.0
  O  O696  1  0.613500  0.267300  0.150000  1.0
  O  O697  1  0.653800  0.386500  0.150000  1.0
  O  O698  1  0.267300  0.653800  0.850000  1.0
  O  O699  1  0.386500  0.732700  0.850000  1.0
  O  O700  1  0.346200  0.613500  0.850000  1.0
  O  O701  1  0.734400  0.346500  0.349200  1.0
  O  O702  1  0.612100  0.265600  0.349200  1.0
  O  O703  1  0.653500  0.387900  0.349200  1.0
  O  O704  1  0.265600  0.653500  0.650800  1.0
  O  O705  1  0.387900  0.734400  0.650800  1.0
  O  O706  1  0.346500  0.612100  0.650800  1.0
