# generated using pymatgen
data_P4H106Pd2C104S4N8O23F12
_symmetry_space_group_name_H-M   'P 1'
_cell_length_a   15.84430000
_cell_length_b   18.83830000
_cell_length_c   20.69830000
_cell_angle_alpha   95.68000000
_cell_angle_beta   94.48200000
_cell_angle_gamma   104.57000000
_symmetry_Int_Tables_number   1
_chemical_formula_structural   P4H106Pd2C104S4N8O23F12
_chemical_formula_sum   'P8 H212 Pd4 C208 S8 N16 O46 F24'
_cell_volume   5915.83133438
_cell_formula_units_Z   2
loop_
 _symmetry_equiv_pos_site_id
 _symmetry_equiv_pos_as_xyz
  1  'x, y, z'
loop_
 _atom_site_type_symbol
 _atom_site_label
 _atom_site_symmetry_multiplicity
 _atom_site_fract_x
 _atom_site_fract_y
 _atom_site_fract_z
 _atom_site_occupancy
  P  P1  1  0.990770  0.203950  0.138890  1
  P  P2  1  0.009230  0.796050  0.861110  1
  P  P3  1  0.146610  0.173470  0.062560  1
  P  P4  1  0.853390  0.826530  0.937440  1
  P  P5  1  0.425160  0.795420  0.172360  1
  P  P6  1  0.574840  0.204580  0.827640  1
  P  P7  1  0.270030  0.812470  0.258440  1
  P  P8  1  0.729970  0.187530  0.741560  1
  H  H9  1  0.924300  0.082200  0.096800  1
  H  H10  1  0.075700  0.917800  0.903200  1
  H  H11  1  0.869100  0.135300  0.069800  1
  H  H12  1  0.130900  0.864700  0.930200  1
  H  H13  1  0.609100  0.248100  0.191700  1
  H  H14  1  0.390900  0.751900  0.808300  1
  H  H15  1  0.926700  0.089400  0.981100  1
  H  H16  1  0.073300  0.910600  0.018900  1
  H  H17  1  0.980200  0.174200  0.997800  1
  H  H18  1  0.019800  0.825800  0.002200  1
  H  H19  1  0.729400  0.572400  0.333800  1
  H  H20  1  0.270600  0.427600  0.666200  1
  H  H21  1  0.069000  0.089300  0.974700  1
  H  H22  1  0.931000  0.910700  0.025300  1
  H  H23  1  0.045900  0.057800  0.041900  1
  H  H24  1  0.954100  0.942200  0.958100  1
  H  H25  1  0.919300  0.303500  0.219700  1
  H  H26  1  0.080700  0.696500  0.780300  1
  H  H27  1  0.273000  0.608000  0.580900  1
  H  H28  1  0.727000  0.392000  0.419100  1
  H  H29  1  0.837000  0.292800  0.306300  1
  H  H30  1  0.163000  0.707200  0.693700  1
  H  H31  1  0.984400  0.308100  0.489700  1
  H  H32  1  0.015600  0.691900  0.510300  1
  H  H33  1  0.809700  0.185300  0.355600  1
  H  H34  1  0.190300  0.814700  0.644400  1
  H  H35  1  0.850300  0.082800  0.309100  1
  H  H36  1  0.149700  0.917200  0.690900  1
  H  H37  1  0.916900  0.089200  0.210900  1
  H  H38  1  0.083100  0.910800  0.789100  1
  H  H39  1  0.884100  0.252100  0.039200  1
  H  H40  1  0.115900  0.747900  0.960800  1
  H  H41  1  0.894000  0.366200  0.998200  1
  H  H42  1  0.106000  0.633800  0.001800  1
  H  H43  1  0.000800  0.470800  0.048100  1
  H  H44  1  0.999200  0.529200  0.951900  1
  H  H45  1  0.097600  0.463600  0.130800  1
  H  H46  1  0.902400  0.536400  0.869200  1
  H  H47  1  0.095700  0.350900  0.167700  1
  H  H48  1  0.904300  0.649100  0.832300  1
  H  H49  1  0.176300  0.028100  0.048000  1
  H  H50  1  0.823700  0.971900  0.952000  1
  H  H51  1  0.298800  0.983200  0.029900  1
  H  H52  1  0.701200  0.016800  0.970100  1
  H  H53  1  0.435000  0.063400  0.023500  1
  H  H54  1  0.565000  0.936600  0.976500  1
  H  H55  1  0.450300  0.189800  0.037400  1
  H  H56  1  0.549700  0.810200  0.962600  1
  H  H57  1  0.329400  0.236700  0.050400  1
  H  H58  1  0.670600  0.763300  0.949600  1
  H  H59  1  0.109000  0.197400  0.929300  1
  H  H60  1  0.891000  0.802600  0.070700  1
  H  H61  1  0.145900  0.299700  0.871500  1
  H  H62  1  0.854100  0.700300  0.128500  1
  H  H63  1  0.225600  0.415500  0.927200  1
  H  H64  1  0.774400  0.584500  0.072800  1
  H  H65  1  0.265200  0.428000  0.038400  1
  H  H66  1  0.734800  0.572000  0.961600  1
  H  H67  1  0.224900  0.327500  0.096500  1
  H  H68  1  0.775100  0.672500  0.903500  1
  H  H69  1  0.236700  0.088700  0.196900  1
  H  H70  1  0.763300  0.911300  0.803100  1
  H  H71  1  0.378400  0.086600  0.224000  1
  H  H72  1  0.621600  0.913400  0.776000  1
  H  H73  1  0.449800  0.309900  0.235800  1
  H  H74  1  0.550200  0.690100  0.764200  1
  H  H75  1  0.305400  0.305200  0.208800  1
  H  H76  1  0.694600  0.694800  0.791200  1
  H  H77  1  0.534300  0.201300  0.301000  1
  H  H78  1  0.465700  0.798700  0.699000  1
  H  H79  1  0.533000  0.148900  0.235000  1
  H  H80  1  0.467000  0.851100  0.765000  1
  H  H81  1  0.667500  0.464600  0.288900  1
  H  H82  1  0.332500  0.535400  0.711100  1
  H  H83  1  0.859300  0.517600  0.173000  1
  H  H84  1  0.140700  0.482400  0.827000  1
  H  H85  1  0.842500  0.395500  0.137700  1
  H  H86  1  0.157500  0.604500  0.862300  1
  H  H87  1  0.740100  0.303500  0.181800  1
  H  H88  1  0.259900  0.696500  0.818200  1
  H  H89  1  0.796500  0.713500  0.306400  1
  H  H90  1  0.203500  0.286500  0.693600  1
  H  H91  1  0.770000  0.691900  0.376100  1
  H  H92  1  0.230000  0.308100  0.623900  1
  H  H93  1  0.711200  0.810800  0.346800  1
  H  H94  1  0.288800  0.189200  0.653200  1
  H  H95  1  0.581800  0.841300  0.323300  1
  H  H96  1  0.418200  0.158700  0.676700  1
  H  H97  1  0.459500  0.634600  0.261400  1
  H  H98  1  0.540500  0.365400  0.738600  1
  H  H99  1  0.588300  0.600000  0.277100  1
  H  H100  1  0.411700  0.400000  0.722900  1
  H  H101  1  0.330700  0.645300  0.178300  1
  H  H102  1  0.669300  0.354700  0.821700  1
  H  H103  1  0.262200  0.544100  0.101000  1
  H  H104  1  0.737800  0.455900  0.899000  1
  H  H105  1  0.256200  0.555800  0.991900  1
  H  H106  1  0.743800  0.444200  0.008100  1
  H  H107  1  0.326300  0.666500  0.956100  1
  H  H108  1  0.673700  0.333500  0.043900  1
  H  H109  1  0.393000  0.769300  0.032500  1
  H  H110  1  0.607000  0.230700  0.967500  1
  H  H111  1  0.579500  0.916500  0.197900  1
  H  H112  1  0.420500  0.083500  0.802100  1
  H  H113  1  0.726900  0.931600  0.189300  1
  H  H114  1  0.273100  0.068400  0.810700  1
  H  H115  1  0.778600  0.832300  0.152200  1
  H  H116  1  0.221400  0.167700  0.847800  1
  H  H117  1  0.680300  0.717000  0.122400  1
  H  H118  1  0.319700  0.283000  0.877600  1
  H  H119  1  0.532100  0.701200  0.126200  1
  H  H120  1  0.467900  0.298800  0.873800  1
  H  H121  1  0.421100  0.855800  0.410700  1
  H  H122  1  0.578900  0.144200  0.589300  1
  H  H123  1  0.395300  0.835500  0.518200  1
  H  H124  1  0.604700  0.164500  0.481800  1
  H  H125  1  0.280200  0.621800  0.451300  1
  H  H126  1  0.719800  0.378200  0.548700  1
  H  H127  1  0.312100  0.646200  0.348300  1
  H  H128  1  0.687900  0.353800  0.651700  1
  H  H129  1  0.367700  0.719800  0.591900  1
  H  H130  1  0.632300  0.280200  0.408100  1
  H  H131  1  0.286900  0.755600  0.582600  1
  H  H132  1  0.713100  0.244400  0.417400  1
  H  H133  1  0.182700  0.501100  0.523400  1
  H  H134  1  0.817300  0.498900  0.476600  1
  H  H135  1  0.967700  0.374400  0.589100  1
  H  H136  1  0.032300  0.625600  0.410900  1
  H  H137  1  0.936400  0.480900  0.636800  1
  H  H138  1  0.063600  0.519100  0.363200  1
  H  H139  1  0.021200  0.596300  0.622600  1
  H  H140  1  0.978800  0.403700  0.377400  1
  H  H141  1  0.002200  0.194300  0.469300  1
  H  H142  1  0.997800  0.805700  0.530700  1
  H  H143  1  0.102900  0.225600  0.497500  1
  H  H144  1  0.897100  0.774400  0.502500  1
  H  H145  1  0.105400  0.339300  0.387500  1
  H  H146  1  0.894600  0.660700  0.612500  1
  H  H147  1  0.128700  0.324700  0.278900  1
  H  H148  1  0.871300  0.675300  0.721100  1
  H  H149  1  0.104700  0.113800  0.282900  1
  H  H150  1  0.895300  0.886200  0.717100  1
  H  H151  1  0.068200  0.121900  0.388500  1
  H  H152  1  0.931800  0.878100  0.611500  1
  H  H153  1  0.312200  0.946700  0.347800  1
  H  H154  1  0.687800  0.053300  0.652200  1
  H  H155  1  0.266500  0.980900  0.448000  1
  H  H156  1  0.733500  0.019100  0.552000  1
  H  H157  1  0.172000  0.896000  0.497300  1
  H  H158  1  0.828000  0.104000  0.502700  1
  H  H159  1  0.118300  0.777200  0.449400  1
  H  H160  1  0.881700  0.222800  0.550600  1
  H  H161  1  0.147700  0.742900  0.344300  1
  H  H162  1  0.852300  0.257100  0.655700  1
  H  H163  1  0.212300  0.655500  0.260800  1
  H  H164  1  0.787700  0.344500  0.739200  1
  H  H165  1  0.092600  0.563100  0.214900  1
  H  H166  1  0.907400  0.436900  0.785100  1
  H  H167  1  0.995800  0.581500  0.134200  1
  H  H168  1  0.004200  0.418500  0.865800  1
  H  H169  1  0.011300  0.706000  0.107500  1
  H  H170  1  0.988700  0.294000  0.892500  1
  H  H171  1  0.123900  0.802400  0.159900  1
  H  H172  1  0.876100  0.197600  0.840100  1
  H  H173  1  0.438000  0.922000  0.171900  1
  H  H174  1  0.562000  0.078000  0.828100  1
  H  H175  1  0.416800  0.881000  0.098900  1
  H  H176  1  0.583200  0.119000  0.901100  1
  H  H177  1  0.270500  0.833500  0.120700  1
  H  H178  1  0.729500  0.166500  0.879300  1
  H  H179  1  0.299500  0.921000  0.120300  1
  H  H180  1  0.700500  0.079000  0.879700  1
  H  H181  1  0.221400  0.902800  0.209600  1
  H  H182  1  0.778600  0.097200  0.790400  1
  H  H183  1  0.321600  0.934500  0.239400  1
  H  H184  1  0.678400  0.065500  0.760600  1
  H  H185  1  0.434900  0.593500  0.583400  1
  H  H186  1  0.565100  0.406500  0.416600  1
  H  H187  1  0.426900  0.548500  0.512500  1
  H  H188  1  0.573100  0.451500  0.487500  1
  H  H189  1  0.564500  0.536400  0.061200  1
  H  H190  1  0.435500  0.463600  0.938800  1
  H  H191  1  0.436400  0.485800  0.097600  1
  H  H192  1  0.563600  0.514200  0.902400  1
  H  H193  1  0.503400  0.392800  0.049100  1
  H  H194  1  0.496600  0.607200  0.950900  1
  H  H195  1  0.450900  0.364800  0.108700  1
  H  H196  1  0.549100  0.635200  0.891300  1
  H  H197  1  0.555500  0.394400  0.118900  1
  H  H198  1  0.444500  0.605600  0.881100  1
  H  H199  1  0.497500  0.515300  0.214100  1
  H  H200  1  0.502500  0.484700  0.785900  1
  H  H201  1  0.542200  0.448600  0.201900  1
  H  H202  1  0.457800  0.551400  0.798100  1
  H  H203  1  0.437600  0.432700  0.194500  1
  H  H204  1  0.562400  0.567300  0.805500  1
  H  H205  1  0.172200  0.067100  0.552400  1
  H  H206  1  0.827800  0.932900  0.447600  1
  H  H207  1  0.113300  0.104400  0.584600  1
  H  H208  1  0.886700  0.895600  0.415400  1
  H  H209  1  0.415600  0.489900  0.630900  1
  H  H210  1  0.584400  0.510100  0.369100  1
  H  H211  1  0.297300  0.484800  0.553400  1
  H  H212  1  0.702700  0.515200  0.446600  1
  H  H213  1  0.507500  0.551300  0.565200  1
  H  H214  1  0.492500  0.448700  0.434800  1
  H  H215  1  0.461300  0.408600  0.562200  1
  H  H216  1  0.538700  0.591400  0.437800  1
  H  H217  1  0.360700  0.366200  0.564400  1
  H  H218  1  0.639300  0.633800  0.435600  1
  H  H219  1  0.391400  0.401900  0.500300  1
  H  H220  1  0.608600  0.598100  0.499700  1
  Pd  Pd221  1  0.129970  0.198990  0.169320  1
  Pd  Pd222  1  0.870030  0.801010  0.830680  1
  Pd  Pd223  1  0.394640  0.775120  0.275290  1
  Pd  Pd224  1  0.605360  0.224880  0.724710  1
  C  C225  1  0.929200  0.129500  0.078600  1
  C  C226  1  0.070800  0.870500  0.921400  1
  C  C227  1  0.969400  0.125300  0.013800  1
  C  C228  1  0.030600  0.874700  0.986200  1
  C  C229  1  0.054500  0.102600  0.019200  1
  C  C230  1  0.945500  0.897400  0.980800  1
  C  C231  1  0.926000  0.197400  0.207200  1
  C  C232  1  0.074000  0.802600  0.792800  1
  C  C233  1  0.902800  0.257500  0.236600  1
  C  C234  1  0.097200  0.742500  0.763400  1
  C  C235  1  0.856800  0.252000  0.289000  1
  C  C236  1  0.143200  0.748000  0.711000  1
  C  C237  1  0.838600  0.187900  0.317100  1
  C  C238  1  0.161400  0.812100  0.682900  1
  C  C239  1  0.862200  0.127300  0.289500  1
  C  C240  1  0.137800  0.872700  0.710500  1
  C  C241  1  0.904000  0.131700  0.232200  1
  C  C242  1  0.096000  0.868300  0.767800  1
  C  C243  1  0.989400  0.289900  0.108000  1
  C  C244  1  0.010600  0.710100  0.892000  1
  C  C245  1  0.928800  0.294700  0.057500  1
  C  C246  1  0.071200  0.705300  0.942500  1
  C  C247  1  0.933800  0.362500  0.033800  1
  C  C248  1  0.066200  0.637500  0.966200  1
  C  C249  1  0.998000  0.424300  0.063200  1
  C  C250  1  0.002000  0.575700  0.936800  1
  C  C251  1  0.054800  0.420200  0.111300  1
  C  C252  1  0.945200  0.579800  0.888700  1
  C  C253  1  0.052800  0.353300  0.133900  1
  C  C254  1  0.947200  0.646700  0.866100  1
  C  C255  1  0.240800  0.138000  0.049100  1
  C  C256  1  0.759200  0.862000  0.950900  1
  C  C257  1  0.231300  0.061300  0.044400  1
  C  C258  1  0.768700  0.938700  0.955600  1
  C  C259  1  0.304900  0.035000  0.034400  1
  C  C260  1  0.695100  0.965000  0.965600  1
  C  C261  1  0.385800  0.082200  0.030800  1
  C  C262  1  0.614200  0.917800  0.969200  1
  C  C263  1  0.394300  0.156700  0.038100  1
  C  C264  1  0.605700  0.843300  0.961900  1
  C  C265  1  0.322300  0.184800  0.046500  1
  C  C266  1  0.677700  0.815200  0.953500  1
  C  C267  1  0.163400  0.252700  0.018300  1
  C  C268  1  0.836600  0.747300  0.981700  1
  C  C269  1  0.140100  0.244400  0.951500  1
  C  C270  1  0.859900  0.755600  0.048500  1
  C  C271  1  0.162400  0.304900  0.917200  1
  C  C272  1  0.837600  0.695100  0.082800  1
  C  C273  1  0.209700  0.374000  0.950500  1
  C  C274  1  0.790300  0.626000  0.049500  1
  C  C275  1  0.232800  0.381400  0.016200  1
  C  C276  1  0.767200  0.618600  0.983800  1
  C  C277  1  0.209500  0.321700  0.050600  1
  C  C278  1  0.790500  0.678300  0.949400  1
  C  C279  1  0.281100  0.134000  0.204500  1
  C  C280  1  0.718900  0.866000  0.795500  1
  C  C281  1  0.364900  0.132600  0.220900  1
  C  C282  1  0.635100  0.867400  0.779100  1
  C  C283  1  0.431900  0.198200  0.233400  1
  C  C284  1  0.568100  0.801800  0.766600  1
  C  C285  1  0.407200  0.263500  0.228000  1
  C  C286  1  0.592800  0.736500  0.772000  1
  C  C287  1  0.321400  0.260200  0.211400  1
  C  C288  1  0.678600  0.739800  0.788600  1
  C  C289  1  0.524500  0.197100  0.252700  1
  C  C290  1  0.475500  0.802900  0.747300  1
  C  C291  1  0.623200  0.322100  0.265200  1
  C  C292  1  0.376800  0.677900  0.734800  1
  C  C293  1  0.692200  0.375500  0.237500  1
  C  C294  1  0.307800  0.624500  0.762500  1
  C  C295  1  0.703400  0.450300  0.258100  1
  C  C296  1  0.296600  0.549700  0.741900  1
  C  C297  1  0.766100  0.504100  0.234500  1
  C  C298  1  0.233900  0.495900  0.765500  1
  C  C299  1  0.816400  0.481400  0.189900  1
  C  C300  1  0.183600  0.518600  0.810100  1
  C  C301  1  0.807100  0.409200  0.169200  1
  C  C302  1  0.192900  0.590800  0.830800  1
  C  C303  1  0.745100  0.354300  0.194500  1
  C  C304  1  0.254900  0.645700  0.805500  1
  C  C305  1  0.777500  0.584300  0.252200  1
  C  C306  1  0.222500  0.415700  0.747800  1
  C  C307  1  0.751500  0.681100  0.328600  1
  C  C308  1  0.248500  0.318900  0.671400  1
  C  C309  1  0.665300  0.701000  0.315100  1
  C  C310  1  0.334700  0.299000  0.684900  1
  C  C311  1  0.660400  0.773400  0.328500  1
  C  C312  1  0.339600  0.226600  0.671500  1
  C  C313  1  0.582800  0.791000  0.315600  1
  C  C314  1  0.417200  0.209000  0.684400  1
  C  C315  1  0.511800  0.670900  0.278700  1
  C  C316  1  0.488200  0.329100  0.721300  1
  C  C317  1  0.588200  0.650000  0.288600  1
  C  C318  1  0.411800  0.350000  0.711400  1
  C  C319  1  0.367900  0.717800  0.113300  1
  C  C320  1  0.632100  0.282200  0.886700  1
  C  C321  1  0.329400  0.650600  0.133100  1
  C  C322  1  0.670600  0.349400  0.866900  1
  C  C323  1  0.288500  0.590400  0.087000  1
  C  C324  1  0.711500  0.409600  0.913000  1
  C  C325  1  0.286000  0.597000  0.022800  1
  C  C326  1  0.714000  0.403000  0.977200  1
  C  C327  1  0.326100  0.662600  0.001500  1
  C  C328  1  0.673900  0.337400  0.998500  1
  C  C329  1  0.366300  0.723500  0.047000  1
  C  C330  1  0.633700  0.276500  0.953000  1
  C  C331  1  0.539600  0.807100  0.162600  1
  C  C332  1  0.460400  0.192900  0.837400  1
  C  C333  1  0.599700  0.875500  0.181600  1
  C  C334  1  0.400300  0.124500  0.818400  1
  C  C335  1  0.687100  0.884300  0.177000  1
  C  C336  1  0.312900  0.115700  0.823000  1
  C  C337  1  0.717700  0.826100  0.155100  1
  C  C338  1  0.282300  0.173900  0.844900  1
  C  C339  1  0.659100  0.758100  0.137100  1
  C  C340  1  0.340900  0.241900  0.862900  1
  C  C341  1  0.571500  0.748400  0.139900  1
  C  C342  1  0.428500  0.251600  0.860100  1
  C  C343  1  0.392800  0.807500  0.419400  1
  C  C344  1  0.607200  0.192500  0.580600  1
  C  C345  1  0.376100  0.796100  0.483700  1
  C  C346  1  0.623900  0.203900  0.516300  1
  C  C347  1  0.331200  0.726600  0.496200  1
  C  C348  1  0.668800  0.273400  0.503800  1
  C  C349  1  0.309100  0.670600  0.444300  1
  C  C350  1  0.690900  0.329400  0.555700  1
  C  C351  1  0.328700  0.685400  0.383200  1
  C  C352  1  0.671300  0.314600  0.616800  1
  C  C353  1  0.311900  0.715500  0.564900  1
  C  C354  1  0.688100  0.284500  0.435100  1
  C  C355  1  0.164500  0.634400  0.562300  1
  C  C356  1  0.835500  0.365600  0.437700  1
  C  C357  1  0.110100  0.559700  0.571100  1
  C  C358  1  0.889900  0.440300  0.428900  1
  C  C359  1  0.131600  0.496900  0.545500  1
  C  C360  1  0.868400  0.503100  0.454500  1
  C  C361  1  0.078500  0.427600  0.551900  1
  C  C362  1  0.921500  0.572400  0.448100  1
  C  C363  1  0.004800  0.421700  0.585200  1
  C  C364  1  0.995200  0.578300  0.414800  1
  C  C365  1  0.985500  0.484900  0.612500  1
  C  C366  1  0.014500  0.515100  0.387500  1
  C  C367  1  0.036200  0.553200  0.604900  1
  C  C368  1  0.963800  0.446800  0.395100  1
  C  C369  1  0.105800  0.361100  0.523400  1
  C  C370  1  0.894200  0.638900  0.476600  1
  C  C371  1  0.055400  0.234900  0.468200  1
  C  C372  1  0.944600  0.765100  0.531800  1
  C  C373  1  0.081300  0.232000  0.399700  1
  C  C374  1  0.918700  0.768000  0.600300  1
  C  C375  1  0.101700  0.291300  0.366300  1
  C  C376  1  0.898300  0.708700  0.633700  1
  C  C377  1  0.117100  0.282400  0.301700  1
  C  C378  1  0.882900  0.717600  0.698300  1
  C  C379  1  0.101600  0.160300  0.303600  1
  C  C380  1  0.898400  0.839700  0.696400  1
  C  C381  1  0.081700  0.165100  0.367100  1
  C  C382  1  0.918300  0.834900  0.632900  1
  C  C383  1  0.234200  0.841600  0.336200  1
  C  C384  1  0.765800  0.158400  0.663800  1
  C  C385  1  0.270300  0.912200  0.367300  1
  C  C386  1  0.729700  0.087800  0.632700  1
  C  C387  1  0.244500  0.931700  0.427100  1
  C  C388  1  0.755500  0.068300  0.572900  1
  C  C389  1  0.188500  0.881800  0.455800  1
  C  C390  1  0.811500  0.118200  0.544200  1
  C  C391  1  0.155400  0.812200  0.427100  1
  C  C392  1  0.844600  0.187800  0.572900  1
  C  C393  1  0.174600  0.791100  0.366000  1
  C  C394  1  0.825400  0.208900  0.634000  1
  C  C395  1  0.179700  0.739400  0.216000  1
  C  C396  1  0.820300  0.260600  0.784000  1
  C  C397  1  0.170100  0.666200  0.230700  1
  C  C398  1  0.829900  0.333800  0.769300  1
  C  C399  1  0.100300  0.611100  0.201800  1
  C  C400  1  0.899700  0.388900  0.798200  1
  C  C401  1  0.041900  0.621400  0.155600  1
  C  C402  1  0.958100  0.378600  0.844400  1
  C  C403  1  0.052000  0.696600  0.139600  1
  C  C404  1  0.948000  0.303400  0.860400  1
  C  C405  1  0.118800  0.753500  0.170000  1
  C  C406  1  0.881200  0.246500  0.830000  1
  C  C407  1  0.400600  0.877900  0.144000  1
  C  C408  1  0.599400  0.122100  0.856000  1
  C  C409  1  0.308500  0.880200  0.144400  1
  C  C410  1  0.691500  0.119800  0.855600  1
  C  C411  1  0.279000  0.891300  0.213800  1
  C  C412  1  0.721000  0.108700  0.786200  1
  C  C413  1  0.010300  0.935800  0.246600  1
  C  C414  1  0.989700  0.064200  0.753400  1
  C  C415  1  0.620600  0.041600  0.347200  1
  C  C416  1  0.379400  0.958400  0.652800  1
  C  C417  1  0.326600  0.462500  0.332900  1
  C  C418  1  0.673400  0.537500  0.667100  1
  C  C419  1  0.654400  0.085700  0.127100  1
  C  C420  1  0.345600  0.914300  0.872900  1
  C  C421  1  0.493700  0.479200  0.116100  1
  C  C422  1  0.506300  0.520800  0.883900  1
  C  C423  1  0.502000  0.400700  0.096400  1
  C  C424  1  0.498000  0.599300  0.903600  1
  C  C425  1  0.493000  0.467800  0.188100  1
  C  C426  1  0.507000  0.532200  0.811900  1
  C  C427  1  0.391500  0.480100  0.583800  1
  C  C428  1  0.608500  0.519900  0.416200  1
  C  C429  1  0.445000  0.549600  0.559000  1
  C  C430  1  0.555000  0.450400  0.441000  1
  C  C431  1  0.400500  0.407700  0.548100  1
  C  C432  1  0.599500  0.592300  0.451900  1
  S  S433  1  0.032560  0.961210  0.169560  1
  S  S434  1  0.967440  0.038790  0.830440  1
  S  S435  1  0.510700  0.004030  0.338800  1
  S  S436  1  0.489300  0.995970  0.661200  1
  S  S437  1  0.269730  0.480530  0.265550  1
  S  S438  1  0.730270  0.519470  0.734450  1
  S  S439  1  0.658400  0.153090  0.073780  1
  S  S440  1  0.341600  0.846910  0.926220  1
  N  N441  1  0.258800  0.197000  0.198700  1
  N  N442  1  0.741200  0.803000  0.801300  1
  N  N443  1  0.590500  0.256400  0.230000  1
  N  N444  1  0.409500  0.743600  0.770000  1
  N  N445  1  0.749700  0.605900  0.308200  1
  N  N446  1  0.250300  0.394100  0.691800  1
  N  N447  1  0.508700  0.740600  0.292800  1
  N  N448  1  0.491300  0.259400  0.707200  1
  N  N449  1  0.370400  0.752900  0.370400  1
  N  N450  1  0.629600  0.247100  0.629600  1
  N  N451  1  0.251600  0.644900  0.571100  1
  N  N452  1  0.748400  0.355100  0.428900  1
  N  N453  1  0.038400  0.303300  0.493400  1
  N  N454  1  0.961600  0.696700  0.506600  1
  N  N455  1  0.116600  0.217800  0.270000  1
  N  N456  1  0.883400  0.782200  0.730000  1
  O  O457  1  0.594800  0.338800  0.317000  1
  O  O458  1  0.405200  0.661200  0.683000  1
  O  O459  1  0.808400  0.627900  0.215000  1
  O  O460  1  0.191600  0.372100  0.785000  1
  O  O461  1  0.131400  0.684100  0.548700  1
  O  O462  1  0.868600  0.315900  0.451300  1
  O  O463  1  0.182300  0.359300  0.525000  1
  O  O464  1  0.817700  0.640700  0.475000  1
  O  O465  1  0.081400  0.917900  0.141000  1
  O  O466  1  0.918600  0.082100  0.859000  1
  O  O467  1  0.067800  0.037000  0.176500  1
  O  O468  1  0.932200  0.963000  0.823500  1
  O  O469  1  0.937700  0.944700  0.137200  1
  O  O470  1  0.062300  0.055300  0.862800  1
  O  O471  1  0.489400  0.020200  0.276000  1
  O  O472  1  0.510600  0.979800  0.724000  1
  O  O473  1  0.491900  0.927300  0.331800  1
  O  O474  1  0.508100  0.072700  0.668200  1
  O  O475  1  0.472400  0.049700  0.365300  1
  O  O476  1  0.527600  0.950300  0.634700  1
  O  O477  1  0.303600  0.553300  0.257700  1
  O  O478  1  0.696400  0.446700  0.742300  1
  O  O479  1  0.258800  0.422700  0.218400  1
  O  O480  1  0.741200  0.577300  0.781600  1
  O  O481  1  0.184800  0.471400  0.289200  1
  O  O482  1  0.815200  0.528600  0.710800  1
  O  O483  1  0.605500  0.198300  0.099100  1
  O  O484  1  0.394500  0.801700  0.900900  1
  O  O485  1  0.747400  0.189400  0.080400  1
  O  O486  1  0.252600  0.810600  0.919600  1
  O  O487  1  0.618400  0.110200  0.012100  1
  O  O488  1  0.381600  0.889800  0.987900  1
  O  O489  1  0.404600  0.582300  0.559500  1
  O  O490  1  0.595400  0.417700  0.440500  1
  O  O491  1  0.565000  0.536500  0.101800  1
  O  O492  1  0.435000  0.463500  0.898200  1
  O  O493  1  0.426900  0.065300  0.495900  1
  O  O494  1  0.573100  0.934700  0.504100  1
  O  O495  1  0.120000  0.066000  0.558000  1
  O  O496  1  0.880000  0.934000  0.442000  1
  O  O497  1  0.303400  0.481100  0.593500  1
  O  O498  1  0.696600  0.518900  0.406500  1
  O  O499  1  0.641500  0.558100  0.423100  1
  O  O500  1  0.358500  0.441900  0.576900  1
  O  O501  1  0.402100  0.421900  0.139900  1
  O  O502  1  0.597900  0.578100  0.860100  1
  F  F503  1  0.964700  0.862800  0.243400  1
  F  F504  1  0.035300  0.137200  0.756600  1
  F  F505  1  0.965900  0.974600  0.279000  1
  F  F506  1  0.034100  0.025400  0.721000  1
  F  F507  1  0.085500  0.948700  0.282100  1
  F  F508  1  0.914500  0.051300  0.717900  1
  F  F509  1  0.645300  0.113800  0.349700  1
  F  F510  1  0.354700  0.886200  0.650300  1
  F  F511  1  0.662400  0.014500  0.302900  1
  F  F512  1  0.337600  0.985500  0.697100  1
  F  F513  1  0.660600  0.032900  0.399100  1
  F  F514  1  0.339400  0.967100  0.600900  1
  F  F515  1  0.309200  0.396600  0.350100  1
  F  F516  1  0.690800  0.603400  0.649900  1
  F  F517  1  0.414500  0.469100  0.320200  1
  F  F518  1  0.585500  0.530900  0.679800  1
  F  F519  1  0.350500  0.510900  0.382300  1
  F  F520  1  0.649500  0.489100  0.617700  1
  F  F521  1  0.705300  0.041500  0.115500  1
  F  F522  1  0.294700  0.958500  0.884500  1
  F  F523  1  0.572300  0.045600  0.129300  1
  F  F524  1  0.427700  0.954400  0.870700  1
  F  F525  1  0.678100  0.116900  0.189700  1
  F  F526  1  0.321900  0.883100  0.810300  1
