# generated using pymatgen
data_Fe2P4H86Pd2C99S4N8Cl2O19F12
_symmetry_space_group_name_H-M   'P 1'
_cell_length_a   15.82800000
_cell_length_b   16.90100000
_cell_length_c   20.70400000
_cell_angle_alpha   71.93600000
_cell_angle_beta   86.14100000
_cell_angle_gamma   87.92300000
_symmetry_Int_Tables_number   1
_chemical_formula_structural   Fe2P4H86Pd2C99S4N8Cl2O19F12
_chemical_formula_sum   'Fe4 P8 H172 Pd4 C198 S8 N16 Cl4 O38 F24'
_cell_volume   5252.88944391
_cell_formula_units_Z   2
loop_
 _symmetry_equiv_pos_site_id
 _symmetry_equiv_pos_as_xyz
  1  'x, y, z'
loop_
 _atom_site_type_symbol
 _atom_site_label
 _atom_site_symmetry_multiplicity
 _atom_site_fract_x
 _atom_site_fract_y
 _atom_site_fract_z
 _atom_site_occupancy
  Fe  Fe1  1  0.695930  0.312410  0.724050  1
  Fe  Fe2  1  0.304070  0.687590  0.275950  1
  Fe  Fe3  1  0.816030  0.690200  0.286150  1
  Fe  Fe4  1  0.183970  0.309800  0.713850  1
  P  P5  1  0.816610  0.199190  0.646260  1
  P  P6  1  0.183390  0.800810  0.353740  1
  P  P7  1  0.596330  0.183360  0.661580  1
  P  P8  1  0.403670  0.816640  0.338420  1
  P  P9  1  0.927050  0.667570  0.149270  1
  P  P10  1  0.072950  0.332430  0.850730  1
  P  P11  1  0.707330  0.642410  0.171940  1
  P  P12  1  0.292670  0.357590  0.828060  1
  H  H13  1  0.831500  0.969600  0.739300  1
  H  H14  1  0.168500  0.030400  0.260700  1
  H  H15  1  0.940200  0.880600  0.726600  1
  H  H16  1  0.059800  0.119400  0.273400  1
  H  H17  1  0.108300  0.847700  0.671000  1
  H  H18  1  0.891700  0.152300  0.329000  1
  H  H19  1  0.115100  0.772400  0.781200  1
  H  H20  1  0.884900  0.227600  0.218800  1
  H  H21  1  0.909400  0.959200  0.522100  1
  H  H22  1  0.090600  0.040800  0.477900  1
  H  H23  1  0.803900  0.048400  0.542500  1
  H  H24  1  0.196100  0.951600  0.457500  1
  H  H25  1  0.987800  0.807600  0.598700  1
  H  H26  1  0.012200  0.192400  0.401300  1
  H  H27  1  0.048700  0.886000  0.570700  1
  H  H28  1  0.951300  0.114000  0.429300  1
  H  H29  1  0.443900  0.644500  0.892500  1
  H  H30  1  0.556100  0.355500  0.107500  1
  H  H31  1  0.414300  0.760800  0.809900  1
  H  H32  1  0.585700  0.239200  0.190100  1
  H  H33  1  0.121200  0.639500  0.849300  1
  H  H34  1  0.878800  0.360500  0.150700  1
  H  H35  1  0.045000  0.618600  0.810900  1
  H  H36  1  0.955000  0.381400  0.189100  1
  H  H37  1  0.987200  0.539700  0.925900  1
  H  H38  1  0.012800  0.460300  0.074100  1
  H  H39  1  0.899700  0.540500  0.018300  1
  H  H40  1  0.100300  0.459500  0.981700  1
  H  H41  1  0.909300  0.784500  0.966600  1
  H  H42  1  0.090700  0.215500  0.033400  1
  H  H43  1  0.997800  0.788900  0.872800  1
  H  H44  1  0.002200  0.211100  0.127200  1
  H  H45  1  0.735600  0.505100  0.065500  1
  H  H46  1  0.264400  0.494900  0.934500  1
  H  H47  1  0.641800  0.474100  0.995300  1
  H  H48  1  0.358200  0.525900  0.004700  1
  H  H49  1  0.602900  0.719100  0.907600  1
  H  H50  1  0.397100  0.280900  0.092400  1
  H  H51  1  0.700700  0.745800  0.976800  1
  H  H52  1  0.299300  0.254200  0.023200  1
  H  H53  1  0.580300  0.552400  0.864400  1
  H  H54  1  0.419700  0.447600  0.135600  1
  H  H55  1  0.516000  0.521400  0.929700  1
  H  H56  1  0.484000  0.478600  0.070300  1
  H  H57  1  0.406800  0.822800  0.699600  1
  H  H58  1  0.593200  0.177200  0.300400  1
  H  H59  1  0.483000  0.764400  0.685900  1
  H  H60  1  0.517000  0.235600  0.314100  1
  H  H61  1  0.512300  0.907800  0.599300  1
  H  H62  1  0.487700  0.092200  0.400700  1
  H  H63  1  0.604300  0.017600  0.574600  1
  H  H64  1  0.395700  0.982400  0.425400  1
  H  H65  1  0.648200  0.965900  0.769600  1
  H  H66  1  0.351800  0.034100  0.230400  1
  H  H67  1  0.556100  0.854600  0.798900  1
  H  H68  1  0.443900  0.145400  0.201100  1
  H  H69  1  0.736700  0.151100  0.790600  1
  H  H70  1  0.263300  0.848900  0.209400  1
  H  H71  1  0.724700  0.256300  0.860500  1
  H  H72  1  0.275300  0.743700  0.139500  1
  H  H73  1  0.796000  0.391700  0.789100  1
  H  H74  1  0.204000  0.608300  0.210900  1
  H  H75  1  0.852600  0.375500  0.672700  1
  H  H76  1  0.147400  0.624500  0.327300  1
  H  H77  1  0.669600  0.356600  0.587700  1
  H  H78  1  0.330400  0.643400  0.412300  1
  H  H79  1  0.535800  0.263900  0.779400  1
  H  H80  1  0.464200  0.736100  0.220600  1
  H  H81  1  0.577800  0.417600  0.762700  1
  H  H82  1  0.422200  0.582400  0.237300  1
  H  H83  1  0.660100  0.472500  0.645900  1
  H  H84  1  0.339900  0.527500  0.354100  1
  H  H85  1  0.903700  0.111600  0.764400  1
  H  H86  1  0.096300  0.888400  0.235600  1
  H  H87  1  0.035100  0.042300  0.785000  1
  H  H88  1  0.964900  0.957700  0.215000  1
  H  H89  1  0.127700  0.037600  0.694100  1
  H  H90  1  0.872300  0.962400  0.305900  1
  H  H91  1  0.094800  0.106400  0.582500  1
  H  H92  1  0.905200  0.893600  0.417500  1
  H  H93  1  0.962900  0.175100  0.560800  1
  H  H94  1  0.037100  0.824900  0.439200  1
  H  H95  1  0.906000  0.356600  0.582800  1
  H  H96  1  0.094000  0.643400  0.417200  1
  H  H97  1  0.947300  0.428800  0.469500  1
  H  H98  1  0.052700  0.571200  0.530500  1
  H  H99  1  0.892500  0.392600  0.382600  1
  H  H100  1  0.107500  0.607400  0.617400  1
  H  H101  1  0.806600  0.276400  0.403100  1
  H  H102  1  0.193400  0.723600  0.596900  1
  H  H103  1  0.763200  0.203200  0.517400  1
  H  H104  1  0.236800  0.796800  0.482600  1
  H  H105  1  0.629500  0.159000  0.529100  1
  H  H106  1  0.370500  0.841000  0.470900  1
  H  H107  1  0.565300  0.203500  0.426500  1
  H  H108  1  0.434700  0.796500  0.573500  1
  H  H109  1  0.442300  0.286900  0.414700  1
  H  H110  1  0.557700  0.713100  0.585300  1
  H  H111  1  0.385500  0.324100  0.508600  1
  H  H112  1  0.614500  0.675900  0.491400  1
  H  H113  1  0.450000  0.284900  0.610000  1
  H  H114  1  0.550000  0.715100  0.390000  1
  H  H115  1  0.585000  0.117400  0.806700  1
  H  H116  1  0.415000  0.882600  0.193300  1
  H  H117  1  0.492800  0.029500  0.889500  1
  H  H118  1  0.507200  0.970500  0.110500  1
  H  H119  1  0.373100  0.978300  0.853500  1
  H  H120  1  0.626900  0.021700  0.146500  1
  H  H121  1  0.346200  0.016100  0.740200  1
  H  H122  1  0.653800  0.983900  0.259800  1
  H  H123  1  0.437600  0.103000  0.657700  1
  H  H124  1  0.562400  0.897000  0.342300  1
  H  H125  1  0.971100  0.764600  0.247800  1
  H  H126  1  0.028900  0.235400  0.752200  1
  H  H127  1  0.930800  0.704200  0.378100  1
  H  H128  1  0.069200  0.295800  0.621900  1
  H  H129  1  0.859100  0.562000  0.399700  1
  H  H130  1  0.140900  0.438000  0.600300  1
  H  H131  1  0.854500  0.532800  0.284600  1
  H  H132  1  0.145500  0.467200  0.715400  1
  H  H133  1  0.771200  0.815500  0.173200  1
  H  H134  1  0.228800  0.184500  0.826800  1
  H  H135  1  0.771800  0.850300  0.286300  1
  H  H136  1  0.228200  0.149700  0.713700  1
  H  H137  1  0.705600  0.726100  0.382200  1
  H  H138  1  0.294400  0.273900  0.617800  1
  H  H139  1  0.663400  0.614400  0.328800  1
  H  H140  1  0.336600  0.385600  0.671200  1
  H  H141  1  0.065400  0.665500  0.048000  1
  H  H142  1  0.934600  0.334500  0.952000  1
  H  H143  1  0.186900  0.580000  0.048800  1
  H  H144  1  0.813100  0.420000  0.951200  1
  H  H145  1  0.209400  0.463100  0.139700  1
  H  H146  1  0.790600  0.536900  0.860300  1
  H  H147  1  0.114700  0.430400  0.233600  1
  H  H148  1  0.885300  0.569600  0.766400  1
  H  H149  1  0.992800  0.513500  0.234000  1
  H  H150  1  0.007200  0.486500  0.766000  1
  H  H151  1  0.085200  0.747000  0.147200  1
  H  H152  1  0.914800  0.253000  0.852800  1
  H  H153  1  0.128100  0.884900  0.115000  1
  H  H154  1  0.871900  0.115100  0.885000  1
  H  H155  1  0.031200  0.991400  0.070500  1
  H  H156  1  0.968800  0.008600  0.929500  1
  H  H157  1  0.894200  0.962400  0.048900  1
  H  H158  1  0.105800  0.037600  0.951100  1
  H  H159  1  0.853600  0.824000  0.074400  1
  H  H160  1  0.146400  0.176000  0.925600  1
  H  H161  1  0.799100  0.489100  0.185800  1
  H  H162  1  0.200900  0.510900  0.814200  1
  H  H163  1  0.777200  0.349100  0.249100  1
  H  H164  1  0.222800  0.650900  0.750900  1
  H  H165  1  0.654200  0.311400  0.318300  1
  H  H166  1  0.345800  0.688600  0.681700  1
  H  H167  1  0.553000  0.409600  0.327600  1
  H  H168  1  0.447000  0.590400  0.672400  1
  H  H169  1  0.574400  0.551600  0.265100  1
  H  H170  1  0.425600  0.448400  0.734900  1
  H  H171  1  0.557600  0.569600  0.137600  1
  H  H172  1  0.442400  0.430400  0.862400  1
  H  H173  1  0.439800  0.628200  0.074400  1
  H  H174  1  0.560200  0.371800  0.925600  1
  H  H175  1  0.421200  0.770400  0.031300  1
  H  H176  1  0.578800  0.229600  0.968700  1
  H  H177  1  0.521700  0.858900  0.049700  1
  H  H178  1  0.478300  0.141100  0.950300  1
  H  H179  1  0.637200  0.803200  0.112800  1
  H  H180  1  0.362800  0.196800  0.887200  1
  H  H181  1  0.835500  0.719900  0.718500  1
  H  H182  1  0.164500  0.280100  0.281500  1
  H  H183  1  0.743600  0.681400  0.743300  1
  H  H184  1  0.256400  0.318600  0.256700  1
  Pd  Pd185  1  0.714770  0.101790  0.654550  1
  Pd  Pd186  1  0.285230  0.898210  0.345450  1
  Pd  Pd187  1  0.814960  0.652110  0.089390  1
  Pd  Pd188  1  0.185040  0.347890  0.910610  1
  C  C189  1  0.849200  0.968200  0.694900  1
  C  C190  1  0.150800  0.031800  0.305100  1
  C  C191  1  0.913600  0.915000  0.687700  1
  C  C192  1  0.086400  0.085000  0.312300  1
  C  C193  1  0.940100  0.911300  0.623100  1
  C  C194  1  0.059900  0.088700  0.376900  1
  C  C195  1  0.896000  0.961500  0.566900  1
  C  C196  1  0.104000  0.038500  0.433100  1
  C  C197  1  0.832900  0.013700  0.579900  1
  C  C198  1  0.167100  0.986300  0.420100  1
  C  C199  1  0.011900  0.854500  0.610200  1
  C  C200  1  0.988100  0.145500  0.389800  1
  C  C201  1  0.038200  0.751900  0.718400  1
  C  C202  1  0.961800  0.248100  0.281600  1
  C  C203  1  0.065900  0.660200  0.830500  1
  C  C204  1  0.934100  0.339800  0.169500  1
  C  C205  1  0.004200  0.664300  0.889100  1
  C  C206  1  0.995800  0.335700  0.110900  1
  C  C207  1  0.972800  0.591100  0.933800  1
  C  C208  1  0.027200  0.408900  0.066200  1
  C  C209  1  0.921300  0.591800  0.989200  1
  C  C210  1  0.078700  0.408200  0.010800  1
  C  C211  1  0.927000  0.733500  0.959200  1
  C  C212  1  0.073000  0.266500  0.040800  1
  C  C213  1  0.979100  0.736800  0.902600  1
  C  C214  1  0.020900  0.263200  0.097400  1
  C  C215  1  0.708200  0.549300  0.032900  1
  C  C216  1  0.291800  0.450700  0.967100  1
  C  C217  1  0.652100  0.530500  0.991000  1
  C  C218  1  0.347900  0.469500  0.009000  1
  C  C219  1  0.611500  0.592800  0.943700  1
  C  C220  1  0.388500  0.407200  0.056300  1
  C  C221  1  0.630000  0.674000  0.939500  1
  C  C222  1  0.370000  0.326000  0.060500  1
  C  C223  1  0.687400  0.689900  0.981400  1
  C  C224  1  0.312600  0.310100  0.018600  1
  C  C225  1  0.548600  0.569800  0.900700  1
  C  C226  1  0.451400  0.430200  0.099300  1
  C  C227  1  0.509700  0.682000  0.806600  1
  C  C228  1  0.490300  0.318000  0.193400  1
  C  C229  1  0.463300  0.799900  0.714200  1
  C  C230  1  0.536700  0.200100  0.285800  1
  C  C231  1  0.523700  0.871400  0.700300  1
  C  C232  1  0.476300  0.128600  0.299700  1
  C  C233  1  0.539100  0.919400  0.635000  1
  C  C234  1  0.460900  0.080600  0.365000  1
  C  C235  1  0.593500  0.984500  0.620600  1
  C  C236  1  0.406500  0.015500  0.379400  1
  C  C237  1  0.619200  0.954100  0.735100  1
  C  C238  1  0.380800  0.045900  0.264900  1
  C  C239  1  0.565200  0.888000  0.752900  1
  C  C240  1  0.434800  0.112000  0.247100  1
  C  C241  1  0.802400  0.250100  0.710400  1
  C  C242  1  0.197600  0.749900  0.289600  1
  C  C243  1  0.758800  0.209100  0.775400  1
  C  C244  1  0.241200  0.790900  0.224600  1
  C  C245  1  0.753200  0.266700  0.814000  1
  C  C246  1  0.246800  0.733300  0.186000  1
  C  C247  1  0.792800  0.340200  0.775300  1
  C  C248  1  0.207200  0.659800  0.224700  1
  C  C249  1  0.823100  0.331800  0.710800  1
  C  C250  1  0.176900  0.668200  0.289200  1
  C  C251  1  0.641400  0.352300  0.633300  1
  C  C252  1  0.358600  0.647700  0.366700  1
  C  C253  1  0.599400  0.280100  0.679500  1
  C  C254  1  0.400600  0.719900  0.320500  1
  C  C255  1  0.567300  0.301600  0.738600  1
  C  C256  1  0.432700  0.698400  0.261400  1
  C  C257  1  0.589900  0.386200  0.729300  1
  C  C258  1  0.410100  0.613800  0.270700  1
  C  C259  1  0.634900  0.416000  0.665100  1
  C  C260  1  0.365100  0.584000  0.334900  1
  C  C261  1  0.920700  0.149500  0.661700  1
  C  C262  1  0.079300  0.850500  0.338300  1
  C  C263  1  0.942000  0.110400  0.727400  1
  C  C264  1  0.058000  0.889600  0.272600  1
  C  C265  1  0.020000  0.069000  0.739600  1
  C  C266  1  0.980000  0.931000  0.260400  1
  C  C267  1  0.075300  0.067000  0.685500  1
  C  C268  1  0.924700  0.933000  0.314500  1
  C  C269  1  0.055500  0.107000  0.619100  1
  C  C270  1  0.944500  0.893000  0.380900  1
  C  C271  1  0.977600  0.148200  0.606200  1
  C  C272  1  0.022400  0.851800  0.393800  1
  C  C273  1  0.831300  0.271400  0.562200  1
  C  C274  1  0.168700  0.728600  0.437800  1
  C  C275  1  0.885600  0.340000  0.546900  1
  C  C276  1  0.114400  0.660000  0.453100  1
  C  C277  1  0.909500  0.383600  0.479600  1
  C  C278  1  0.090500  0.616400  0.520400  1
  C  C279  1  0.877900  0.360700  0.428300  1
  C  C280  1  0.122100  0.639300  0.571700  1
  C  C281  1  0.825200  0.292600  0.439800  1
  C  C282  1  0.174800  0.707400  0.560200  1
  C  C283  1  0.800700  0.248600  0.507900  1
  C  C284  1  0.199300  0.751400  0.492100  1
  C  C285  1  0.546000  0.215000  0.581100  1
  C  C286  1  0.454000  0.785000  0.418900  1
  C  C287  1  0.579600  0.192800  0.525100  1
  C  C288  1  0.420400  0.807200  0.474900  1
  C  C289  1  0.541500  0.219300  0.464100  1
  C  C290  1  0.458500  0.780700  0.535900  1
  C  C291  1  0.468800  0.268700  0.456800  1
  C  C292  1  0.531200  0.731300  0.543200  1
  C  C293  1  0.435800  0.290900  0.512800  1
  C  C294  1  0.564200  0.709100  0.487200  1
  C  C295  1  0.473000  0.266900  0.573200  1
  C  C296  1  0.527000  0.733100  0.426800  1
  C  C297  1  0.519700  0.121200  0.724900  1
  C  C298  1  0.480300  0.878800  0.275100  1
  C  C299  1  0.536000  0.097400  0.793200  1
  C  C300  1  0.464000  0.902600  0.206800  1
  C  C301  1  0.481900  0.044700  0.842600  1
  C  C302  1  0.518100  0.955300  0.157400  1
  C  C303  1  0.410700  0.014600  0.820800  1
  C  C304  1  0.589300  0.985400  0.179200  1
  C  C305  1  0.394900  0.036800  0.753600  1
  C  C306  1  0.605100  0.963200  0.246400  1
  C  C307  1  0.448500  0.089000  0.704500  1
  C  C308  1  0.551500  0.911000  0.295500  1
  C  C309  1  0.916700  0.651900  0.239500  1
  C  C310  1  0.083300  0.348100  0.760500  1
  C  C311  1  0.943300  0.710100  0.271200  1
  C  C312  1  0.056700  0.289900  0.728800  1
  C  C313  1  0.922000  0.676500  0.342900  1
  C  C314  1  0.078000  0.323500  0.657100  1
  C  C315  1  0.882300  0.598600  0.354600  1
  C  C316  1  0.117700  0.401400  0.645400  1
  C  C317  1  0.878600  0.583200  0.291600  1
  C  C318  1  0.121400  0.416800  0.708400  1
  C  C319  1  0.749100  0.779500  0.218800  1
  C  C320  1  0.250900  0.220500  0.781200  1
  C  C321  1  0.748900  0.798800  0.280300  1
  C  C322  1  0.251100  0.201200  0.719700  1
  C  C323  1  0.712600  0.730600  0.332800  1
  C  C324  1  0.287400  0.269400  0.667200  1
  C  C325  1  0.690100  0.668900  0.303800  1
  C  C326  1  0.309900  0.331100  0.696200  1
  C  C327  1  0.714000  0.697800  0.233200  1
  C  C328  1  0.286000  0.302200  0.766800  1
  C  C329  1  0.017100  0.598300  0.142800  1
  C  C330  1  0.982900  0.401700  0.857200  1
  C  C331  1  0.074700  0.618100  0.086200  1
  C  C332  1  0.925300  0.381900  0.913800  1
  C  C333  1  0.146900  0.566400  0.086800  1
  C  C334  1  0.853100  0.433600  0.913200  1
  C  C335  1  0.160800  0.497400  0.140600  1
  C  C336  1  0.839200  0.502600  0.859400  1
  C  C337  1  0.104900  0.477800  0.195600  1
  C  C338  1  0.895100  0.522200  0.804400  1
  C  C339  1  0.032400  0.528400  0.195800  1
  C  C340  1  0.967600  0.471600  0.804200  1
  C  C341  1  0.964100  0.772100  0.115100  1
  C  C342  1  0.035900  0.227900  0.884900  1
  C  C343  1  0.046800  0.790700  0.126800  1
  C  C344  1  0.953200  0.209300  0.873200  1
  C  C345  1  0.071900  0.872200  0.108600  1
  C  C346  1  0.928100  0.127800  0.891400  1
  C  C347  1  0.014600  0.935200  0.081100  1
  C  C348  1  0.985400  0.064800  0.918900  1
  C  C349  1  0.932700  0.918200  0.068300  1
  C  C350  1  0.067300  0.081800  0.931700  1
  C  C351  1  0.908300  0.836400  0.084400  1
  C  C352  1  0.091700  0.163600  0.915600  1
  C  C353  1  0.688800  0.534500  0.218300  1
  C  C354  1  0.311200  0.465500  0.781700  1
  C  C355  1  0.748900  0.473800  0.214300  1
  C  C356  1  0.251100  0.526200  0.785700  1
  C  C357  1  0.735900  0.390400  0.251900  1
  C  C358  1  0.264100  0.609600  0.748100  1
  C  C359  1  0.662800  0.368200  0.293200  1
  C  C360  1  0.337200  0.631800  0.706800  1
  C  C361  1  0.602800  0.426000  0.298800  1
  C  C362  1  0.397200  0.574000  0.701200  1
  C  C363  1  0.615500  0.510800  0.261200  1
  C  C364  1  0.384500  0.489200  0.738800  1
  C  C365  1  0.609500  0.682100  0.129900  1
  C  C366  1  0.390500  0.317900  0.870100  1
  C  C367  1  0.550600  0.628300  0.119700  1
  C  C368  1  0.449400  0.371700  0.880300  1
  C  C369  1  0.480500  0.663800  0.082200  1
  C  C370  1  0.519500  0.336200  0.917800  1
  C  C371  1  0.469100  0.747800  0.056500  1
  C  C372  1  0.530900  0.252200  0.943500  1
  C  C373  1  0.528700  0.800200  0.067600  1
  C  C374  1  0.471300  0.199800  0.932400  1
  C  C375  1  0.597500  0.767200  0.104600  1
  C  C376  1  0.402500  0.232800  0.895400  1
  C  C377  1  0.688200  0.937900  0.447900  1
  C  C378  1  0.311800  0.062100  0.552100  1
  C  C379  1  0.698700  0.000500  0.962700  1
  C  C380  1  0.301300  0.999500  0.037300  1
  C  C381  1  0.776600  0.733100  0.731300  1
  C  C382  1  0.223400  0.266900  0.268700  1
  C  C383  1  0.836600  0.670600  0.547800  1
  C  C384  1  0.163400  0.329400  0.452200  1
  C  C385  1  0.236800  0.796100  0.956300  1
  C  C386  1  0.763200  0.203900  0.043700  1
  S  S387  1  0.726330  0.043740  0.413480  1
  S  S388  1  0.273670  0.956260  0.586520  1
  S  S389  1  0.732600  0.936560  0.908120  1
  S  S390  1  0.267400  0.063440  0.091880  1
  S  S391  1  0.808500  0.571300  0.576800  1
  S  S392  1  0.191500  0.428700  0.423200  1
  S  S393  1  0.273940  0.713710  0.920370  1
  S  S394  1  0.726060  0.286290  0.079630  1
  N  N395  1  0.810100  0.018600  0.641400  1
  N  N396  1  0.189900  0.981400  0.358600  1
  N  N397  1  0.062000  0.822100  0.668100  1
  N  N398  1  0.938000  0.177900  0.331900  1
  N  N399  1  0.079600  0.735800  0.776700  1
  N  N400  1  0.920400  0.264200  0.223300  1
  N  N401  1  0.899800  0.662200  0.004500  1
  N  N402  1  0.100200  0.337800  0.995500  1
  N  N403  1  0.724500  0.627400  0.028500  1
  N  N404  1  0.275500  0.372600  0.971500  1
  N  N405  1  0.490600  0.635400  0.870100  1
  N  N406  1  0.509400  0.364600  0.129900  1
  N  N407  1  0.454600  0.749600  0.782400  1
  N  N408  1  0.545400  0.250400  0.217600  1
  N  N409  1  0.632100  0.002600  0.670400  1
  N  N410  1  0.367900  0.997400  0.329600  1
  Cl  Cl411  1  0.733790  0.806700  0.663080  1
  Cl  Cl412  1  0.266210  0.193300  0.336920  1
  Cl  Cl413  1  0.775600  0.771300  0.805700  1
  Cl  Cl414  1  0.224400  0.228700  0.194300  1
  O  O415  1  0.983800  0.705600  0.711500  1
  O  O416  1  0.016200  0.294400  0.288500  1
  O  O417  1  0.569300  0.670200  0.770100  1
  O  O418  1  0.430700  0.329800  0.229900  1
  O  O419  1  0.690800  0.070900  0.348000  1
  O  O420  1  0.309200  0.929100  0.652000  1
  O  O421  1  0.690700  0.082700  0.461200  1
  O  O422  1  0.309300  0.917300  0.538800  1
  O  O423  1  0.817500  0.034100  0.412200  1
  O  O424  1  0.182500  0.965900  0.587800  1
  O  O425  1  0.761100  0.996600  0.846000  1
  O  O426  1  0.238900  0.003400  0.154000  1
  O  O427  1  0.654800  0.897200  0.903000  1
  O  O428  1  0.345200  0.102800  0.097000  1
  O  O429  1  0.791500  0.880600  0.949100  1
  O  O430  1  0.208500  0.119400  0.050900  1
  O  O431  1  0.889100  0.530300  0.567600  1
  O  O432  1  0.110900  0.469700  0.432400  1
  O  O433  1  0.775900  0.570000  0.653800  1
  O  O434  1  0.224100  0.430000  0.346200  1
  O  O435  1  0.745900  0.562700  0.528200  1
  O  O436  1  0.254100  0.437300  0.471800  1
  O  O437  1  0.348100  0.679900  0.954300  1
  O  O438  1  0.651900  0.320100  0.045700  1
  O  O439  1  0.288500  0.761200  0.848300  1
  O  O440  1  0.711500  0.238800  0.151700  1
  O  O441  1  0.208200  0.653700  0.935900  1
  O  O442  1  0.791800  0.346300  0.064100  1
  O  O443  1  0.188500  0.883200  0.762700  1
  O  O444  1  0.811500  0.116800  0.237300  1
  O  O445  1  0.677900  0.542000  0.762900  1
  O  O446  1  0.322100  0.458000  0.237100  1
  O  O447  1  0.537600  0.507300  0.435500  1
  O  O448  1  0.462400  0.492700  0.564500  1
  O  O449  1  0.672100  0.639100  0.697000  1
  O  O450  1  0.327900  0.360900  0.303000  1
  O  O451  1  0.678200  0.439600  0.443200  1
  O  O452  1  0.321800  0.560400  0.556800  1
  F  F453  1  0.713600  0.891900  0.407300  1
  F  F454  1  0.286400  0.108100  0.592700  1
  F  F455  1  0.716700  0.900900  0.509200  1
  F  F456  1  0.283300  0.099100  0.490800  1
  F  F457  1  0.604000  0.935400  0.454000  1
  F  F458  1  0.396000  0.064600  0.546000  1
  F  F459  1  0.763500  0.040700  0.974100  1
  F  F460  1  0.236500  0.959300  0.025900  1
  F  F461  1  0.665300  0.959000  0.021800  1
  F  F462  1  0.334700  0.041000  0.978200  1
  F  F463  1  0.643600  0.059400  0.933600  1
  F  F464  1  0.356400  0.940600  0.066400  1
  F  F465  1  0.894800  0.692500  0.496900  1
  F  F466  1  0.105200  0.307500  0.503100  1
  F  F467  1  0.883400  0.703600  0.583300  1
  F  F468  1  0.116600  0.296400  0.416700  1
  F  F469  1  0.774900  0.727200  0.530900  1
  F  F470  1  0.225100  0.272800  0.469100  1
  F  F471  1  0.224500  0.762200  0.025600  1
  F  F472  1  0.775500  0.237800  0.974400  1
  F  F473  1  0.296600  0.851900  0.947500  1
  F  F474  1  0.703400  0.148100  0.052500  1
  F  F475  1  0.167200  0.827400  0.933900  1
  F  F476  1  0.832800  0.172600  0.066100  1
