# generated using pymatgen
data_Zn8P17H276C351N79F102
_symmetry_space_group_name_H-M   'P 1'
_cell_length_a   19.05260000
_cell_length_b   19.62560000
_cell_length_c   29.69400000
_cell_angle_alpha   73.03100000
_cell_angle_beta   71.92800000
_cell_angle_gamma   67.32700000
_symmetry_Int_Tables_number   1
_chemical_formula_structural   Zn8P17H276C351N79F102
_chemical_formula_sum   'Zn8 P17 H276 C351 N79 F102'
_cell_volume   9549.99411099
_cell_formula_units_Z   1
loop_
 _symmetry_equiv_pos_site_id
 _symmetry_equiv_pos_as_xyz
  1  'x, y, z'
loop_
 _atom_site_type_symbol
 _atom_site_label
 _atom_site_symmetry_multiplicity
 _atom_site_fract_x
 _atom_site_fract_y
 _atom_site_fract_z
 _atom_site_occupancy
  Zn  Zn1  1  0.441700  0.200060  0.537758  1
  Zn  Zn2  1  0.558300  0.799940  0.462242  1
  Zn  Zn3  1  0.484850  0.169320  0.101575  1
  Zn  Zn4  1  0.515150  0.830680  0.898425  1
  Zn  Zn5  1  0.104050  0.864380  0.273394  1
  Zn  Zn6  1  0.895950  0.135620  0.726606  1
  Zn  Zn7  1  0.796300  0.600390  0.172960  1
  Zn  Zn8  1  0.203700  0.399610  0.827040  1
  P  P9  1  0.559080  0.837960  0.081750  1
  P  P10  1  0.440920  0.162040  0.918250  1
  P  P11  1  0.403680  0.629010  0.283160  1
  P  P12  1  0.596320  0.370990  0.716840  1
  P  P13  1  0.354450  0.939580  0.297130  1
  P  P14  1  0.645550  0.060420  0.702870  1
  P  P15  1  0.157080  0.326320  0.671440  1
  P  P16  1  0.842920  0.673680  0.328560  1
  P  P17  1  0.686780  0.204830  0.285610  1
  P  P18  1  0.313220  0.795170  0.714390  1
  P  P19  1  0.985230  0.662000  0.674120  1
  P  P20  1  0.014770  0.338000  0.325880  1
  P  P21  1  0.885660  0.436740  0.982620  1
  P  P22  1  0.114340  0.563260  0.017380  1
  P  P23  1  0.082980  0.067650  0.067150  1
  P  P24  1  0.917020  0.932350  0.932850  1
  P  P25  1  0.000000  0.000000  0.500000  1
  H  H26  1  0.332200  0.311600  0.608000  1
  H  H27  1  0.667800  0.688400  0.392000  1
  H  H28  1  0.345000  0.361700  0.666400  1
  H  H29  1  0.655000  0.638300  0.333600  1
  H  H30  1  0.466900  0.333500  0.679900  1
  H  H31  1  0.533100  0.666500  0.320100  1
  H  H32  1  0.576600  0.254600  0.636000  1
  H  H33  1  0.423400  0.745400  0.364000  1
  H  H34  1  0.631600  0.170100  0.573100  1
  H  H35  1  0.368400  0.829900  0.426900  1
  H  H36  1  0.613300  0.184500  0.441700  1
  H  H37  1  0.386700  0.815500  0.558300  1
  H  H38  1  0.717200  0.109300  0.393400  1
  H  H39  1  0.282800  0.890700  0.606600  1
  H  H40  1  0.778000  0.961700  0.513300  1
  H  H41  1  0.222000  0.038300  0.486700  1
  H  H42  1  0.674300  0.036900  0.561300  1
  H  H43  1  0.325700  0.963100  0.438700  1
  H  H44  1  0.772800  0.010700  0.359100  1
  H  H45  1  0.227200  0.989300  0.640900  1
  H  H46  1  0.875800  0.936600  0.309000  1
  H  H47  1  0.124200  0.063400  0.691000  1
  H  H48  1  0.997300  0.851900  0.413500  1
  H  H49  1  0.002700  0.148100  0.586500  1
  H  H50  1  0.895900  0.927400  0.463000  1
  H  H51  1  0.104100  0.072600  0.537000  1
  H  H52  1  0.978900  0.749300  0.364100  1
  H  H53  1  0.021100  0.250700  0.635900  1
  H  H54  1  0.037600  0.624300  0.339300  1
  H  H55  1  0.962400  0.375700  0.660700  1
  H  H56  1  0.136500  0.544700  0.290000  1
  H  H57  1  0.863500  0.455300  0.710000  1
  H  H58  1  0.229500  0.593100  0.229700  1
  H  H59  1  0.770500  0.406900  0.770300  1
  H  H60  1  0.220600  0.717700  0.221900  1
  H  H61  1  0.779400  0.282300  0.778100  1
  H  H62  1  0.455000  0.121400  0.648600  1
  H  H63  1  0.545000  0.878600  0.351400  1
  H  H64  1  0.438200  0.016300  0.704600  1
  H  H65  1  0.561800  0.983700  0.295400  1
  H  H66  1  0.403900  0.929700  0.682300  1
  H  H67  1  0.596100  0.070300  0.317700  1
  H  H68  1  0.396800  0.949800  0.601200  1
  H  H69  1  0.603200  0.050200  0.398800  1
  H  H70  1  0.406600  0.029400  0.517300  1
  H  H71  1  0.593400  0.970600  0.482700  1
  H  H72  1  0.505500  0.193200  0.424500  1
  H  H73  1  0.494500  0.806800  0.575500  1
  H  H74  1  0.495300  0.223300  0.345000  1
  H  H75  1  0.504700  0.776700  0.655000  1
  H  H76  1  0.328600  0.125900  0.382000  1
  H  H77  1  0.671400  0.874100  0.618000  1
  H  H78  1  0.338000  0.094700  0.463100  1
  H  H79  1  0.662000  0.905300  0.536900  1
  H  H80  1  0.381700  0.103900  0.303200  1
  H  H81  1  0.618300  0.896100  0.696800  1
  H  H82  1  0.385600  0.130900  0.220800  1
  H  H83  1  0.614400  0.869100  0.779200  1
  H  H84  1  0.432400  0.321300  0.205400  1
  H  H85  1  0.567600  0.678700  0.794600  1
  H  H86  1  0.432300  0.292600  0.286500  1
  H  H87  1  0.567700  0.707400  0.713500  1
  H  H88  1  0.346100  0.345000  0.154000  1
  H  H89  1  0.653900  0.655000  0.846000  1
  H  H90  1  0.301600  0.430700  0.079000  1
  H  H91  1  0.698400  0.569300  0.921000  1
  H  H92  1  0.308100  0.450500  0.996700  1
  H  H93  1  0.691900  0.549500  0.003300  1
  H  H94  1  0.381600  0.353300  0.955800  1
  H  H95  1  0.618400  0.646700  0.044200  1
  H  H96  1  0.462400  0.243200  0.993700  1
  H  H97  1  0.537600  0.756800  0.006300  1
  H  H98  1  0.278400  0.165200  0.598300  1
  H  H99  1  0.721600  0.834800  0.401700  1
  H  H100  1  0.156600  0.196400  0.583000  1
  H  H101  1  0.843400  0.803600  0.417000  1
  H  H102  1  0.119300  0.293800  0.518600  1
  H  H103  1  0.880700  0.706200  0.481400  1
  H  H104  1  0.208300  0.359200  0.471000  1
  H  H105  1  0.791700  0.640800  0.529000  1
  H  H106  1  0.339100  0.373200  0.453400  1
  H  H107  1  0.660900  0.626800  0.546600  1
  H  H108  1  0.435400  0.355800  0.387300  1
  H  H109  1  0.564600  0.644200  0.612700  1
  H  H110  1  0.529200  0.406600  0.332600  1
  H  H111  1  0.470800  0.593400  0.667400  1
  H  H112  1  0.641900  0.359500  0.438500  1
  H  H113  1  0.358100  0.640500  0.561500  1
  H  H114  1  0.547000  0.313300  0.494100  1
  H  H115  1  0.453000  0.686700  0.505900  1
  H  H116  1  0.573400  0.520000  0.323300  1
  H  H117  1  0.426600  0.480000  0.676700  1
  H  H118  1  0.661800  0.576500  0.267600  1
  H  H119  1  0.338200  0.423500  0.732400  1
  H  H120  1  0.841600  0.388300  0.298200  1
  H  H121  1  0.158400  0.611700  0.701800  1
  H  H122  1  0.752800  0.332100  0.354000  1
  H  H123  1  0.247200  0.667900  0.646000  1
  H  H124  1  0.888500  0.487600  0.282200  1
  H  H125  1  0.111500  0.512400  0.717800  1
  H  H126  1  0.011800  0.521100  0.257600  1
  H  H127  1  0.988200  0.478900  0.742400  1
  H  H128  1  0.088800  0.592100  0.202100  1
  H  H129  1  0.911200  0.407900  0.797900  1
  H  H130  1  0.040300  0.681100  0.136500  1
  H  H131  1  0.959700  0.318900  0.863500  1
  H  H132  1  0.925000  0.683300  0.122500  1
  H  H133  1  0.075000  0.316700  0.877500  1
  H  H134  1  0.216700  0.726300  0.336800  1
  H  H135  1  0.783300  0.273700  0.663200  1
  H  H136  1  0.251300  0.703400  0.409200  1
  H  H137  1  0.748700  0.296600  0.590800  1
  H  H138  1  0.216500  0.802700  0.448000  1
  H  H139  1  0.783500  0.197300  0.552000  1
  H  H140  1  0.147000  0.925300  0.411900  1
  H  H141  1  0.853000  0.074700  0.588100  1
  H  H142  1  0.086700  0.010300  0.342300  1
  H  H143  1  0.913300  0.989700  0.657700  1
  H  H144  1  0.108700  0.032900  0.200100  1
  H  H145  1  0.891300  0.967100  0.799900  1
  H  H146  1  0.059200  0.156500  0.160800  1
  H  H147  1  0.940800  0.843500  0.839200  1
  H  H148  1  0.902800  0.205200  0.285400  1
  H  H149  1  0.097200  0.794800  0.714600  1
  H  H150  1  0.957600  0.082600  0.324800  1
  H  H151  1  0.042400  0.917400  0.675200  1
  H  H152  1  0.051200  0.282000  0.151100  1
  H  H153  1  0.948800  0.718000  0.848900  1
  H  H154  1  0.006900  0.410200  0.117800  1
  H  H155  1  0.993100  0.589800  0.882200  1
  H  H156  1  0.788100  0.422300  0.195600  1
  H  H157  1  0.211900  0.577700  0.804400  1
  H  H158  1  0.832700  0.293800  0.228800  1
  H  H159  1  0.167300  0.706200  0.771200  1
  H  H160  1  0.924200  0.495600  0.068500  1
  H  H161  1  0.075800  0.504400  0.931500  1
  H  H162  1  0.915600  0.604700  0.996600  1
  H  H163  1  0.084400  0.395300  0.003400  1
  H  H164  1  0.871000  0.735200  0.968400  1
  H  H165  1  0.129000  0.264800  0.031600  1
  H  H166  1  0.787800  0.814700  0.021000  1
  H  H167  1  0.212200  0.185300  0.979000  1
  H  H168  1  0.755200  0.764000  0.103300  1
  H  H169  1  0.244800  0.236000  0.896700  1
  H  H170  1  0.503500  0.057800  0.031800  1
  H  H171  1  0.496500  0.942200  0.968200  1
  H  H172  1  0.603700  0.984400  0.981000  1
  H  H173  1  0.396300  0.015600  0.019000  1
  H  H174  1  0.730200  0.988900  0.965500  1
  H  H175  1  0.269800  0.011100  0.034500  1
  H  H176  1  0.750400  0.072900  0.998900  1
  H  H177  1  0.249600  0.927100  0.001100  1
  H  H178  1  0.692500  0.178000  0.045300  1
  H  H179  1  0.307500  0.822000  0.954700  1
  H  H180  1  0.614500  0.320600  0.031800  1
  H  H181  1  0.385500  0.679400  0.968200  1
  H  H182  1  0.635300  0.417200  0.051100  1
  H  H183  1  0.364700  0.582800  0.948900  1
  H  H184  1  0.607500  0.312400  0.190900  1
  H  H185  1  0.392500  0.687600  0.809100  1
  H  H186  1  0.587400  0.217200  0.171600  1
  H  H187  1  0.412600  0.782800  0.828400  1
  H  H188  1  0.711600  0.458900  0.073600  1
  H  H189  1  0.288400  0.541100  0.926400  1
  H  H190  1  0.735200  0.553400  0.092700  1
  H  H191  1  0.264800  0.446600  0.907300  1
  H  H192  1  0.581100  0.533500  0.221400  1
  H  H193  1  0.418900  0.466500  0.778600  1
  H  H194  1  0.560700  0.437600  0.203100  1
  H  H195  1  0.439300  0.562400  0.796900  1
  H  H196  1  0.573100  0.672600  0.185400  1
  H  H197  1  0.426900  0.327400  0.814600  1
  H  H198  1  0.530700  0.782900  0.226500  1
  H  H199  1  0.469300  0.217100  0.773500  1
  H  H200  1  0.565300  0.859900  0.257500  1
  H  H201  1  0.434700  0.140100  0.742500  1
  H  H202  1  0.697500  0.833300  0.254400  1
  H  H203  1  0.302500  0.166700  0.745600  1
  H  H204  1  0.791200  0.735100  0.218900  1
  H  H205  1  0.208800  0.264900  0.781100  1
  H  H206  1  0.323400  0.195800  0.072900  1
  H  H207  1  0.676600  0.804200  0.927100  1
  H  H208  1  0.235800  0.130900  0.089300  1
  H  H209  1  0.764200  0.869100  0.910700  1
  H  H210  1  0.258100  0.012200  0.140300  1
  H  H211  1  0.741900  0.987800  0.859700  1
  H  H212  1  0.370600  0.960700  0.171400  1
  H  H213  1  0.629400  0.039300  0.828600  1
  H  H214  1  0.498900  0.969000  0.173600  1
  H  H215  1  0.501100  0.031000  0.826400  1
  H  H216  1  0.563500  0.107200  0.210200  1
  H  H217  1  0.436500  0.892800  0.789800  1
  H  H218  1  0.684300  0.064500  0.231300  1
  H  H219  1  0.315700  0.935500  0.768700  1
  H  H220  1  0.767400  0.910000  0.146700  1
  H  H221  1  0.232600  0.090000  0.853300  1
  H  H222  1  0.646200  0.951100  0.126600  1
  H  H223  1  0.353800  0.048900  0.873400  1
  H  H224  1  0.810400  0.064200  0.206800  1
  H  H225  1  0.189600  0.935800  0.793200  1
  H  H226  1  0.938200  0.030300  0.214900  1
  H  H227  1  0.061800  0.969700  0.785100  1
  H  H228  1  0.977500  0.817200  0.206000  1
  H  H229  1  0.022500  0.182800  0.794000  1
  H  H230  1  0.849200  0.850400  0.200500  1
  H  H231  1  0.150800  0.149600  0.799500  1
  H  H232  1  0.086200  0.903500  0.142700  1
  H  H233  1  0.913800  0.096500  0.857300  1
  H  H234  1  0.229700  0.870500  0.100000  1
  H  H235  1  0.770300  0.129500  0.900000  1
  H  H236  1  0.359900  0.836200  0.104800  1
  H  H237  1  0.640100  0.163800  0.895200  1
  H  H238  1  0.387900  0.818200  0.179100  1
  H  H239  1  0.612100  0.181800  0.820900  1
  H  H240  1  0.288300  0.837200  0.246300  1
  H  H241  1  0.711700  0.162800  0.753700  1
  H  H242  1  0.187900  0.364900  0.320400  1
  H  H243  1  0.812100  0.635100  0.679600  1
  H  H244  1  0.169900  0.321200  0.375100  1
  H  H245  1  0.830100  0.678800  0.624900  1
  H  H246  1  0.241700  0.280300  0.336300  1
  H  H247  1  0.758300  0.719700  0.663700  1
  H  H248  1  0.842200  0.284400  0.099400  1
  H  H249  1  0.157800  0.715600  0.900600  1
  H  H250  1  0.892700  0.208400  0.128600  1
  H  H251  1  0.107300  0.791600  0.871400  1
  H  H252  1  0.802200  0.246100  0.151300  1
  H  H253  1  0.197800  0.753900  0.848700  1
  H  H254  1  0.130200  0.158000  0.260300  1
  H  H255  1  0.869800  0.842000  0.739700  1
  H  H256  1  0.199800  0.158500  0.279500  1
  H  H257  1  0.800200  0.841500  0.720500  1
  H  H258  1  0.214900  0.096900  0.249100  1
  H  H259  1  0.785100  0.903100  0.750900  1
  H  H260  1  0.513200  0.632100  0.106700  1
  H  H261  1  0.486800  0.367900  0.893300  1
  H  H262  1  0.444200  0.597400  0.134200  1
  H  H263  1  0.555800  0.402600  0.865800  1
  H  H264  1  0.439200  0.675800  0.143200  1
  H  H265  1  0.560800  0.324200  0.856800  1
  H  H266  1  0.025500  0.031600  0.936800  1
  H  H267  1  0.974500  0.968400  0.063200  1
  H  H268  1  0.099000  0.999400  0.961000  1
  H  H269  1  0.901000  0.000600  0.039000  1
  H  H270  1  0.111800  0.002400  0.904700  1
  H  H271  1  0.888200  0.997600  0.095300  1
  H  H272  1  0.212200  0.612100  0.069400  1
  H  H273  1  0.787800  0.387900  0.930600  1
  H  H274  1  0.275700  0.582200  0.101600  1
  H  H275  1  0.724300  0.417800  0.898400  1
  H  H276  1  0.285300  0.642000  0.052100  1
  H  H277  1  0.714700  0.358000  0.947900  1
  H  H278  1  0.927100  0.558300  0.442800  1
  H  H279  1  0.072900  0.441700  0.557200  1
  H  H280  1  0.915500  0.478100  0.467600  1
  H  H281  1  0.084500  0.521900  0.532400  1
  H  H282  1  0.930800  0.504500  0.410100  1
  H  H283  1  0.069200  0.495500  0.589900  1
  H  H284  1  0.895600  0.841100  0.633400  1
  H  H285  1  0.104400  0.158900  0.366600  1
  H  H286  1  0.868000  0.923700  0.601400  1
  H  H287  1  0.132000  0.076300  0.398600  1
  H  H288  1  0.950000  0.863900  0.582400  1
  H  H289  1  0.050000  0.136100  0.417600  1
  H  H290  1  0.890400  0.115100  0.418400  1
  H  H291  1  0.109600  0.884900  0.581600  1
  H  H292  1  0.900000  0.204800  0.387300  1
  H  H293  1  0.100000  0.795200  0.612700  1
  H  H294  1  0.830900  0.174000  0.376700  1
  H  H295  1  0.169100  0.826000  0.623300  1
  H  H296  1  0.106100  0.747700  0.040500  1
  H  H297  1  0.893900  0.252300  0.959500  1
  H  H298  1  0.155700  0.804400  0.019800  1
  H  H299  1  0.844300  0.195600  0.980200  1
  H  H300  1  0.063600  0.835600  0.041000  1
  H  H301  1  0.936400  0.164400  0.959000  1
  C  C302  1  0.382400  0.299600  0.613630  1
  C  C303  1  0.617600  0.700400  0.386370  1
  C  C304  1  0.389700  0.329800  0.648460  1
  C  C305  1  0.610300  0.670200  0.351540  1
  C  C306  1  0.461300  0.313000  0.656380  1
  C  C307  1  0.538700  0.687000  0.343620  1
  C  C308  1  0.526300  0.266500  0.630530  1
  C  C309  1  0.473700  0.733500  0.369470  1
  C  C310  1  0.516400  0.237700  0.596550  1
  C  C311  1  0.483600  0.762300  0.403450  1
  C  C312  1  0.580500  0.187600  0.567480  1
  C  C313  1  0.419500  0.812400  0.432520  1
  C  C314  1  0.633300  0.119000  0.505840  1
  C  C315  1  0.366700  0.881000  0.494160  1
  C  C316  1  0.646900  0.138900  0.456350  1
  C  C317  1  0.353100  0.861100  0.543650  1
  C  C318  1  0.708500  0.094100  0.427550  1
  C  C319  1  0.291500  0.905900  0.572450  1
  C  C320  1  0.758400  0.026200  0.448300  1
  C  C321  1  0.241600  0.973800  0.551700  1
  C  C322  1  0.744300  0.007000  0.498460  1
  C  C323  1  0.255700  0.993000  0.501540  1
  C  C324  1  0.683000  0.051600  0.527130  1
  C  C325  1  0.317000  0.948400  0.472870  1
  C  C326  1  0.823900  0.977300  0.416480  1
  C  C327  1  0.176100  0.022700  0.583520  1
  C  C328  1  0.818600  0.978700  0.370330  1
  C  C329  1  0.181400  0.021300  0.629670  1
  C  C330  1  0.879400  0.933900  0.340700  1
  C  C331  1  0.120600  0.066100  0.659300  1
  C  C332  1  0.944600  0.885800  0.357070  1
  C  C333  1  0.055400  0.114200  0.642930  1
  C  C334  1  0.951400  0.884100  0.402500  1
  C  C335  1  0.048600  0.115900  0.597500  1
  C  C336  1  0.891100  0.929300  0.431700  1
  C  C337  1  0.108900  0.070700  0.568300  1
  C  C338  1  0.013500  0.767800  0.336900  1
  C  C339  1  0.986500  0.232200  0.663100  1
  C  C340  1  0.073500  0.716500  0.307600  1
  C  C341  1  0.926500  0.283500  0.692400  1
  C  C342  1  0.075700  0.642200  0.314800  1
  C  C343  1  0.924300  0.357800  0.685200  1
  C  C344  1  0.133900  0.595400  0.285900  1
  C  C345  1  0.866100  0.404600  0.714100  1
  C  C346  1  0.188800  0.623900  0.250400  1
  C  C347  1  0.811200  0.376100  0.749600  1
  C  C348  1  0.182700  0.698600  0.245900  1
  C  C349  1  0.817300  0.301400  0.754100  1
  C  C350  1  0.443400  0.085700  0.638830  1
  C  C351  1  0.556600  0.914300  0.361170  1
  C  C352  1  0.432600  0.023700  0.672620  1
  C  C353  1  0.567400  0.976300  0.327380  1
  C  C354  1  0.413700  0.972200  0.659440  1
  C  C355  1  0.586300  0.027800  0.340560  1
  C  C356  1  0.409100  0.984500  0.611540  1
  C  C357  1  0.590900  0.015500  0.388460  1
  C  C358  1  0.422600  0.046900  0.579530  1
  C  C359  1  0.577400  0.953100  0.420470  1
  C  C360  1  0.419600  0.062500  0.528720  1
  C  C361  1  0.580400  0.937500  0.471280  1
  C  C362  1  0.424400  0.138200  0.451260  1
  C  C363  1  0.575600  0.861800  0.548740  1
  C  C364  1  0.470200  0.178500  0.415890  1
  C  C365  1  0.529800  0.821500  0.584110  1
  C  C366  1  0.463600  0.196500  0.368750  1
  C  C367  1  0.536400  0.803500  0.631250  1
  C  C368  1  0.412100  0.176700  0.354840  1
  C  C369  1  0.587900  0.823300  0.645160  1
  C  C370  1  0.365200  0.139000  0.390590  1
  C  C371  1  0.634800  0.861000  0.609410  1
  C  C372  1  0.370800  0.119900  0.439020  1
  C  C373  1  0.629200  0.880100  0.560980  1
  C  C374  1  0.408100  0.195200  0.303410  1
  C  C375  1  0.591900  0.804800  0.696590  1
  C  C376  1  0.393100  0.147600  0.283310  1
  C  C377  1  0.606900  0.852400  0.716690  1
  C  C378  1  0.394900  0.164100  0.234300  1
  C  C379  1  0.605100  0.835900  0.765700  1
  C  C380  1  0.409800  0.228000  0.205060  1
  C  C381  1  0.590200  0.772000  0.794940  1
  C  C382  1  0.423100  0.276500  0.225030  1
  C  C383  1  0.576900  0.723500  0.774970  1
  C  C384  1  0.422500  0.259400  0.273300  1
  C  C385  1  0.577500  0.740600  0.726700  1
  C  C386  1  0.376000  0.307600  0.134980  1
  C  C387  1  0.624000  0.692400  0.865020  1
  C  C388  1  0.378000  0.325700  0.083400  1
  C  C389  1  0.622000  0.674300  0.916600  1
  C  C390  1  0.334200  0.392200  0.061300  1
  C  C391  1  0.665800  0.607800  0.938700  1
  C  C392  1  0.337300  0.403500  0.012900  1
  C  C393  1  0.662700  0.596500  0.987100  1
  C  C394  1  0.382100  0.347300  0.988600  1
  C  C395  1  0.617900  0.652700  0.011400  1
  C  C396  1  0.428500  0.281300  0.011430  1
  C  C397  1  0.571500  0.718700  0.988570  1
  C  C398  1  0.264100  0.204200  0.571680  1
  C  C399  1  0.735900  0.795800  0.428320  1
  C  C400  1  0.191300  0.222900  0.563000  1
  C  C401  1  0.808700  0.777100  0.437000  1
  C  C402  1  0.169100  0.280300  0.525200  1
  C  C403  1  0.830900  0.719700  0.474800  1
  C  C404  1  0.222000  0.318400  0.496800  1
  C  C405  1  0.778000  0.681600  0.503200  1
  C  C406  1  0.293300  0.295300  0.507250  1
  C  C407  1  0.706700  0.704700  0.492750  1
  C  C408  1  0.353500  0.328400  0.476640  1
  C  C409  1  0.646500  0.671600  0.523360  1
  C  C410  1  0.481100  0.330400  0.446300  1
  C  C411  1  0.518900  0.669600  0.553700  1
  C  C412  1  0.476800  0.357400  0.397910  1
  C  C413  1  0.523200  0.642600  0.602090  1
  C  C414  1  0.533400  0.386700  0.365310  1
  C  C415  1  0.466600  0.613300  0.634690  1
  C  C416  1  0.595900  0.387300  0.379710  1
  C  C417  1  0.404100  0.612700  0.620290  1
  C  C418  1  0.599500  0.359400  0.428150  1
  C  C419  1  0.400500  0.640600  0.571850  1
  C  C420  1  0.543500  0.331600  0.461270  1
  C  C421  1  0.456500  0.668400  0.538730  1
  C  C422  1  0.654200  0.421000  0.345050  1
  C  C423  1  0.345800  0.579000  0.654950  1
  C  C424  1  0.627800  0.493400  0.318630  1
  C  C425  1  0.372200  0.506600  0.681370  1
  C  C426  1  0.680400  0.527000  0.285470  1
  C  C427  1  0.319600  0.473000  0.714530  1
  C  C428  1  0.760600  0.488500  0.278220  1
  C  C429  1  0.239400  0.511500  0.721780  1
  C  C430  1  0.787300  0.415500  0.303500  1
  C  C431  1  0.212700  0.584500  0.696500  1
  C  C432  1  0.734200  0.382100  0.336750  1
  C  C433  1  0.265800  0.617900  0.663250  1
  C  C434  1  0.874700  0.519800  0.253270  1
  C  C435  1  0.125300  0.480200  0.746730  1
  C  C436  1  0.926600  0.560700  0.220070  1
  C  C437  1  0.073400  0.439300  0.779930  1
  C  C438  1  0.995200  0.554200  0.229600  1
  C  C439  1  0.004800  0.445800  0.770400  1
  C  C440  1  0.039800  0.597400  0.197200  1
  C  C441  1  0.960200  0.402600  0.802800  1
  C  C442  1  0.012400  0.648600  0.157600  1
  C  C443  1  0.987600  0.351400  0.842400  1
  C  C444  1  0.943200  0.650500  0.150100  1
  C  C445  1  0.056800  0.349500  0.849900  1
  C  C446  1  0.201500  0.767100  0.352600  1
  C  C447  1  0.798500  0.232900  0.647400  1
  C  C448  1  0.222900  0.753000  0.395600  1
  C  C449  1  0.777100  0.247000  0.604400  1
  C  C450  1  0.202700  0.811100  0.418300  1
  C  C451  1  0.797300  0.188900  0.581700  1
  C  C452  1  0.161400  0.883600  0.397100  1
  C  C453  1  0.838600  0.116400  0.602900  1
  C  C454  1  0.142100  0.892700  0.354060  1
  C  C455  1  0.857900  0.107300  0.645940  1
  C  C456  1  0.099300  0.966900  0.329500  1
  C  C457  1  0.900700  0.033100  0.670500  1
  C  C458  1  0.041000  0.047400  0.266870  1
  C  C459  1  0.959000  0.952600  0.733130  1
  C  C460  1  0.068700  0.068700  0.217740  1
  C  C461  1  0.931300  0.931300  0.782260  1
  C  C462  1  0.038200  0.142000  0.194240  1
  C  C463  1  0.961800  0.858000  0.805760  1
  C  C464  1  0.977400  0.194900  0.218670  1
  C  C465  1  0.022600  0.805100  0.781330  1
  C  C466  1  0.946100  0.171100  0.268210  1
  C  C467  1  0.053900  0.828900  0.731790  1
  C  C468  1  0.978500  0.098000  0.291530  1
  C  C469  1  0.021500  0.902000  0.708470  1
  C  C470  1  0.946900  0.275600  0.194420  1
  C  C471  1  0.053100  0.724400  0.805580  1
  C  C472  1  0.997700  0.310400  0.160510  1
  C  C473  1  0.002300  0.689600  0.839490  1
  C  C474  1  0.971300  0.386500  0.140200  1
  C  C475  1  0.028700  0.613500  0.859800  1
  C  C476  1  0.893700  0.427400  0.152520  1
  C  C477  1  0.106300  0.572600  0.847480  1
  C  C478  1  0.841500  0.393600  0.186380  1
  C  C479  1  0.158500  0.606400  0.813620  1
  C  C480  1  0.868400  0.317500  0.206480  1
  C  C481  1  0.131600  0.682500  0.793520  1
  C  C482  1  0.889000  0.530500  0.088390  1
  C  C483  1  0.111000  0.469500  0.911610  1
  C  C484  1  0.862500  0.611900  0.067130  1
  C  C485  1  0.137500  0.388100  0.932870  1
  C  C486  1  0.883600  0.638100  0.018100  1
  C  C487  1  0.116400  0.361900  0.981900  1
  C  C488  1  0.856100  0.714900  0.001700  1
  C  C489  1  0.143900  0.285100  0.998300  1
  C  C490  1  0.807900  0.762000  0.032600  1
  C  C491  1  0.192100  0.238000  0.967400  1
  C  C492  1  0.788700  0.731400  0.081610  1
  C  C493  1  0.211300  0.268600  0.918390  1
  C  C494  1  0.554400  0.061200  0.024770  1
  C  C495  1  0.445600  0.938800  0.975230  1
  C  C496  1  0.613800  0.016700  0.994810  1
  C  C497  1  0.386200  0.983300  0.005190  1
  C  C498  1  0.687900  0.019900  0.985290  1
  C  C499  1  0.312100  0.980100  0.014710  1
  C  C500  1  0.699800  0.069300  0.005190  1
  C  C501  1  0.300200  0.930700  0.994810  1
  C  C502  1  0.637400  0.112900  0.034130  1
  C  C503  1  0.362600  0.887100  0.965870  1
  C  C504  1  0.645000  0.166900  0.055170  1
  C  C505  1  0.355000  0.833100  0.944830  1
  C  C506  1  0.598400  0.259900  0.100120  1
  C  C507  1  0.401600  0.740100  0.899880  1
  C  C508  1  0.612600  0.319300  0.064400  1
  C  C509  1  0.387400  0.680700  0.935600  1
  C  C510  1  0.624200  0.377100  0.076100  1
  C  C511  1  0.375800  0.622900  0.923900  1
  C  C512  1  0.620000  0.377300  0.123990  1
  C  C513  1  0.380000  0.622700  0.876010  1
  C  C514  1  0.607900  0.315300  0.158350  1
  C  C515  1  0.392100  0.684700  0.841650  1
  C  C516  1  0.596600  0.258300  0.146910  1
  C  C517  1  0.403400  0.741700  0.853090  1
  C  C518  1  0.633500  0.437800  0.136030  1
  C  C519  1  0.366500  0.562200  0.863970  1
  C  C520  1  0.685300  0.473600  0.103890  1
  C  C521  1  0.314700  0.526400  0.896110  1
  C  C522  1  0.699400  0.529900  0.115090  1
  C  C523  1  0.300600  0.470100  0.884910  1
  C  C524  1  0.661100  0.552400  0.159140  1
  C  C525  1  0.338900  0.447600  0.840860  1
  C  C526  1  0.608400  0.517800  0.191530  1
  C  C527  1  0.391600  0.482200  0.808470  1
  C  C528  1  0.595900  0.461500  0.180320  1
  C  C529  1  0.404100  0.538500  0.819680  1
  C  C530  1  0.625200  0.663700  0.186510  1
  C  C531  1  0.374800  0.336300  0.813490  1
  C  C532  1  0.643000  0.715200  0.204780  1
  C  C533  1  0.357000  0.284800  0.795220  1
  C  C534  1  0.583800  0.774100  0.225250  1
  C  C535  1  0.416200  0.225900  0.774750  1
  C  C536  1  0.604100  0.819200  0.243690  1
  C  C537  1  0.395900  0.180800  0.756310  1
  C  C538  1  0.682100  0.803700  0.241540  1
  C  C539  1  0.317900  0.196300  0.758460  1
  C  C540  1  0.737800  0.744500  0.220530  1
  C  C541  1  0.262200  0.255500  0.779470  1
  C  C542  1  0.333333  0.147100  0.092960  1
  C  C543  1  0.666667  0.852900  0.907040  1
  C  C544  1  0.280500  0.109000  0.102880  1
  C  C545  1  0.719500  0.891000  0.897120  1
  C  C546  1  0.293800  0.039100  0.132580  1
  C  C547  1  0.706200  0.960900  0.867420  1
  C  C548  1  0.359900  0.009000  0.150850  1
  C  C549  1  0.640100  0.991000  0.849150  1
  C  C550  1  0.410500  0.049200  0.139200  1
  C  C551  1  0.589500  0.950800  0.860800  1
  C  C552  1  0.481800  0.020100  0.157490  1
  C  C553  1  0.518200  0.979900  0.842510  1
  C  C554  1  0.593900  0.033800  0.166810  1
  C  C555  1  0.406100  0.966200  0.833190  1
  C  C556  1  0.604900  0.067000  0.197290  1
  C  C557  1  0.395100  0.933000  0.802710  1
  C  C558  1  0.677300  0.041800  0.209560  1
  C  C559  1  0.322700  0.958200  0.790440  1
  C  C560  1  0.739600  0.983400  0.190080  1
  C  C561  1  0.260400  0.016600  0.809920  1
  C  C562  1  0.726300  0.950400  0.159720  1
  C  C563  1  0.273700  0.049600  0.840280  1
  C  C564  1  0.654100  0.974600  0.147580  1
  C  C565  1  0.345900  0.025400  0.852420  1
  C  C566  1  0.818200  0.960400  0.199830  1
  C  C567  1  0.181800  0.039600  0.800170  1
  C  C568  1  0.844500  0.014000  0.205970  1
  C  C569  1  0.155500  0.986000  0.794030  1
  C  C570  1  0.920500  0.993800  0.210810  1
  C  C571  1  0.079500  0.006200  0.789190  1
  C  C572  1  0.970500  0.921000  0.209670  1
  C  C573  1  0.029500  0.079000  0.790330  1
  C  C574  1  0.943900  0.867700  0.205900  1
  C  C575  1  0.056100  0.132300  0.794100  1
  C  C576  1  0.867700  0.888100  0.201900  1
  C  C577  1  0.132300  0.111900  0.798100  1
  C  C578  1  0.101900  0.894900  0.171850  1
  C  C579  1  0.898100  0.105100  0.828150  1
  C  C580  1  0.184700  0.873500  0.171250  1
  C  C581  1  0.815300  0.126500  0.828750  1
  C  C582  1  0.242300  0.863500  0.129900  1
  C  C583  1  0.757700  0.136500  0.870100  1
  C  C584  1  0.318900  0.843100  0.132900  1
  C  C585  1  0.681100  0.156900  0.867100  1
  C  C586  1  0.335300  0.833000  0.176500  1
  C  C587  1  0.664700  0.167000  0.823500  1
  C  C588  1  0.276200  0.844200  0.216200  1
  C  C589  1  0.723800  0.155800  0.783800  1
  C  C590  1  0.265100  0.358100  0.359300  1
  C  C591  1  0.734900  0.641900  0.640700  1
  C  C592  1  0.211300  0.328400  0.346600  1
  C  C593  1  0.788700  0.671600  0.653400  1
  C  C594  1  0.821500  0.194000  0.099200  1
  C  C595  1  0.178500  0.806000  0.900800  1
  C  C596  1  0.841100  0.236400  0.121300  1
  C  C597  1  0.158900  0.763600  0.878700  1
  C  C598  1  0.207200  0.198100  0.209900  1
  C  C599  1  0.792800  0.801900  0.790100  1
  C  C600  1  0.186500  0.149200  0.253000  1
  C  C601  1  0.813500  0.850800  0.747000  1
  C  C602  1  0.417300  0.684100  0.079600  1
  C  C603  1  0.582700  0.315900  0.920400  1
  C  C604  1  0.456700  0.644100  0.119200  1
  C  C605  1  0.543300  0.355900  0.880800  1
  C  C606  1  0.086100  0.110000  0.919600  1
  C  C607  1  0.913900  0.890000  0.080400  1
  C  C608  1  0.080000  0.028000  0.931700  1
  C  C609  1  0.920000  0.972000  0.068300  1
  C  C610  1  0.199600  0.692000  0.108400  1
  C  C611  1  0.800400  0.308000  0.891600  1
  C  C612  1  0.247700  0.625800  0.080200  1
  C  C613  1  0.752300  0.374200  0.919800  1
  C  C614  1  0.127700  0.415000  0.167500  1
  C  C615  1  0.872300  0.585000  0.832500  1
  C  C616  1  0.174700  0.436600  0.193800  1
  C  C617  1  0.825300  0.563400  0.806200  1
  C  C618  1  0.023200  0.473000  0.436100  1
  C  C619  1  0.976800  0.527000  0.563900  1
  C  C620  1  0.943300  0.505900  0.439400  1
  C  C621  1  0.056700  0.494100  0.560600  1
  C  C622  1  0.858100  0.844100  0.577000  1
  C  C623  1  0.141900  0.155900  0.423000  1
  C  C624  1  0.895900  0.870300  0.600400  1
  C  C625  1  0.104100  0.129700  0.399600  1
  C  C626  1  0.799400  0.208000  0.443200  1
  C  C627  1  0.200600  0.792000  0.556800  1
  C  C628  1  0.858300  0.173600  0.404300  1
  C  C629  1  0.141700  0.826400  0.595700  1
  C  C630  1  0.245900  0.516600  0.587500  1
  C  C631  1  0.754100  0.483400  0.412500  1
  C  C632  1  0.321600  0.486700  0.565700  1
  C  C633  1  0.678400  0.513300  0.434300  1
  C  C634  1  0.223200  0.537900  0.432800  1
  C  C635  1  0.776800  0.462100  0.567200  1
  C  C636  1  0.231300  0.518300  0.474300  1
  C  C637  1  0.768700  0.481700  0.525700  1
  C  C638  1  0.609900  0.397600  0.545000  1
  C  C639  1  0.390100  0.602400  0.455000  1
  C  C640  1  0.112000  0.793000  0.044500  1
  C  C641  1  0.888000  0.207000  0.955500  1
  C  C642  1  0.126000  0.780000  0.095400  1
  C  C643  1  0.874000  0.220000  0.904600  1
  C  C644  1  0.168100  0.354400  0.124600  1
  C  C645  1  0.831900  0.645600  0.875400  1
  C  C646  1  0.257300  0.491900  0.546600  1
  C  C647  1  0.742700  0.508100  0.453400  1
  C  C648  1  0.510700  0.453200  0.555400  1
  C  C649  1  0.489300  0.546800  0.444600  1
  C  C650  1  0.454000  0.443900  0.552200  1
  C  C651  1  0.546000  0.556100  0.447800  1
  C  C652  1  0.566200  0.463100  0.560500  0.5
  N  N653  1  0.566200  0.463100  0.560500  0.5
  C  C654  1  0.433800  0.536900  0.439500  0.5
  N  N655  1  0.433800  0.536900  0.439500  0.5
  N  N656  1  0.444000  0.254300  0.588070  1
  N  N657  1  0.556000  0.745700  0.411930  1
  N  N658  1  0.568200  0.167100  0.534520  1
  N  N659  1  0.431800  0.832900  0.465480  1
  N  N660  1  0.006300  0.837800  0.326760  1
  N  N661  1  0.993700  0.162200  0.673240  1
  N  N662  1  0.126000  0.744900  0.273690  1
  N  N663  1  0.874000  0.255100  0.726310  1
  N  N664  1  0.438400  0.098800  0.593020  1
  N  N665  1  0.561600  0.901200  0.406980  1
  N  N666  1  0.434300  0.120700  0.499500  1
  N  N667  1  0.565700  0.879300  0.500500  1
  N  N668  1  0.414100  0.242200  0.154680  1
  N  N669  1  0.585900  0.757800  0.845320  1
  N  N670  1  0.426200  0.270500  0.058710  1
  N  N671  1  0.573800  0.729500  0.941290  1
  N  N672  1  0.315600  0.239200  0.543900  1
  N  N673  1  0.684400  0.760800  0.456100  1
  N  N674  1  0.424200  0.299200  0.480180  1
  N  N675  1  0.575800  0.700800  0.519820  1
  N  N676  1  0.811200  0.527000  0.243870  1
  N  N677  1  0.188800  0.473000  0.756130  1
  N  N678  1  0.901600  0.607400  0.180720  1
  N  N679  1  0.098400  0.392600  0.819280  1
  N  N680  1  0.160700  0.834900  0.332160  1
  N  N681  1  0.839300  0.165100  0.667840  1
  N  N682  1  0.079100  0.973100  0.290950  1
  N  N683  1  0.920900  0.026900  0.709050  1
  N  N684  1  0.864900  0.507200  0.133230  1
  N  N685  1  0.135100  0.492800  0.866770  1
  N  N686  1  0.816000  0.657200  0.099090  1
  N  N687  1  0.184000  0.342800  0.900910  1
  N  N688  1  0.564900  0.109100  0.044460  1
  N  N689  1  0.435100  0.890900  0.955540  1
  N  N690  1  0.589700  0.199700  0.086550  1
  N  N691  1  0.410300  0.800300  0.913450  1
  N  N692  1  0.679800  0.606700  0.172020  1
  N  N693  1  0.320200  0.393300  0.827980  1
  N  N694  1  0.719600  0.700200  0.202470  1
  N  N695  1  0.280400  0.299800  0.797530  1
  N  N696  1  0.397500  0.117800  0.110490  1
  N  N697  1  0.602500  0.882200  0.889510  1
  N  N698  1  0.520800  0.062800  0.151930  1
  N  N699  1  0.479200  0.937200  0.848070  1
  N  N700  1  0.050100  0.902100  0.211750  1
  N  N701  1  0.949900  0.097900  0.788250  1
  N  N702  1  0.201500  0.864600  0.214370  1
  N  N703  1  0.798500  0.135400  0.785630  1
  N  N704  1  0.305700  0.385700  0.364700  1
  N  N705  1  0.694300  0.614300  0.635300  1
  N  N706  1  0.805000  0.161400  0.080700  1
  N  N707  1  0.195000  0.838600  0.919300  1
  N  N708  1  0.223000  0.240000  0.171600  1
  N  N709  1  0.777000  0.760000  0.828400  1
  N  N710  1  0.382700  0.718100  0.048800  1
  N  N711  1  0.617300  0.281900  0.951200  1
  N  N712  1  0.089400  0.173000  0.909600  1
  N  N713  1  0.910600  0.827000  0.090400  1
  N  N714  1  0.154700  0.740900  0.133000  1
  N  N715  1  0.845300  0.259100  0.867000  1
  N  N716  1  0.219400  0.447000  0.216400  1
  N  N717  1  0.780600  0.553000  0.783600  1
  N  N718  1  0.085700  0.447800  0.433500  1
  N  N719  1  0.914300  0.552200  0.566500  1
  N  N720  1  0.842600  0.819000  0.552400  1
  N  N721  1  0.157400  0.181000  0.447600  1
  N  N722  1  0.752300  0.235500  0.474300  1
  N  N723  1  0.247700  0.764500  0.525700  1
  N  N724  1  0.385400  0.454900  0.546100  1
  N  N725  1  0.614600  0.545100  0.453900  1
  N  N726  1  0.217100  0.549500  0.394000  1
  N  N727  1  0.782900  0.450500  0.606000  1
  N  N728  1  0.649000  0.342500  0.533600  1
  N  N729  1  0.351000  0.657500  0.466400  1
  N  N730  1  0.191000  0.308000  0.100600  1
  N  N731  1  0.809000  0.692000  0.899400  1
  N  N732  1  0.266300  0.473000  0.513200  1
  N  N733  1  0.733700  0.527000  0.486800  1
  F  F734  1  0.611480  0.751870  0.091470  1
  F  F735  1  0.388520  0.248130  0.908530  1
  F  F736  1  0.623080  0.861300  0.092420  1
  F  F737  1  0.376920  0.138700  0.907580  1
  F  F738  1  0.505600  0.923750  0.072240  1
  F  F739  1  0.494400  0.076250  0.927760  1
  F  F740  1  0.494620  0.814570  0.071540  1
  F  F741  1  0.505380  0.185430  0.928460  1
  F  F742  1  0.601640  0.845500  0.025710  1
  F  F743  1  0.398360  0.154500  0.974290  1
  F  F744  1  0.516040  0.830600  0.137740  1
  F  F745  1  0.483960  0.169400  0.862260  1
  F  F746  1  0.440100  0.542900  0.282200  1
  F  F747  1  0.559900  0.457100  0.717800  1
  F  F748  1  0.487800  0.636700  0.265600  1
  F  F749  1  0.512200  0.363300  0.734400  1
  F  F750  1  0.368400  0.714000  0.286800  1
  F  F751  1  0.631600  0.286000  0.713200  1
  F  F752  1  0.320500  0.618300  0.303000  1
  F  F753  1  0.679500  0.381700  0.697000  1
  F  F754  1  0.395600  0.645100  0.231200  1
  F  F755  1  0.604400  0.354900  0.768800  1
  F  F756  1  0.409100  0.616600  0.335940  1
  F  F757  1  0.590900  0.383400  0.664060  1
  F  F758  1  0.277100  0.961400  0.278420  1
  F  F759  1  0.722900  0.038600  0.721580  1
  F  F760  1  0.377100  0.006300  0.257590  1
  F  F761  1  0.622900  0.993700  0.742410  1
  F  F762  1  0.331300  0.872200  0.336250  1
  F  F763  1  0.668700  0.127800  0.663750  1
  F  F764  1  0.432100  0.916400  0.315350  1
  F  F765  1  0.567900  0.083600  0.684650  1
  F  F766  1  0.308800  0.994700  0.334100  1
  F  F767  1  0.691200  0.005300  0.665900  1
  F  F768  1  0.400600  0.886000  0.258600  1
  F  F769  1  0.599400  0.114000  0.741400  1
  F  F770  1  0.203000  0.364300  0.688180  1
  F  F771  1  0.797000  0.635700  0.311820  1
  F  F772  1  0.084400  0.402700  0.670910  1
  F  F773  1  0.915600  0.597300  0.329090  1
  F  F774  1  0.111600  0.287500  0.654830  1
  F  F775  1  0.888400  0.712500  0.345170  1
  F  F776  1  0.229500  0.250500  0.672280  1
  F  F777  1  0.770500  0.749500  0.327720  1
  F  F778  1  0.120700  0.297200  0.726650  1
  F  F779  1  0.879300  0.702800  0.273350  1
  F  F780  1  0.194800  0.354900  0.615700  1
  F  F781  1  0.805200  0.645100  0.384300  1
  F  F782  1  0.617800  0.199400  0.267450  1
  F  F783  1  0.382200  0.800600  0.732550  1
  F  F784  1  0.655300  0.293500  0.271310  1
  F  F785  1  0.344700  0.706500  0.728690  1
  F  F786  1  0.754700  0.207500  0.304490  1
  F  F787  1  0.245300  0.792500  0.695510  1
  F  F788  1  0.715400  0.115900  0.300210  1
  F  F789  1  0.284600  0.884100  0.699790  1
  F  F790  1  0.739800  0.201200  0.232970  1
  F  F791  1  0.260200  0.798800  0.767030  1
  F  F792  1  0.632500  0.207400  0.338810  1
  F  F793  1  0.367500  0.792600  0.661190  1
  F  F794  1  0.010300  0.732200  0.663600  1
  F  F795  1  0.989700  0.267800  0.336400  1
  F  F796  1  0.899200  0.704100  0.699500  1
  F  F797  1  0.100800  0.295900  0.300500  1
  F  F798  1  0.068800  0.617300  0.646800  1
  F  F799  1  0.931200  0.382700  0.353200  1
  F  F800  1  0.961600  0.588500  0.683400  1
  F  F801  1  0.038400  0.411500  0.316600  1
  F  F802  1  0.009900  0.636300  0.724600  1
  F  F803  1  0.990100  0.363700  0.275400  1
  F  F804  1  0.959100  0.689100  0.623700  1
  F  F805  1  0.040900  0.310900  0.376300  1
  F  F806  1  0.942800  0.482900  0.959100  1
  F  F807  1  0.057200  0.517100  0.040900  1
  F  F808  1  0.939300  0.370600  0.953700  1
  F  F809  1  0.060700  0.629400  0.046300  1
  F  F810  1  0.829900  0.498800  0.014900  1
  F  F811  1  0.170100  0.501200  0.985100  1
  F  F812  1  0.828600  0.387300  0.009600  1
  F  F813  1  0.171400  0.612700  0.990400  1
  F  F814  1  0.932500  0.394100  0.024410  1
  F  F815  1  0.067500  0.605900  0.975590  1
  F  F816  1  0.838100  0.472600  0.943100  1
  F  F817  1  0.161900  0.527400  0.056900  1
  F  F818  1  0.058400  0.149800  0.070570  1
  F  F819  1  0.941600  0.850200  0.929430  1
  F  F820  1  0.144100  0.084000  0.019230  1
  F  F821  1  0.855900  0.916000  0.980770  1
  F  F822  1  0.114000  0.981700  0.061360  1
  F  F823  1  0.886000  0.018300  0.938640  1
  F  F824  1  0.022100  0.049700  0.115530  1
  F  F825  1  0.977900  0.950300  0.884470  1
  F  F826  1  0.020900  0.086300  0.036980  1
  F  F827  1  0.979100  0.913700  0.963020  1
  F  F828  1  0.144100  0.051100  0.096220  1
  F  F829  1  0.855900  0.948900  0.903780  1
  F  F830  1  0.996500  0.982500  0.556800  1.0
  F  F831  1  0.003500  0.017500  0.443200  1.0
  F  F832  1  0.986500  0.085500  0.498000  1.0
  F  F833  1  0.013500  0.914500  0.502000  1.0
  F  F834  1  0.909200  0.019500  0.509300  1.0
  F  F835  1  0.090800  0.980500  0.490700  1.0
