# generated using pymatgen
data_Zn2PH61C84S4N15(O5F9)2
_symmetry_space_group_name_H-M   'P 1'
_cell_length_a   19.95830000
_cell_length_b   23.33516294
_cell_length_c   27.34601471
_cell_angle_alpha   113.04477083
_cell_angle_beta   108.88979495
_cell_angle_gamma   95.53759157
_symmetry_Int_Tables_number   1
_chemical_formula_structural   Zn2PH61C84S4N15(O5F9)2
_chemical_formula_sum   'Zn8 P4 H244 C336 S16 N60 O40 F72'
_cell_volume   10717.68508377
_cell_formula_units_Z   4
loop_
 _symmetry_equiv_pos_site_id
 _symmetry_equiv_pos_as_xyz
  1  'x, y, z'
loop_
 _atom_site_type_symbol
 _atom_site_label
 _atom_site_symmetry_multiplicity
 _atom_site_fract_x
 _atom_site_fract_y
 _atom_site_fract_z
 _atom_site_occupancy
  C  C1  1  0.425900  0.391900  0.607800  1
  C  C2  1  0.681900  0.215900  0.607800  1
  C  C3  1  0.574100  0.608100  0.392200  1
  C  C4  1  0.318100  0.784100  0.392200  1
  C  C5  1  0.461600  0.408500  0.666200  1
  C  C6  1  0.704600  0.257700  0.666200  1
  C  C7  1  0.538400  0.591500  0.333800  1
  C  C8  1  0.295400  0.742300  0.333800  1
  C  C9  1  0.422600  0.420200  0.701400  1
  C  C10  1  0.778800  0.281200  0.701400  1
  C  C11  1  0.577400  0.579800  0.298600  1
  C  C12  1  0.221200  0.718800  0.298600  1
  C  C13  1  0.348000  0.415400  0.678400  1
  C  C14  1  0.830400  0.263000  0.678400  1
  C  C15  1  0.652000  0.584600  0.321600  1
  C  C16  1  0.169600  0.737000  0.321600  1
  C  C17  1  0.312400  0.399000  0.620200  1
  C  C18  1  0.807800  0.221200  0.620200  1
  C  C19  1  0.687600  0.601000  0.379800  1
  C  C20  1  0.192200  0.778800  0.379800  1
  C  C21  1  0.232000  0.392600  0.594600  1
  C  C22  1  0.862600  0.202000  0.594600  1
  C  C23  1  0.768000  0.607400  0.405400  1
  C  C24  1  0.137400  0.798000  0.405400  1
  C  C25  1  0.304600  0.429600  0.821400  1
  C  C26  1  0.016800  0.391800  0.821400  1
  C  C27  1  0.695400  0.570400  0.178600  1
  C  C28  1  0.983200  0.608200  0.178600  1
  C  C29  1  0.103100  0.276400  0.640800  1
  C  C30  1  0.037700  0.364400  0.640800  1
  C  C31  1  0.896900  0.723600  0.359200  1
  C  C32  1  0.962300  0.635600  0.359200  1
  C  C33  1  0.411600  0.399500  0.621000  1.0
  C  C34  1  0.709400  0.221500  0.621000  1.0
  C  C35  1  0.588400  0.600500  0.379000  1.0
  C  C36  1  0.290600  0.778500  0.379000  1.0
  C  C37  1  0.440300  0.391300  0.670600  1.0
  C  C38  1  0.730300  0.279300  0.670600  1.0
  C  C39  1  0.559700  0.608700  0.329400  1.0
  C  C40  1  0.269700  0.720700  0.329400  1.0
  C  C41  1  0.394100  0.374100  0.694000  1.0
  C  C42  1  0.799900  0.319900  0.694000  1.0
  C  C43  1  0.605900  0.625900  0.306000  1.0
  C  C44  1  0.200100  0.680100  0.306000  1.0
  C  C45  1  0.319000  0.365000  0.667600  1.0
  C  C46  1  0.848600  0.302600  0.667600  1.0
  C  C47  1  0.681000  0.635000  0.332400  1.0
  C  C48  1  0.151400  0.697400  0.332400  1.0
  C  C49  1  0.290100  0.373100  0.617800  1.0
  C  C50  1  0.827700  0.244700  0.617800  1.0
  C  C51  1  0.709900  0.626900  0.382200  1.0
  C  C52  1  0.172300  0.755300  0.382200  1.0
  C  C53  1  0.215300  0.368800  0.587200  1.0
  C  C54  1  0.871900  0.218400  0.587200  1.0
  C  C55  1  0.784700  0.631200  0.412800  1.0
  C  C56  1  0.128100  0.781600  0.412800  1.0
  C  C57  1  0.122020  0.373820  0.513440  1.0
  C  C58  1  0.891420  0.139620  0.513440  1.0
  C  C59  1  0.877980  0.626180  0.486560  1.0
  C  C60  1  0.108580  0.860380  0.486560  1.0
  C  C61  1  0.069100  0.317100  0.493200  1.0
  C  C62  1  0.924100  0.176100  0.493200  1.0
  C  C63  1  0.930900  0.682900  0.506800  1.0
  C  C64  1  0.075900  0.823900  0.506800  1.0
  C  C65  1  0.996900  0.315600  0.470600  1.0
  C  C66  1  0.973700  0.155000  0.470600  1.0
  C  C67  1  0.003100  0.684400  0.529400  1.0
  C  C68  1  0.026300  0.845000  0.529400  1.0
  C  C69  1  0.975020  0.368420  0.466240  1.0
  C  C70  1  0.991220  0.097820  0.466240  1.0
  C  C71  1  0.024980  0.631580  0.533760  1.0
  C  C72  1  0.008780  0.902180  0.533760  1.0
  C  C73  1  0.028400  0.420200  0.484600  1.0
  C  C74  1  0.956200  0.064400  0.484600  1.0
  C  C75  1  0.971600  0.579800  0.515400  1.0
  C  C76  1  0.043800  0.935600  0.515400  1.0
  C  C77  1  0.100800  0.424500  0.509600  1.0
  C  C78  1  0.908800  0.085100  0.509600  1.0
  C  C79  1  0.899200  0.575500  0.490400  1.0
  C  C80  1  0.091200  0.914900  0.490400  1.0
  C  C81  1  0.892550  0.368950  0.442900  1.0
  C  C82  1  0.050350  0.073950  0.442900  1.0
  C  C83  1  0.107450  0.631050  0.557100  1.0
  C  C84  1  0.949650  0.926050  0.557100  1.0
  C  C85  1  0.843500  0.318200  0.447400  1.0
  C  C86  1  0.103900  0.129200  0.447400  1.0
  C  C87  1  0.156500  0.681800  0.552600  1.0
  C  C88  1  0.896100  0.870800  0.552600  1.0
  C  C89  1  0.798200  0.262100  0.400400  1.0
  C  C90  1  0.102200  0.138300  0.400400  1.0
  C  C91  1  0.201800  0.737900  0.599600  1.0
  C  C92  1  0.897800  0.861700  0.599600  1.0
  C  C93  1  0.749900  0.219700  0.405400  1.0
  C  C94  1  0.155500  0.185700  0.405400  1.0
  C  C95  1  0.250100  0.780300  0.594600  1.0
  C  C96  1  0.844500  0.814300  0.594600  1.0
  C  C97  1  0.749400  0.231400  0.458600  1.0
  C  C98  1  0.209200  0.227200  0.458600  1.0
  C  C99  1  0.250600  0.768600  0.541400  1.0
  C  C100  1  0.790800  0.772800  0.541400  1.0
  C  C101  1  0.797000  0.286400  0.507000  1.0
  C  C102  1  0.210000  0.220600  0.507000  1.0
  C  C103  1  0.203000  0.713600  0.493000  1.0
  C  C104  1  0.790000  0.779400  0.493000  1.0
  C  C105  1  0.841800  0.328500  0.500200  1.0
  C  C106  1  0.158400  0.171700  0.500200  1.0
  C  C107  1  0.158200  0.671500  0.499800  1.0
  C  C108  1  0.841600  0.828300  0.499800  1.0
  C  C109  1  0.633100  0.183400  0.441800  1.0
  C  C110  1  0.308700  0.258400  0.441800  1.0
  C  C111  1  0.366900  0.816600  0.558200  1.0
  C  C112  1  0.691300  0.741600  0.558200  1.0
  C  C113  1  0.865890  0.362490  0.382380  1.0
  C  C114  1  0.016490  0.019890  0.382380  1.0
  C  C115  1  0.134110  0.637510  0.617620  1.0
  C  C116  1  0.983510  0.980110  0.617620  1.0
  C  C117  1  0.807500  0.388000  0.363600  1.0
  C  C118  1  0.056100  0.975600  0.363600  1.0
  C  C119  1  0.192500  0.612000  0.636400  1.0
  C  C120  1  0.943900  0.024400  0.636400  1.0
  C  C121  1  0.784100  0.385500  0.309800  1.0
  C  C122  1  0.025700  0.924300  0.309800  1.0
  C  C123  1  0.215900  0.614500  0.690200  1.0
  C  C124  1  0.974300  0.075700  0.690200  1.0
  C  C125  1  0.812000  0.357500  0.271000  1.0
  C  C126  1  0.959000  0.913500  0.271000  1.0
  C  C127  1  0.188000  0.642500  0.729000  1.0
  C  C128  1  0.041000  0.086500  0.729000  1.0
  C  C129  1  0.866400  0.329000  0.287600  1.0
  C  C130  1  0.921200  0.958600  0.287600  1.0
  C  C131  1  0.133600  0.671000  0.712400  1.0
  C  C132  1  0.078800  0.041400  0.712400  1.0
  C  C133  1  0.892100  0.332200  0.343200  1.0
  C  C134  1  0.951100  0.011000  0.343200  1.0
  C  C135  1  0.107900  0.667800  0.656800  1.0
  C  C136  1  0.048900  0.989000  0.656800  1.0
  C  C137  1  0.818500  0.395300  0.205400  1.0
  C  C138  1  0.886900  0.810100  0.205400  1.0
  C  C139  1  0.181500  0.604700  0.794600  1.0
  C  C140  1  0.113100  0.189900  0.794600  1.0
  C  C141  1  0.793820  0.398320  0.152440  1.0
  C  C142  1  0.858620  0.754120  0.152440  1.0
  C  C143  1  0.206180  0.601680  0.847560  1.0
  C  C144  1  0.141380  0.245880  0.847560  1.0
  C  C145  1  0.829120  0.442320  0.140440  1.0
  C  C146  1  0.811320  0.698120  0.140440  1.0
  C  C147  1  0.170880  0.557680  0.859560  1.0
  C  C148  1  0.188680  0.301880  0.859560  1.0
  C  C149  1  0.799700  0.441100  0.086400  1.0
  C  C150  1  0.786700  0.645300  0.086400  1.0
  C  C151  1  0.200300  0.558900  0.913600  1.0
  C  C152  1  0.213300  0.354700  0.913600  1.0
  C  C153  1  0.734860  0.395760  0.044320  1.0
  C  C154  1  0.809460  0.648560  0.044320  1.0
  C  C155  1  0.265140  0.604240  0.955680  1.0
  C  C156  1  0.190540  0.351440  0.955680  1.0
  C  C157  1  0.699560  0.351760  0.056320  1.0
  C  C158  1  0.856760  0.704560  0.056320  1.0
  C  C159  1  0.300440  0.648240  0.943680  1.0
  C  C160  1  0.143240  0.295440  0.943680  1.0
  C  C161  1  0.352100  0.531900  0.586600  1.0
  C  C162  1  0.734500  0.054700  0.586600  1.0
  C  C163  1  0.647900  0.468100  0.413400  1.0
  C  C164  1  0.265500  0.945300  0.413400  1.0
  C  C165  1  0.360300  0.595900  0.599800  1.0
  C  C166  1  0.739500  0.003900  0.599800  1.0
  C  C167  1  0.639700  0.404100  0.400200  1.0
  C  C168  1  0.260500  0.996100  0.400200  1.0
  C  C169  1  0.319100  0.612200  0.558800  1.0
  C  C170  1  0.739700  0.946600  0.558800  1.0
  C  C171  1  0.680900  0.387800  0.441200  1.0
  C  C172  1  0.260300  0.053400  0.441200  1.0
  C  C173  1  0.270900  0.564500  0.506000  1.0
  C  C174  1  0.735100  0.941500  0.506000  1.0
  C  C175  1  0.729100  0.435500  0.494000  1.0
  C  C176  1  0.264900  0.058500  0.494000  1.0
  C  C177  1  0.267200  0.501200  0.496000  1.0
  C  C178  1  0.728800  0.994800  0.496000  1.0
  C  C179  1  0.732800  0.498800  0.504000  1.0
  C  C180  1  0.271200  0.005200  0.504000  1.0
  C  C181  1  0.218900  0.447800  0.440600  1.0
  C  C182  1  0.721700  0.992800  0.440600  1.0
  C  C183  1  0.781100  0.552200  0.559400  1.0
  C  C184  1  0.278300  0.007200  0.559400  1.0
  C  C185  1  0.164900  0.340200  0.375800  1.0
  C  C186  1  0.710900  0.035600  0.375800  1.0
  C  C187  1  0.835100  0.659800  0.624200  1.0
  C  C188  1  0.289100  0.964400  0.624200  1.0
  C  C189  1  0.191400  0.298900  0.341800  1.0
  C  C190  1  0.650400  0.042900  0.341800  1.0
  C  C191  1  0.808600  0.701100  0.658200  1.0
  C  C192  1  0.349600  0.957100  0.658200  1.0
  C  C193  1  0.147400  0.250000  0.287000  1.0
  C  C194  1  0.639600  0.037000  0.287000  1.0
  C  C195  1  0.852600  0.750000  0.713000  1.0
  C  C196  1  0.360400  0.963000  0.713000  1.0
  C  C197  1  0.075300  0.241300  0.263600  1.0
  C  C198  1  0.688300  0.022300  0.263600  1.0
  C  C199  1  0.924700  0.758700  0.736400  1.0
  C  C200  1  0.311700  0.977700  0.736400  1.0
  C  C201  1  0.047300  0.278300  0.301600  1.0
  C  C202  1  0.754300  0.023300  0.301600  1.0
  C  C203  1  0.952700  0.721700  0.698400  1.0
  C  C204  1  0.245700  0.976700  0.698400  1.0
  C  C205  1  0.091600  0.327300  0.356000  1.0
  C  C206  1  0.764400  0.028700  0.356000  1.0
  C  C207  1  0.908400  0.672700  0.644000  1.0
  C  C208  1  0.235600  0.971300  0.644000  1.0
  C  C209  1  0.026800  0.190900  0.201400  1.0
  C  C210  1  0.674600  0.010500  0.201400  1.0
  C  C211  1  0.973200  0.809100  0.798600  1.0
  C  C212  1  0.325400  0.989500  0.798600  1.0
  C  C213  1  0.951500  0.198000  0.179600  1.0
  C  C214  1  0.728100  0.981600  0.179600  1.0
  C  C215  1  0.048500  0.802000  0.820400  1.0
  C  C216  1  0.271900  0.018400  0.820400  1.0
  C  C217  1  0.938000  0.244800  0.160800  1.0
  C  C218  1  0.722800  0.916000  0.160800  1.0
  C  C219  1  0.062000  0.755200  0.839200  1.0
  C  C220  1  0.277200  0.084000  0.839200  1.0
  C  C221  1  0.870000  0.251700  0.137800  1.0
  C  C222  1  0.767800  0.886100  0.137800  1.0
  C  C223  1  0.130000  0.748300  0.862200  1.0
  C  C224  1  0.232200  0.113900  0.862200  1.0
  C  C225  1  0.809000  0.211700  0.131800  1.0
  C  C226  1  0.822800  0.920100  0.131800  1.0
  C  C227  1  0.191000  0.788300  0.868200  1.0
  C  C228  1  0.177200  0.079900  0.868200  1.0
  C  C229  1  0.819100  0.164600  0.149800  1.0
  C  C230  1  0.830700  0.985200  0.149800  1.0
  C  C231  1  0.180900  0.835400  0.850200  1.0
  C  C232  1  0.169300  0.014800  0.850200  1.0
  C  C233  1  0.888600  0.159600  0.174800  1.0
  C  C234  1  0.786200  0.015200  0.174800  1.0
  C  C235  1  0.111400  0.840400  0.825200  1.0
  C  C236  1  0.213800  0.984800  0.825200  1.0
  C  C237  1  0.696800  0.174100  0.059600  1.0
  C  C238  1  0.862800  0.885500  0.059600  1.0
  C  C239  1  0.303200  0.825900  0.940400  1.0
  C  C240  1  0.137200  0.114500  0.940400  1.0
  C  C241  1  0.623700  0.175100  0.030400  1.0
  C  C242  1  0.906700  0.855300  0.030400  1.0
  C  C243  1  0.376300  0.824900  0.969600  1.0
  C  C244  1  0.093300  0.144700  0.969600  1.0
  C  C245  1  0.573500  0.125500  0.978400  1.0
  C  C246  1  0.904900  0.852900  0.978400  1.0
  C  C247  1  0.426500  0.874500  0.021600  1.0
  C  C248  1  0.095100  0.147100  0.021600  1.0
  C  C249  1  0.502550  0.130550  0.954700  1.0
  C  C250  1  0.952150  0.824150  0.954700  1.0
  C  C251  1  0.497450  0.869450  0.045300  1.0
  C  C252  1  0.047850  0.175850  0.045300  1.0
  C  C253  1  0.481900  0.185100  0.983000  1.0
  C  C254  1  0.001100  0.797900  0.983000  1.0
  C  C255  1  0.518100  0.814900  0.017000  1.0
  C  C256  1  0.998900  0.202100  0.017000  1.0
  C  C257  1  0.532160  0.234760  0.035120  1.0
  C  C258  1  0.002960  0.800360  0.035120  1.0
  C  C259  1  0.467840  0.765240  0.964880  1.0
  C  C260  1  0.997040  0.199640  0.964880  1.0
  C  C261  1  0.027600  0.123000  0.197200  1.0
  C  C262  1  0.669600  0.074200  0.197200  1.0
  C  C263  1  0.972400  0.877000  0.802800  1.0
  C  C264  1  0.330400  0.925800  0.802800  1.0
  C  C265  1  0.026600  0.107300  0.238800  1.0
  C  C266  1  0.712200  0.131500  0.238800  1.0
  C  C267  1  0.973400  0.892700  0.761200  1.0
  C  C268  1  0.287800  0.868500  0.761200  1.0
  C  C269  1  0.032100  0.045200  0.235200  1.0
  C  C270  1  0.703100  0.190000  0.235200  1.0
  C  C271  1  0.967900  0.954800  0.764800  1.0
  C  C272  1  0.296900  0.810000  0.764800  1.0
  C  C273  1  0.033900  0.000300  0.186800  1.0
  C  C274  1  0.652900  0.186500  0.186800  1.0
  C  C275  1  0.966100  0.999700  0.813200  1.0
  C  C276  1  0.347100  0.813500  0.813200  1.0
  C  C277  1  0.029000  0.013200  0.141000  1.0
  C  C278  1  0.612000  0.127800  0.141000  1.0
  C  C279  1  0.971000  0.986800  0.859000  1.0
  C  C280  1  0.388000  0.872200  0.859000  1.0
  C  C281  1  0.026400  0.075200  0.148400  1.0
  C  C282  1  0.622000  0.073200  0.148400  1.0
  C  C283  1  0.973600  0.924800  0.851600  1.0
  C  C284  1  0.378000  0.926800  0.851600  1.0
  C  C285  1  0.100200  0.928700  0.198600  1.0
  C  C286  1  0.598400  0.269900  0.198600  1.0
  C  C287  1  0.899800  0.071300  0.801400  1.0
  C  C288  1  0.401600  0.730100  0.801400  1.0
  C  C289  1  0.114900  0.865300  0.195400  1.0
  C  C290  1  0.580500  0.330100  0.195400  1.0
  C  C291  1  0.885100  0.134700  0.804600  1.0
  C  C292  1  0.419500  0.669900  0.804600  1.0
  C  C293  1  0.182500  0.858000  0.220800  1.0
  C  C294  1  0.538300  0.362800  0.220800  1.0
  C  C295  1  0.817500  0.142000  0.779200  1.0
  C  C296  1  0.461700  0.637200  0.779200  1.0
  C  C297  1  0.189800  0.796800  0.212600  1.0
  C  C298  1  0.522800  0.415800  0.212600  1.0
  C  C299  1  0.810200  0.203200  0.787400  1.0
  C  C300  1  0.477200  0.584200  0.787400  1.0
  C  C301  1  0.124500  0.746700  0.184200  1.0
  C  C302  1  0.559700  0.437500  0.184200  1.0
  C  C303  1  0.875500  0.253300  0.815800  1.0
  C  C304  1  0.440300  0.562500  0.815800  1.0
  C  C305  1  0.057100  0.759900  0.161200  1.0
  C  C306  1  0.604100  0.401300  0.161200  1.0
  C  C307  1  0.942900  0.240100  0.838800  1.0
  C  C308  1  0.395900  0.598700  0.838800  1.0
  C  C309  1  0.581370  0.141970  0.444340  1.0
  C  C310  1  0.362970  0.302370  0.444340  1.0
  C  C311  1  0.418630  0.858030  0.555660  1.0
  C  C312  1  0.637030  0.697630  0.555660  1.0
  C  C313  1  0.506050  0.130750  0.416500  1.0
  C  C314  1  0.410450  0.285750  0.416500  1.0
  C  C315  1  0.493950  0.869250  0.583500  1.0
  C  C316  1  0.589550  0.714250  0.583500  1.0
  C  C317  1  0.458430  0.086330  0.419860  1.0
  C  C318  1  0.461430  0.333530  0.419860  1.0
  C  C319  1  0.541570  0.913670  0.580140  1.0
  C  C320  1  0.538570  0.666470  0.580140  1.0
  C  C321  1  0.485940  0.053040  0.451080  1.0
  C  C322  1  0.465140  0.398040  0.451080  1.0
  C  C323  1  0.514060  0.946960  0.548920  1.0
  C  C324  1  0.534860  0.601960  0.548920  1.0
  C  C325  1  0.561160  0.064160  0.478920  1.0
  C  C326  1  0.417760  0.414760  0.478920  1.0
  C  C327  1  0.438840  0.935840  0.521080  1.0
  C  C328  1  0.582240  0.585240  0.521080  1.0
  C  C329  1  0.374500  0.188500  0.752000  1.0
  C  C330  1  0.877500  0.563500  0.752000  1.0
  C  C331  1  0.625500  0.811500  0.248000  1.0
  C  C332  1  0.122500  0.436500  0.248000  1.0
  C  C333  1  0.118900  0.201600  0.653000  1.0
  C  C334  1  0.034100  0.451400  0.653000  1.0
  C  C335  1  0.881100  0.798400  0.347000  1.0
  C  C336  1  0.965900  0.548600  0.347000  1.0
  F  F337  1  0.657280  0.889580  0.700760  1
  F  F338  1  0.543480  0.811180  0.700760  1
  F  F339  1  0.342720  0.110420  0.299240  1
  F  F340  1  0.456520  0.188820  0.299240  1
  F  F341  1  0.741460  0.841960  0.687120  1
  F  F342  1  0.445660  0.845160  0.687120  1
  F  F343  1  0.258540  0.158040  0.312880  1
  F  F344  1  0.554340  0.154840  0.312880  1
  F  F345  1  0.772850  0.935850  0.766300  1
  F  F346  1  0.493450  0.830450  0.766300  1
  F  F347  1  0.227150  0.064150  0.233700  1
  F  F348  1  0.506550  0.169550  0.233700  1
  F  F349  1  0.805820  0.933520  0.693640  1
  F  F350  1  0.387820  0.760120  0.693640  1
  F  F351  1  0.194180  0.066480  0.306360  1
  F  F352  1  0.612180  0.239880  0.306360  1
  F  F353  1  0.695180  0.887480  0.630760  1
  F  F354  1  0.435580  0.743280  0.630760  1
  F  F355  1  0.304820  0.112520  0.369240  1
  F  F356  1  0.564420  0.256720  0.369240  1
  F  F357  1  0.716340  0.979540  0.708880  1
  F  F358  1  0.492540  0.729340  0.708880  1
  F  F359  1  0.283660  0.020460  0.291120  1
  F  F360  1  0.507460  0.270660  0.291120  1
  F  F361  1  0.318000  0.376400  0.834000  1
  F  F362  1  0.016000  0.457600  0.834000  1
  F  F363  1  0.682000  0.623600  0.166000  1
  F  F364  1  0.984000  0.542400  0.166000  1
  F  F365  1  0.328200  0.475700  0.876800  1
  F  F366  1  0.048600  0.401100  0.876800  1
  F  F367  1  0.671800  0.524300  0.123200  1
  F  F368  1  0.951400  0.598900  0.123200  1
  F  F369  1  0.371400  0.438500  0.815000  1
  F  F370  1  0.943600  0.376500  0.815000  1
  F  F371  1  0.628600  0.561500  0.185000  1
  F  F372  1  0.056400  0.623500  0.185000  1
  F  F373  1  0.060700  0.308700  0.666000  1
  F  F374  1  0.105300  0.357300  0.666000  1
  F  F375  1  0.939300  0.691300  0.334000  1
  F  F376  1  0.894700  0.642700  0.334000  1
  F  F377  1  0.100400  0.290800  0.596000  1
  F  F378  1  0.995600  0.305200  0.596000  1
  F  F379  1  0.899600  0.709200  0.404000  1
  F  F380  1  0.004400  0.694800  0.404000  1
  F  F381  1  0.072800  0.211600  0.614800  1
  F  F382  1  0.042000  0.403200  0.614800  1
  F  F383  1  0.927200  0.788400  0.385200  1
  F  F384  1  0.958000  0.596800  0.385200  1
  F  F385  1  0.374500  0.183600  0.703000  1.0
  F  F386  1  0.828500  0.519400  0.703000  1.0
  F  F387  1  0.625500  0.816400  0.297000  1.0
  F  F388  1  0.171500  0.480600  0.297000  1.0
  F  F389  1  0.370300  0.132900  0.753200  1.0
  F  F390  1  0.882900  0.620300  0.753200  1.0
  F  F391  1  0.629700  0.867100  0.246800  1.0
  F  F392  1  0.117100  0.379700  0.246800  1.0
  F  F393  1  0.432600  0.231800  0.795000  1.0
  F  F394  1  0.862400  0.563200  0.795000  1.0
  F  F395  1  0.567400  0.768200  0.205000  1.0
  F  F396  1  0.137600  0.436800  0.205000  1.0
  F  F397  1  0.063700  0.167300  0.654400  1.0
  F  F398  1  0.090700  0.487100  0.654400  1.0
  F  F399  1  0.936300  0.832700  0.345600  1.0
  F  F400  1  0.909300  0.512900  0.345600  1.0
  F  F401  1  0.137600  0.256500  0.699200  1.0
  F  F402  1  0.061600  0.442700  0.699200  1.0
  F  F403  1  0.862400  0.743500  0.300800  1.0
  F  F404  1  0.938400  0.557300  0.300800  1.0
  F  F405  1  0.091100  0.214300  0.609400  1.0
  F  F406  1  0.018300  0.395100  0.609400  1.0
  F  F407  1  0.908900  0.785700  0.390600  1.0
  F  F408  1  0.981700  0.604900  0.390600  1.0
  H  H409  1  0.452400  0.383800  0.583600  1
  H  H410  1  0.631200  0.199800  0.583600  1
  H  H411  1  0.547600  0.616200  0.416400  1
  H  H412  1  0.368800  0.800200  0.416400  1
  H  H413  1  0.512500  0.411600  0.681800  1
  H  H414  1  0.669300  0.270200  0.681800  1
  H  H415  1  0.487500  0.588400  0.318200  1
  H  H416  1  0.330700  0.729800  0.318200  1
  H  H417  1  0.447100  0.431600  0.741400  1
  H  H418  1  0.794300  0.309800  0.741400  1
  H  H419  1  0.552900  0.568400  0.258600  1
  H  H420  1  0.205700  0.690200  0.258600  1
  H  H421  1  0.321400  0.423500  0.702600  1
  H  H422  1  0.881200  0.279100  0.702600  1
  H  H423  1  0.678600  0.576500  0.297400  1
  H  H424  1  0.118800  0.720900  0.297400  1
  H  H425  1  0.204900  0.399500  0.618200  1
  H  H426  1  0.913300  0.218700  0.618200  1
  H  H427  1  0.795100  0.600500  0.381800  1
  H  H428  1  0.086700  0.781300  0.381800  1
  H  H429  1  0.443200  0.411300  0.605000  1.0
  H  H430  1  0.661800  0.193700  0.605000  1.0
  H  H431  1  0.556800  0.588700  0.395000  1.0
  H  H432  1  0.338200  0.806300  0.395000  1.0
  H  H433  1  0.491700  0.397600  0.688800  1.0
  H  H434  1  0.697100  0.291200  0.688800  1.0
  H  H435  1  0.508300  0.602400  0.311200  1.0
  H  H436  1  0.302900  0.708800  0.311200  1.0
  H  H437  1  0.413700  0.368500  0.728000  1.0
  H  H438  1  0.814300  0.359500  0.728000  1.0
  H  H439  1  0.586300  0.631500  0.272000  1.0
  H  H440  1  0.185700  0.640500  0.272000  1.0
  H  H441  1  0.287200  0.353100  0.683400  1.0
  H  H442  1  0.896200  0.330300  0.683400  1.0
  H  H443  1  0.712800  0.646900  0.316600  1.0
  H  H444  1  0.103800  0.669700  0.316600  1.0
  H  H445  1  0.178500  0.359700  0.600000  1.0
  H  H446  1  0.921500  0.240300  0.600000  1.0
  H  H447  1  0.821500  0.640300  0.400000  1.0
  H  H448  1  0.078500  0.759700  0.400000  1.0
  H  H449  1  0.083400  0.280200  0.495400  1.0
  H  H450  1  0.912000  0.215200  0.495400  1.0
  H  H451  1  0.916600  0.719800  0.504600  1.0
  H  H452  1  0.088000  0.784800  0.504600  1.0
  H  H453  1  0.960800  0.277400  0.457600  1.0
  H  H454  1  0.996800  0.180200  0.457600  1.0
  H  H455  1  0.039200  0.722600  0.542400  1.0
  H  H456  1  0.003200  0.819800  0.542400  1.0
  H  H457  1  0.014900  0.456200  0.479800  1.0
  H  H458  1  0.964900  0.023600  0.479800  1.0
  H  H459  1  0.985100  0.543800  0.520200  1.0
  H  H460  1  0.035100  0.976400  0.520200  1.0
  H  H461  1  0.136200  0.463800  0.524400  1.0
  H  H462  1  0.888200  0.060600  0.524400  1.0
  H  H463  1  0.863800  0.536200  0.475600  1.0
  H  H464  1  0.111800  0.939400  0.475600  1.0
  H  H465  1  0.799900  0.252000  0.363600  1.0
  H  H466  1  0.063700  0.111600  0.363600  1.0
  H  H467  1  0.200100  0.748000  0.636400  1.0
  H  H468  1  0.936300  0.888400  0.636400  1.0
  H  H469  1  0.717100  0.182500  0.372000  1.0
  H  H470  1  0.154900  0.189500  0.372000  1.0
  H  H471  1  0.282900  0.817500  0.628000  1.0
  H  H472  1  0.845100  0.810500  0.628000  1.0
  H  H473  1  0.798600  0.294800  0.544400  1.0
  H  H474  1  0.245800  0.249600  0.544400  1.0
  H  H475  1  0.201400  0.705200  0.455600  1.0
  H  H476  1  0.754200  0.750400  0.455600  1.0
  H  H477  1  0.873300  0.366600  0.533400  1.0
  H  H478  1  0.160100  0.166800  0.533400  1.0
  H  H479  1  0.126700  0.633400  0.466600  1.0
  H  H480  1  0.839900  0.833200  0.466600  1.0
  H  H481  1  0.617100  0.208300  0.422000  1.0
  H  H482  1  0.304900  0.213700  0.422000  1.0
  H  H483  1  0.382900  0.791700  0.578000  1.0
  H  H484  1  0.695100  0.786300  0.578000  1.0
  H  H485  1  0.784000  0.407400  0.388600  1.0
  H  H486  1  0.104600  0.981200  0.388600  1.0
  H  H487  1  0.216000  0.592600  0.611400  1.0
  H  H488  1  0.895400  0.018800  0.611400  1.0
  H  H489  1  0.745500  0.404800  0.299400  1.0
  H  H490  1  0.053900  0.894600  0.299400  1.0
  H  H491  1  0.254500  0.595200  0.700600  1.0
  H  H492  1  0.946100  0.105400  0.700600  1.0
  H  H493  1  0.887000  0.306700  0.261000  1.0
  H  H494  1  0.874000  0.954300  0.261000  1.0
  H  H495  1  0.113000  0.693300  0.739000  1.0
  H  H496  1  0.126000  0.045700  0.739000  1.0
  H  H497  1  0.929900  0.312000  0.353200  1.0
  H  H498  1  0.923300  0.041200  0.353200  1.0
  H  H499  1  0.070100  0.688000  0.646800  1.0
  H  H500  1  0.076700  0.958800  0.646800  1.0
  H  H501  1  0.862500  0.425300  0.235800  1.0
  H  H502  1  0.873300  0.810500  0.235800  1.0
  H  H503  1  0.137500  0.574700  0.764200  1.0
  H  H504  1  0.126700  0.189500  0.764200  1.0
  H  H505  1  0.873400  0.473300  0.169200  1.0
  H  H506  1  0.795800  0.695900  0.169200  1.0
  H  H507  1  0.126600  0.526700  0.830800  1.0
  H  H508  1  0.204200  0.304100  0.830800  1.0
  H  H509  1  0.823800  0.471200  0.078200  1.0
  H  H510  1  0.754400  0.607000  0.078200  1.0
  H  H511  1  0.176200  0.528800  0.921800  1.0
  H  H512  1  0.245600  0.393000  0.921800  1.0
  H  H513  1  0.714700  0.394900  0.007400  1.0
  H  H514  1  0.792700  0.612500  0.007400  1.0
  H  H515  1  0.285300  0.605100  0.992600  1.0
  H  H516  1  0.207300  0.387500  0.992600  1.0
  H  H517  1  0.655300  0.320800  0.027600  1.0
  H  H518  1  0.872300  0.706800  0.027600  1.0
  H  H519  1  0.344700  0.679200  0.972400  1.0
  H  H520  1  0.127700  0.293200  0.972400  1.0
  H  H521  1  0.381100  0.520900  0.615000  1.0
  H  H522  1  0.733900  0.094100  0.615000  1.0
  H  H523  1  0.618900  0.479100  0.385000  1.0
  H  H524  1  0.266100  0.905900  0.385000  1.0
  H  H525  1  0.393800  0.628200  0.636600  1.0
  H  H526  1  0.742800  0.008400  0.636600  1.0
  H  H527  1  0.606200  0.371800  0.363400  1.0
  H  H528  1  0.257200  0.991600  0.363400  1.0
  H  H529  1  0.323900  0.656200  0.566800  1.0
  H  H530  1  0.742900  0.910600  0.566800  1.0
  H  H531  1  0.676100  0.343800  0.433200  1.0
  H  H532  1  0.257100  0.089400  0.433200  1.0
  H  H533  1  0.240800  0.574600  0.477200  1.0
  H  H534  1  0.736400  0.902600  0.477200  1.0
  H  H535  1  0.759200  0.425400  0.522800  1.0
  H  H536  1  0.263600  0.097400  0.522800  1.0
  H  H537  1  0.190400  0.457100  0.410600  1.0
  H  H538  1  0.720200  0.953500  0.410600  1.0
  H  H539  1  0.809600  0.542900  0.589400  1.0
  H  H540  1  0.279800  0.046500  0.589400  1.0
  H  H541  1  0.242900  0.303300  0.355800  1.0
  H  H542  1  0.612900  0.052500  0.355800  1.0
  H  H543  1  0.757100  0.696700  0.644200  1.0
  H  H544  1  0.387100  0.947500  0.644200  1.0
  H  H545  1  0.169800  0.221800  0.265400  1.0
  H  H546  1  0.595600  0.043600  0.265400  1.0
  H  H547  1  0.830200  0.778200  0.734600  1.0
  H  H548  1  0.404400  0.956400  0.734600  1.0
  H  H549  1  0.995700  0.269800  0.290200  1.0
  H  H550  1  0.794500  0.020400  0.290200  1.0
  H  H551  1  0.004300  0.730200  0.709800  1.0
  H  H552  1  0.205500  0.979600  0.709800  1.0
  H  H553  1  0.069500  0.352500  0.379800  1.0
  H  H554  1  0.810300  0.027300  0.379800  1.0
  H  H555  1  0.930500  0.647500  0.620200  1.0
  H  H556  1  0.189700  0.972700  0.620200  1.0
  H  H557  1  0.978600  0.273400  0.164400  1.0
  H  H558  1  0.685800  0.891000  0.164400  1.0
  H  H559  1  0.021400  0.726600  0.835600  1.0
  H  H560  1  0.314200  0.109000  0.835600  1.0
  H  H561  1  0.864000  0.284400  0.125600  1.0
  H  H562  1  0.761600  0.841200  0.125600  1.0
  H  H563  1  0.136000  0.715600  0.874400  1.0
  H  H564  1  0.238400  0.158800  0.874400  1.0
  H  H565  1  0.778100  0.135600  0.145000  1.0
  H  H566  1  0.866900  0.009400  0.145000  1.0
  H  H567  1  0.221900  0.864400  0.855000  1.0
  H  H568  1  0.133100  0.990600  0.855000  1.0
  H  H569  1  0.894600  0.129000  0.189600  1.0
  H  H570  1  0.795000  0.060600  0.189600  1.0
  H  H571  1  0.105400  0.871000  0.810400  1.0
  H  H572  1  0.205000  0.939400  0.810400  1.0
  H  H573  1  0.714200  0.138100  0.042000  1.0
  H  H574  1  0.827800  0.903900  0.042000  1.0
  H  H575  1  0.285800  0.861900  0.958000  1.0
  H  H576  1  0.172200  0.096100  0.958000  1.0
  H  H577  1  0.587600  0.088200  0.959000  1.0
  H  H578  1  0.871400  0.870800  0.959000  1.0
  H  H579  1  0.412400  0.911800  0.041000  1.0
  H  H580  1  0.128600  0.129200  0.041000  1.0
  H  H581  1  0.468200  0.096600  0.919200  1.0
  H  H582  1  0.951000  0.822600  0.919200  1.0
  H  H583  1  0.531800  0.903400  0.080800  1.0
  H  H584  1  0.049000  0.177400  0.080800  1.0
  H  H585  1  0.433500  0.188600  0.967000  1.0
  H  H586  1  0.033500  0.778400  0.967000  1.0
  H  H587  1  0.566500  0.811400  0.033000  1.0
  H  H588  1  0.966500  0.221600  0.033000  1.0
  H  H589  1  0.518000  0.272100  0.054600  1.0
  H  H590  1  0.036600  0.782500  0.054600  1.0
  H  H591  1  0.482000  0.727900  0.945400  1.0
  H  H592  1  0.963400  0.217500  0.945400  1.0
  H  H593  1  0.022300  0.138300  0.272000  1.0
  H  H594  1  0.749700  0.133700  0.272000  1.0
  H  H595  1  0.977700  0.861700  0.728000  1.0
  H  H596  1  0.250300  0.866300  0.728000  1.0
  H  H597  1  0.034300  0.035800  0.266400  1.0
  H  H598  1  0.732100  0.230600  0.266400  1.0
  H  H599  1  0.965700  0.964200  0.733600  1.0
  H  H600  1  0.267900  0.769400  0.733600  1.0
  H  H601  1  0.027400  0.981000  0.105800  1.0
  H  H602  1  0.578400  0.124800  0.105800  1.0
  H  H603  1  0.972600  0.019000  0.894200  1.0
  H  H604  1  0.421600  0.875200  0.894200  1.0
  H  H605  1  0.023700  0.084800  0.117200  1.0
  H  H606  1  0.593500  0.032400  0.117200  1.0
  H  H607  1  0.976300  0.915200  0.882800  1.0
  H  H608  1  0.406500  0.967600  0.882800  1.0
  H  H609  1  0.140900  0.964600  0.214600  1.0
  H  H610  1  0.573700  0.250000  0.214600  1.0
  H  H611  1  0.859100  0.035400  0.785400  1.0
  H  H612  1  0.426300  0.750000  0.785400  1.0
  H  H613  1  0.223900  0.894100  0.243400  1.0
  H  H614  1  0.519500  0.349300  0.243400  1.0
  H  H615  1  0.776100  0.105900  0.756600  1.0
  H  H616  1  0.480500  0.650700  0.756600  1.0
  H  H617  1  0.236600  0.788800  0.225600  1.0
  H  H618  1  0.489000  0.436800  0.225600  1.0
  H  H619  1  0.763400  0.211200  0.774400  1.0
  H  H620  1  0.511000  0.563200  0.774400  1.0
  H  H621  1  0.126100  0.704700  0.180600  1.0
  H  H622  1  0.554500  0.475900  0.180600  1.0
  H  H623  1  0.873900  0.295300  0.819400  1.0
  H  H624  1  0.445500  0.524100  0.819400  1.0
  H  H625  1  0.013900  0.725500  0.140400  1.0
  H  H626  1  0.626500  0.414900  0.140400  1.0
  H  H627  1  0.986100  0.274500  0.859600  1.0
  H  H628  1  0.373500  0.585100  0.859600  1.0
  H  H629  1  0.900800  0.438400  0.512000  1.0
  H  H630  1  0.111200  0.073600  0.512000  1.0
  H  H631  1  0.099200  0.561600  0.488000  1.0
  H  H632  1  0.888800  0.926400  0.488000  1.0
  H  H633  1  0.062700  0.236800  0.167400  1.0
  H  H634  1  0.604700  0.930600  0.167400  1.0
  H  H635  1  0.937300  0.763200  0.832600  1.0
  H  H636  1  0.395300  0.069400  0.832600  1.0
  H  H637  1  0.487300  0.153500  0.395200  1.0
  H  H638  1  0.407900  0.241700  0.395200  1.0
  H  H639  1  0.512700  0.846500  0.604800  1.0
  H  H640  1  0.592100  0.758300  0.604800  1.0
  H  H641  1  0.407000  0.078700  0.400800  1.0
  H  H642  1  0.493800  0.322100  0.400800  1.0
  H  H643  1  0.593000  0.921300  0.599200  1.0
  H  H644  1  0.506200  0.677900  0.599200  1.0
  H  H645  1  0.453300  0.022600  0.453400  1.0
  H  H646  1  0.500100  0.430800  0.453400  1.0
  H  H647  1  0.546700  0.977400  0.546600  1.0
  H  H648  1  0.499900  0.569200  0.546600  1.0
  H  H649  1  0.580000  0.041400  0.500200  1.0
  H  H650  1  0.420200  0.458800  0.500200  1.0
  H  H651  1  0.420000  0.958600  0.499800  1.0
  H  H652  1  0.579800  0.541200  0.499800  1.0
  N  N653  1  0.351300  0.387200  0.584800  1
  N  N654  1  0.733500  0.197600  0.584800  1
  N  N655  1  0.648700  0.612800  0.415200  1
  N  N656  1  0.266500  0.802400  0.415200  1
  N  N657  1  0.225900  0.367300  0.712800  1
  N  N658  1  0.986900  0.345500  0.712800  1
  N  N659  1  0.774100  0.632700  0.287200  1
  N  N660  1  0.013100  0.654500  0.287200  1
  N  N661  1  0.199080  0.377680  0.540360  1.0
  N  N662  1  0.841280  0.162680  0.540360  1.0
  N  N663  1  0.800920  0.622320  0.459640  1.0
  N  N664  1  0.158720  0.837320  0.459640  1.0
  N  N665  1  0.785250  0.355050  0.214500  1.0
  N  N666  1  0.929250  0.859450  0.214500  1.0
  N  N667  1  0.214750  0.644950  0.785500  1.0
  N  N668  1  0.070750  0.140550  0.785500  1.0
  N  N669  1  0.305000  0.483200  0.535200  1.0
  N  N670  1  0.730200  0.052000  0.535200  1.0
  N  N671  1  0.695000  0.516800  0.464800  1.0
  N  N672  1  0.269800  0.948000  0.464800  1.0
  N  N673  1  0.213490  0.389390  0.430780  1.0
  N  N674  1  0.717290  0.041390  0.430780  1.0
  N  N675  1  0.786510  0.610610  0.569220  1.0
  N  N676  1  0.282710  0.958610  0.569220  1.0
  N  N677  1  0.038560  0.936060  0.181520  1.0
  N  N678  1  0.642960  0.245460  0.181520  1.0
  N  N679  1  0.961440  0.063940  0.818480  1.0
  N  N680  1  0.357040  0.754540  0.818480  1.0
  N  N681  1  0.051210  0.818310  0.167420  1.0
  N  N682  1  0.616210  0.349110  0.167420  1.0
  N  N683  1  0.948790  0.181690  0.832580  1.0
  N  N684  1  0.383790  0.650890  0.832580  1.0
  N  N685  1  0.737300  0.217800  0.106200  1.0
  N  N686  1  0.868900  0.888400  0.106200  1.0
  N  N687  1  0.262700  0.782200  0.893800  1.0
  N  N688  1  0.131100  0.111600  0.893800  1.0
  N  N689  1  0.336500  0.390400  0.594600  1.0
  N  N690  1  0.758100  0.204200  0.594600  1.0
  N  N691  1  0.663500  0.609600  0.405400  1.0
  N  N692  1  0.241900  0.795800  0.405400  1.0
  N  N693  1  0.729190  0.353090  0.110380  1.0
  N  N694  1  0.881190  0.757290  0.110380  1.0
  N  N695  1  0.270810  0.646910  0.889620  1.0
  N  N696  1  0.118810  0.242710  0.889620  1.0
  N  N697  1  0.602970  0.229670  0.058740  1.0
  N  N698  1  0.955770  0.829070  0.058740  1.0
  N  N699  1  0.397030  0.770330  0.941260  1.0
  N  N700  1  0.044230  0.170930  0.941260  1.0
  N  N701  1  0.702490  0.189390  0.465380  1.0
  N  N702  1  0.262890  0.275990  0.465380  1.0
  N  N703  1  0.297510  0.810610  0.534620  1.0
  N  N704  1  0.737110  0.724010  0.534620  1.0
  N  N705  1  0.608980  0.108680  0.475560  1.0
  N  N706  1  0.366580  0.366880  0.475560  1.0
  N  N707  1  0.391020  0.891320  0.524440  1.0
  N  N708  1  0.633420  0.633120  0.524440  1.0
  N  N709  1  0.232500  0.156000  0.707000  1.0
  N  N710  1  0.974500  0.551000  0.707000  1.0
  N  N711  1  0.767500  0.844000  0.293000  1.0
  N  N712  1  0.025500  0.449000  0.293000  1.0
  O  O713  1  0.180200  0.405700  0.794400  1
  O  O714  1  0.114200  0.388700  0.794400  1
  O  O715  1  0.819800  0.594300  0.205600  1
  O  O716  1  0.885800  0.611300  0.205600  1
  O  O717  1  0.242700  0.477500  0.766200  1
  O  O718  1  0.023500  0.288700  0.766200  1
  O  O719  1  0.757300  0.522500  0.233800  1
  O  O720  1  0.976500  0.711300  0.233800  1
  O  O721  1  0.192000  0.270800  0.731200  1
  O  O722  1  0.039200  0.460400  0.731200  1
  O  O723  1  0.808000  0.729200  0.268800  1
  O  O724  1  0.960800  0.539600  0.268800  1
  O  O725  1  0.236400  0.263200  0.651600  1
  O  O726  1  0.915200  0.388400  0.651600  1
  O  O727  1  0.763600  0.736800  0.348400  1
  O  O728  1  0.084800  0.611600  0.348400  1
  O  O729  1  0.887450  0.431950  0.477500  1.0
  O  O730  1  0.090050  0.045550  0.477500  1.0
  O  O731  1  0.112550  0.568050  0.522500  1.0
  O  O732  1  0.909950  0.954450  0.522500  1.0
  O  O733  1  0.061370  0.199770  0.165140  1.0
  O  O734  1  0.603770  0.965370  0.165140  1.0
  O  O735  1  0.938630  0.800230  0.834860  1.0
  O  O736  1  0.396230  0.034630  0.834860  1.0
  O  O737  1  0.295200  0.212000  0.812200  1.0
  O  O738  1  0.017000  0.600200  0.812200  1.0
  O  O739  1  0.704800  0.788000  0.187800  1.0
  O  O740  1  0.983000  0.399800  0.187800  1.0
  O  O741  1  0.308300  0.274900  0.760000  1.0
  O  O742  1  0.951700  0.485100  0.760000  1.0
  O  O743  1  0.691700  0.725100  0.240000  1.0
  O  O744  1  0.048300  0.514900  0.240000  1.0
  O  O745  1  0.162450  0.103550  0.598900  1.0
  O  O746  1  0.936450  0.495350  0.598900  1.0
  O  O747  1  0.837550  0.896450  0.401100  1.0
  O  O748  1  0.063550  0.504650  0.401100  1.0
  O  O749  1  0.244900  0.216200  0.639200  1.0
  O  O750  1  0.894300  0.423000  0.639200  1.0
  O  O751  1  0.755100  0.783800  0.360800  1.0
  O  O752  1  0.105700  0.577000  0.360800  1.0
  P  P753  1  0.731480  0.910680  0.699000  1
  P  P754  1  0.467520  0.788320  0.699000  1
  P  P755  1  0.268520  0.089320  0.301000  1
  P  P756  1  0.532480  0.211680  0.301000  1
  S  S757  1  0.198910  0.291510  0.689020  1
  S  S758  1  0.990110  0.397510  0.689020  1
  S  S759  1  0.801090  0.708490  0.310980  1
  S  S760  1  0.009890  0.602490  0.310980  1
  S  S761  1  0.231060  0.421360  0.773120  1
  S  S762  1  0.042060  0.351760  0.773120  1
  S  S763  1  0.768940  0.578640  0.226880  1
  S  S764  1  0.957940  0.648240  0.226880  1
  S  S765  1  0.293650  0.216850  0.762100  1.0
  S  S766  1  0.968450  0.545250  0.762100  1.0
  S  S767  1  0.706350  0.783150  0.237900  1.0
  S  S768  1  0.031550  0.454750  0.237900  1.0
  S  S769  1  0.192410  0.165610  0.648420  1.0
  S  S770  1  0.956010  0.482810  0.648420  1.0
  S  S771  1  0.807590  0.834390  0.351580  1.0
  S  S772  1  0.043990  0.517190  0.351580  1.0
  Zn  Zn773  1  0.283000  0.381230  0.506440  1.0
  Zn  Zn774  1  0.723440  0.125210  0.506440  1.0
  Zn  Zn775  1  0.717000  0.618770  0.493560  1.0
  Zn  Zn776  1  0.276560  0.874790  0.493560  1.0
  Zn  Zn777  1  0.685970  0.292200  0.139580  1.0
  Zn  Zn778  1  0.953610  0.847380  0.139580  1.0
  Zn  Zn779  1  0.314030  0.707800  0.860420  1.0
  Zn  Zn780  1  0.046390  0.152620  0.860420  1.0
