# generated using pymatgen
data_ZnH30(C7N)6
_symmetry_space_group_name_H-M   'P 1'
_cell_length_a   19.22836204
_cell_length_b   19.22836204
_cell_length_c   19.22836204
_cell_angle_alpha   109.47122063
_cell_angle_beta   109.47122063
_cell_angle_gamma   109.47122063
_symmetry_Int_Tables_number   1
_chemical_formula_structural   ZnH30(C7N)6
_chemical_formula_sum   'Zn4 H120 C168 N24'
_cell_volume   5472.74207971
_cell_formula_units_Z   4
loop_
 _symmetry_equiv_pos_site_id
 _symmetry_equiv_pos_as_xyz
  1  'x, y, z'
loop_
 _atom_site_type_symbol
 _atom_site_label
 _atom_site_symmetry_multiplicity
 _atom_site_fract_x
 _atom_site_fract_y
 _atom_site_fract_z
 _atom_site_occupancy
  C  C1  1  0.558490  0.535360  0.666230  1.0
  C  C2  1  0.441510  0.107740  0.976870  1.0
  C  C3  1  0.130870  0.464640  0.023130  1.0
  C  C4  1  0.869130  0.892260  0.333770  1.0
  C  C5  1  0.535360  0.666230  0.558490  1.0
  C  C6  1  0.107740  0.976870  0.441510  1.0
  C  C7  1  0.464640  0.023130  0.130870  1.0
  C  C8  1  0.892260  0.333770  0.869130  1.0
  C  C9  1  0.666230  0.558490  0.535360  1.0
  C  C10  1  0.976870  0.441510  0.107740  1.0
  C  C11  1  0.023130  0.130870  0.464640  1.0
  C  C12  1  0.333770  0.869130  0.892260  1.0
  C  C13  1  0.595830  0.527710  0.736800  1.0
  C  C14  1  0.404170  0.140970  0.931880  1.0
  C  C15  1  0.209090  0.472290  0.068120  1.0
  C  C16  1  0.790910  0.859030  0.263200  1.0
  C  C17  1  0.527710  0.736800  0.595830  1.0
  C  C18  1  0.140970  0.931880  0.404170  1.0
  C  C19  1  0.472290  0.068120  0.209090  1.0
  C  C20  1  0.859030  0.263200  0.790910  1.0
  C  C21  1  0.736800  0.595830  0.527710  1.0
  C  C22  1  0.931880  0.404170  0.140970  1.0
  C  C23  1  0.068120  0.209090  0.472290  1.0
  C  C24  1  0.263200  0.790910  0.859030  1.0
  C  C25  1  0.600340  0.454480  0.726000  1.0
  C  C26  1  0.399660  0.125660  0.854140  1.0
  C  C27  1  0.271520  0.545520  0.145860  1.0
  C  C28  1  0.728480  0.874340  0.274000  1.0
  C  C29  1  0.454480  0.726000  0.600340  1.0
  C  C30  1  0.125660  0.854140  0.399660  1.0
  C  C31  1  0.545520  0.145860  0.271520  1.0
  C  C32  1  0.874340  0.274000  0.728480  1.0
  C  C33  1  0.726000  0.600340  0.454480  1.0
  C  C34  1  0.854140  0.399660  0.125660  1.0
  C  C35  1  0.145860  0.271520  0.545520  1.0
  C  C36  1  0.274000  0.728480  0.874340  1.0
  C  C37  1  0.567520  0.388900  0.644640  1.0
  C  C38  1  0.432480  0.077120  0.821380  1.0
  C  C39  1  0.255740  0.611100  0.178620  1.0
  C  C40  1  0.744260  0.922880  0.355360  1.0
  C  C41  1  0.388900  0.644640  0.567520  1.0
  C  C42  1  0.077120  0.821380  0.432480  1.0
  C  C43  1  0.611100  0.178620  0.255740  1.0
  C  C44  1  0.922880  0.355360  0.744260  1.0
  C  C45  1  0.644640  0.567520  0.388900  1.0
  C  C46  1  0.821380  0.432480  0.077120  1.0
  C  C47  1  0.178620  0.255740  0.611100  1.0
  C  C48  1  0.355360  0.744260  0.922880  1.0
  C  C49  1  0.530180  0.396550  0.574070  1.0
  C  C50  1  0.469820  0.043890  0.866370  1.0
  C  C51  1  0.177520  0.603450  0.133630  1.0
  C  C52  1  0.822480  0.956110  0.425930  1.0
  C  C53  1  0.396550  0.574070  0.530180  1.0
  C  C54  1  0.043890  0.866370  0.469820  1.0
  C  C55  1  0.603450  0.133630  0.177520  1.0
  C  C56  1  0.956110  0.425930  0.822480  1.0
  C  C57  1  0.574070  0.530180  0.396550  1.0
  C  C58  1  0.866370  0.469820  0.043890  1.0
  C  C59  1  0.133630  0.177520  0.603450  1.0
  C  C60  1  0.425930  0.822480  0.956110  1.0
  C  C61  1  0.492900  0.332300  0.487800  1.0
  C  C62  1  0.507100  0.994900  0.839400  1.0
  C  C63  1  0.155500  0.667700  0.160600  1.0
  C  C64  1  0.844500  0.005100  0.512200  1.0
  C  C65  1  0.332300  0.487800  0.492900  1.0
  C  C66  1  0.994900  0.839400  0.507100  1.0
  C  C67  1  0.667700  0.160600  0.155500  1.0
  C  C68  1  0.005100  0.512200  0.844500  1.0
  C  C69  1  0.487800  0.492900  0.332300  1.0
  C  C70  1  0.839400  0.507100  0.994900  1.0
  C  C71  1  0.160600  0.155500  0.667700  1.0
  C  C72  1  0.512200  0.844500  0.005100  1.0
  C  C73  1  0.418650  0.271720  0.340830  1.0
  C  C74  1  0.581350  0.922180  0.853070  1.0
  C  C75  1  0.069110  0.728280  0.146930  1.0
  C  C76  1  0.930890  0.077820  0.659170  1.0
  C  C77  1  0.271720  0.340830  0.418650  1.0
  C  C78  1  0.922180  0.853070  0.581350  1.0
  C  C79  1  0.728280  0.146930  0.069110  1.0
  C  C80  1  0.077820  0.659170  0.930890  1.0
  C  C81  1  0.340830  0.418650  0.271720  1.0
  C  C82  1  0.853070  0.581350  0.922180  1.0
  C  C83  1  0.146930  0.069110  0.728280  1.0
  C  C84  1  0.659170  0.930890  0.077820  1.0
  C  C85  1  0.443390  0.281060  0.282830  1.0
  C  C86  1  0.556610  0.839440  0.837670  1.0
  C  C87  1  0.001770  0.718940  0.162330  1.0
  C  C88  1  0.998230  0.160560  0.717170  1.0
  C  C89  1  0.281060  0.282830  0.443390  1.0
  C  C90  1  0.839440  0.837670  0.556610  1.0
  C  C91  1  0.718940  0.162330  0.001770  1.0
  C  C92  1  0.160560  0.717170  0.998230  1.0
  C  C93  1  0.282830  0.443390  0.281060  1.0
  C  C94  1  0.837670  0.556610  0.839440  1.0
  C  C95  1  0.162330  0.001770  0.718940  1.0
  C  C96  1  0.717170  0.998230  0.160560  1.0
  C  C97  1  0.401110  0.213390  0.200260  1.0
  C  C98  1  0.598890  0.799150  0.812280  1.0
  C  C99  1  0.986870  0.786610  0.187720  1.0
  C  C100  1  0.013130  0.200850  0.799740  1.0
  C  C101  1  0.213390  0.200260  0.401110  1.0
  C  C102  1  0.799150  0.812280  0.598890  1.0
  C  C103  1  0.786610  0.187720  0.986870  1.0
  C  C104  1  0.200850  0.799740  0.013130  1.0
  C  C105  1  0.200260  0.401110  0.213390  1.0
  C  C106  1  0.812280  0.598890  0.799150  1.0
  C  C107  1  0.187720  0.986870  0.786610  1.0
  C  C108  1  0.799740  0.013130  0.200850  1.0
  C  C109  1  0.334110  0.136370  0.175680  1.0
  C  C110  1  0.665890  0.841570  0.802260  1.0
  C  C111  1  0.039310  0.863630  0.197740  1.0
  C  C112  1  0.960690  0.158430  0.824320  1.0
  C  C113  1  0.136370  0.175680  0.334110  1.0
  C  C114  1  0.841570  0.802260  0.665890  1.0
  C  C115  1  0.863630  0.197740  0.039310  1.0
  C  C116  1  0.158430  0.824320  0.960690  1.0
  C  C117  1  0.175680  0.334110  0.136370  1.0
  C  C118  1  0.802260  0.665890  0.841570  1.0
  C  C119  1  0.197740  0.039310  0.863630  1.0
  C  C120  1  0.824320  0.960690  0.158430  1.0
  C  C121  1  0.309360  0.127020  0.233660  1.0
  C  C122  1  0.690640  0.924300  0.817660  1.0
  C  C123  1  0.106640  0.872980  0.182340  1.0
  C  C124  1  0.893360  0.075700  0.766340  1.0
  C  C125  1  0.127020  0.233660  0.309360  1.0
  C  C126  1  0.924300  0.817660  0.690640  1.0
  C  C127  1  0.872980  0.182340  0.106640  1.0
  C  C128  1  0.075700  0.766340  0.893360  1.0
  C  C129  1  0.233660  0.309360  0.127020  1.0
  C  C130  1  0.817660  0.690640  0.924300  1.0
  C  C131  1  0.182340  0.106640  0.872980  1.0
  C  C132  1  0.766340  0.893360  0.075700  1.0
  C  C133  1  0.351630  0.194690  0.316240  1.0
  C  C134  1  0.648370  0.964610  0.843060  1.0
  C  C135  1  0.121550  0.805310  0.156940  1.0
  C  C136  1  0.878450  0.035390  0.683760  1.0
  C  C137  1  0.194690  0.316240  0.351630  1.0
  C  C138  1  0.964610  0.843060  0.648370  1.0
  C  C139  1  0.805310  0.156940  0.121550  1.0
  C  C140  1  0.035390  0.683760  0.878450  1.0
  C  C141  1  0.316240  0.351630  0.194690  1.0
  C  C142  1  0.843060  0.648370  0.964610  1.0
  C  C143  1  0.156940  0.121550  0.805310  1.0
  C  C144  1  0.683760  0.878450  0.035390  1.0
  C  C145  1  0.283100  0.067860  0.084660  1.0
  C  C146  1  0.716900  0.801560  0.784760  1.0
  C  C147  1  0.016800  0.932140  0.215240  1.0
  C  C148  1  0.983200  0.198440  0.915340  1.0
  C  C149  1  0.067860  0.084660  0.283100  1.0
  C  C150  1  0.801560  0.784760  0.716900  1.0
  C  C151  1  0.932140  0.215240  0.016800  1.0
  C  C152  1  0.198440  0.915340  0.983200  1.0
  C  C153  1  0.084660  0.283100  0.067860  1.0
  C  C154  1  0.784760  0.716900  0.801560  1.0
  C  C155  1  0.215240  0.016800  0.932140  1.0
  C  C156  1  0.915340  0.983200  0.198440  1.0
  C  C157  1  0.248690  0.981570  0.067400  1.0
  C  C158  1  0.751310  0.818710  0.732880  1.0
  C  C159  1  0.085830  0.018430  0.267120  1.0
  C  C160  1  0.914170  0.181290  0.932600  1.0
  C  C161  1  0.981570  0.067400  0.248690  1.0
  C  C162  1  0.818710  0.732880  0.751310  1.0
  C  C163  1  0.018430  0.267120  0.085830  1.0
  C  C164  1  0.181290  0.932600  0.914170  1.0
  C  C165  1  0.067400  0.248690  0.981570  1.0
  C  C166  1  0.732880  0.751310  0.818710  1.0
  C  C167  1  0.267120  0.085830  0.018430  1.0
  C  C168  1  0.932600  0.914170  0.181290  1.0
  H  H169  1  0.555400  0.585400  0.673600  1.0
  H  H170  1  0.444600  0.118200  0.030000  1.0
  H  H171  1  0.088200  0.414600  0.970000  1.0
  H  H172  1  0.911800  0.881800  0.326400  1.0
  H  H173  1  0.585400  0.673600  0.555400  1.0
  H  H174  1  0.118200  0.030000  0.444600  1.0
  H  H175  1  0.414600  0.970000  0.088200  1.0
  H  H176  1  0.881800  0.326400  0.911800  1.0
  H  H177  1  0.673600  0.555400  0.585400  1.0
  H  H178  1  0.030000  0.444600  0.118200  1.0
  H  H179  1  0.970000  0.088200  0.414600  1.0
  H  H180  1  0.326400  0.911800  0.881800  1.0
  H  H181  1  0.618300  0.572500  0.792400  1.0
  H  H182  1  0.381700  0.174100  0.954200  1.0
  H  H183  1  0.219900  0.427500  0.045800  1.0
  H  H184  1  0.780100  0.825900  0.207600  1.0
  H  H185  1  0.572500  0.792400  0.618300  1.0
  H  H186  1  0.174100  0.954200  0.381700  1.0
  H  H187  1  0.427500  0.045800  0.219900  1.0
  H  H188  1  0.825900  0.207600  0.780100  1.0
  H  H189  1  0.792400  0.618300  0.572500  1.0
  H  H190  1  0.954200  0.381700  0.174100  1.0
  H  H191  1  0.045800  0.219900  0.427500  1.0
  H  H192  1  0.207600  0.780100  0.825900  1.0
  H  H193  1  0.625800  0.449200  0.774200  1.0
  H  H194  1  0.374200  0.148400  0.823400  1.0
  H  H195  1  0.325000  0.550800  0.176600  1.0
  H  H196  1  0.675000  0.851600  0.225800  1.0
  H  H197  1  0.449200  0.774200  0.625800  1.0
  H  H198  1  0.148400  0.823400  0.374200  1.0
  H  H199  1  0.550800  0.176600  0.325000  1.0
  H  H200  1  0.851600  0.225800  0.675000  1.0
  H  H201  1  0.774200  0.625800  0.449200  1.0
  H  H202  1  0.823400  0.374200  0.148400  1.0
  H  H203  1  0.176600  0.325000  0.550800  1.0
  H  H204  1  0.225800  0.675000  0.851600  1.0
  H  H205  1  0.570600  0.338800  0.637200  1.0
  H  H206  1  0.429400  0.066600  0.768200  1.0
  H  H207  1  0.298400  0.661200  0.231800  1.0
  H  H208  1  0.701600  0.933400  0.362800  1.0
  H  H209  1  0.338800  0.637200  0.570600  1.0
  H  H210  1  0.066600  0.768200  0.429400  1.0
  H  H211  1  0.661200  0.231800  0.298400  1.0
  H  H212  1  0.933400  0.362800  0.701600  1.0
  H  H213  1  0.637200  0.570600  0.338800  1.0
  H  H214  1  0.768200  0.429400  0.066600  1.0
  H  H215  1  0.231800  0.298400  0.661200  1.0
  H  H216  1  0.362800  0.701600  0.933400  1.0
  H  H217  1  0.492700  0.280200  0.475900  1.0
  H  H218  1  0.507300  0.983200  0.787500  1.0
  H  H219  1  0.195700  0.719800  0.212500  1.0
  H  H220  1  0.804300  0.016800  0.524100  1.0
  H  H221  1  0.280200  0.475900  0.492700  1.0
  H  H222  1  0.983200  0.787500  0.507300  1.0
  H  H223  1  0.719800  0.212500  0.195700  1.0
  H  H224  1  0.016800  0.524100  0.804300  1.0
  H  H225  1  0.475900  0.492700  0.280200  1.0
  H  H226  1  0.787500  0.507300  0.983200  1.0
  H  H227  1  0.212500  0.195700  0.719800  1.0
  H  H228  1  0.524100  0.804300  0.016800  1.0
  H  H229  1  0.489200  0.333700  0.299700  1.0
  H  H230  1  0.510800  0.810500  0.844500  1.0
  H  H231  1  0.966000  0.666300  0.155500  1.0
  H  H232  1  0.034000  0.189500  0.700300  1.0
  H  H233  1  0.333700  0.299700  0.489200  1.0
  H  H234  1  0.810500  0.844500  0.510800  1.0
  H  H235  1  0.666300  0.155500  0.966000  1.0
  H  H236  1  0.189500  0.700300  0.034000  1.0
  H  H237  1  0.299700  0.489200  0.333700  1.0
  H  H238  1  0.844500  0.510800  0.810500  1.0
  H  H239  1  0.155500  0.966000  0.666300  1.0
  H  H240  1  0.700300  0.034000  0.189500  1.0
  H  H241  1  0.418000  0.219800  0.160600  1.0
  H  H242  1  0.582000  0.742600  0.801800  1.0
  H  H243  1  0.940800  0.780200  0.198200  1.0
  H  H244  1  0.059200  0.257400  0.839400  1.0
  H  H245  1  0.219800  0.160600  0.418000  1.0
  H  H246  1  0.742600  0.801800  0.582000  1.0
  H  H247  1  0.780200  0.198200  0.940800  1.0
  H  H248  1  0.257400  0.839400  0.059200  1.0
  H  H249  1  0.160600  0.418000  0.219800  1.0
  H  H250  1  0.801800  0.582000  0.742600  1.0
  H  H251  1  0.198200  0.940800  0.780200  1.0
  H  H252  1  0.839400  0.059200  0.257400  1.0
  H  H253  1  0.263500  0.074300  0.216800  1.0
  H  H254  1  0.736500  0.953300  0.810800  1.0
  H  H255  1  0.142500  0.925700  0.189200  1.0
  H  H256  1  0.857500  0.046700  0.783200  1.0
  H  H257  1  0.074300  0.216800  0.263500  1.0
  H  H258  1  0.953300  0.810800  0.736500  1.0
  H  H259  1  0.925700  0.189200  0.142500  1.0
  H  H260  1  0.046700  0.783200  0.857500  1.0
  H  H261  1  0.216800  0.263500  0.074300  1.0
  H  H262  1  0.810800  0.736500  0.953300  1.0
  H  H263  1  0.189200  0.142500  0.925700  1.0
  H  H264  1  0.783200  0.857500  0.046700  1.0
  H  H265  1  0.334700  0.188300  0.355800  1.0
  H  H266  1  0.665300  0.021100  0.853600  1.0
  H  H267  1  0.167500  0.811700  0.146400  1.0
  H  H268  1  0.832500  0.978900  0.644200  1.0
  H  H269  1  0.188300  0.355800  0.334700  1.0
  H  H270  1  0.021100  0.853600  0.665300  1.0
  H  H271  1  0.811700  0.146400  0.167500  1.0
  H  H272  1  0.978900  0.644200  0.832500  1.0
  H  H273  1  0.355800  0.334700  0.188300  1.0
  H  H274  1  0.853600  0.665300  0.021100  1.0
  H  H275  1  0.146400  0.167500  0.811700  1.0
  H  H276  1  0.644200  0.832500  0.978900  1.0
  H  H277  1  0.260000  0.969700  0.112900  1.0
  H  H278  1  0.740000  0.852900  0.709700  1.0
  H  H279  1  0.143200  0.030300  0.290300  1.0
  H  H280  1  0.856800  0.147100  0.887100  1.0
  H  H281  1  0.969700  0.112900  0.260000  1.0
  H  H282  1  0.852900  0.709700  0.740000  1.0
  H  H283  1  0.030300  0.290300  0.143200  1.0
  H  H284  1  0.147100  0.887100  0.856800  1.0
  H  H285  1  0.112900  0.260000  0.969700  1.0
  H  H286  1  0.709700  0.740000  0.852900  1.0
  H  H287  1  0.290300  0.143200  0.030300  1.0
  H  H288  1  0.887100  0.856800  0.147100  1.0
  N  N289  1  0.525670  0.469780  0.584870  1.0
  N  N290  1  0.474330  0.059200  0.944110  1.0
  N  N291  1  0.115090  0.530220  0.055890  1.0
  N  N292  1  0.884910  0.940800  0.415130  1.0
  N  N293  1  0.469780  0.584870  0.525670  1.0
  N  N294  1  0.059200  0.944110  0.474330  1.0
  N  N295  1  0.530220  0.055890  0.115090  1.0
  N  N296  1  0.940800  0.415130  0.884910  1.0
  N  N297  1  0.584870  0.525670  0.469780  1.0
  N  N298  1  0.944110  0.474330  0.059200  1.0
  N  N299  1  0.055890  0.115090  0.530220  1.0
  N  N300  1  0.415130  0.884910  0.940800  1.0
  N  N301  1  0.459880  0.344730  0.426370  1.0
  N  N302  1  0.540120  0.966490  0.884850  1.0
  N  N303  1  0.081640  0.655270  0.115150  1.0
  N  N304  1  0.918360  0.033510  0.573630  1.0
  N  N305  1  0.344730  0.426370  0.459880  1.0
  N  N306  1  0.966490  0.884850  0.540120  1.0
  N  N307  1  0.655270  0.115150  0.081640  1.0
  N  N308  1  0.033510  0.573630  0.918360  1.0
  N  N309  1  0.426370  0.459880  0.344730  1.0
  N  N310  1  0.884850  0.540120  0.966490  1.0
  N  N311  1  0.115150  0.081640  0.655270  1.0
  N  N312  1  0.573630  0.918360  0.033510  1.0
  Zn  Zn313  1  0.466000  0.466000  0.466000  1.0
  Zn  Zn314  1  0.534000  0.000000  1.000000  1.0
  Zn  Zn315  1  0.000000  0.534000  0.000000  1.0
  Zn  Zn316  1  0.000000  0.000000  0.534000  1.0
