# generated using pymatgen
data_Zn2H30C46Br4N4Cl5O8
_symmetry_space_group_name_H-M   'P 1'
_cell_length_a   8.30820000
_cell_length_b   9.50310000
_cell_length_c   15.92170000
_cell_angle_alpha   84.60400000
_cell_angle_beta   89.68500000
_cell_angle_gamma   84.05500000
_symmetry_Int_Tables_number   1
_chemical_formula_structural   Zn2H30C46Br4N4Cl5O8
_chemical_formula_sum   'Zn2 H30 C46 Br4 N4 Cl5 O8'
_cell_volume   1244.76342216
_cell_formula_units_Z   1
loop_
 _symmetry_equiv_pos_site_id
 _symmetry_equiv_pos_as_xyz
  1  'x, y, z'
loop_
 _atom_site_type_symbol
 _atom_site_label
 _atom_site_symmetry_multiplicity
 _atom_site_fract_x
 _atom_site_fract_y
 _atom_site_fract_z
 _atom_site_occupancy
  Zn  Zn1  1  0.119320  0.251830  0.365880  1.0
  Zn  Zn2  1  0.880680  0.748170  0.634120  1.0
  H  H3  1  0.668000  0.330000  0.052500  1.0
  H  H4  1  0.332000  0.670000  0.947500  1.0
  H  H5  1  0.200100  0.925300  0.379400  1.0
  H  H6  1  0.799900  0.074700  0.620600  1.0
  H  H7  1  0.139600  0.735400  0.307500  1.0
  H  H8  1  0.860400  0.264600  0.692500  1.0
  H  H9  1  0.989000  0.781400  0.181400  1.0
  H  H10  1  0.011000  0.218600  0.818600  1.0
  H  H11  1  0.976900  0.198900  0.207200  1.0
  H  H12  1  0.023100  0.801100  0.792800  1.0
  H  H13  1  0.687800  0.157000  0.968700  1.0
  H  H14  1  0.312200  0.843000  0.031300  1.0
  H  H15  1  0.524200  0.277500  0.847300  1.0
  H  H16  1  0.475800  0.722500  0.152700  1.0
  H  H17  1  0.358200  0.047500  0.671800  1.0
  H  H18  1  0.641800  0.952500  0.328200  1.0
  H  H19  1  0.470500  0.837600  0.745600  1.0
  H  H20  1  0.529500  0.162400  0.254400  1.0
  H  H21  1  0.628500  0.715200  0.870200  1.0
  H  H22  1  0.371500  0.284800  0.129800  1.0
  H  H23  1  0.768400  0.727800  0.993600  1.0
  H  H24  1  0.231600  0.272200  0.006400  1.0
  H  H25  1  0.131900  0.486800  0.671500  1.0
  H  H26  1  0.868100  0.513200  0.328500  1.0
  H  H27  1  0.553900  0.586300  0.566700  1.0
  H  H28  1  0.446100  0.413700  0.433300  1.0
  H  H29  1  0.429800  0.814400  0.525600  1.0
  H  H30  1  0.570200  0.185600  0.474400  1.0
  H  H31  1  0.158500  0.869900  0.556800  1.0
  H  H32  1  0.841500  0.130100  0.443200  1.0
  C  C33  1  0.677700  0.433400  0.037500  1.0
  C  C34  1  0.322300  0.566600  0.962500  1.0
  C  C35  1  0.139000  0.943800  0.328600  1.0
  C  C36  1  0.861000  0.056200  0.671400  1.0
  C  C37  1  0.104000  0.830200  0.286200  1.0
  C  C38  1  0.896000  0.169800  0.713800  1.0
  C  C39  1  0.015600  0.857500  0.211600  1.0
  C  C40  1  0.984400  0.142500  0.788400  1.0
  C  C41  1  0.967400  0.994800  0.182200  1.0
  C  C42  1  0.032600  0.005200  0.817800  1.0
  C  C43  1  0.008500  0.103200  0.228300  1.0
  C  C44  1  0.991500  0.896800  0.771700  1.0
  C  C45  1  0.874400  0.041600  0.102900  1.0
  C  C46  1  0.125600  0.958400  0.897100  1.0
  C  C47  1  0.741800  0.945000  0.990000  1.0
  C  C48  1  0.258200  0.055000  0.010000  1.0
  C  C49  1  0.675300  0.068200  0.948100  1.0
  C  C50  1  0.324700  0.931800  0.051900  1.0
  C  C51  1  0.586900  0.061700  0.872800  1.0
  C  C52  1  0.413100  0.938300  0.127200  1.0
  C  C53  1  0.513900  0.187400  0.827700  1.0
  C  C54  1  0.486100  0.812600  0.172300  1.0
  C  C55  1  0.428800  0.178200  0.755900  1.0
  C  C56  1  0.571200  0.821800  0.244100  1.0
  C  C57  1  0.414400  0.050000  0.723400  1.0
  C  C58  1  0.585600  0.950000  0.276600  1.0
  C  C59  1  0.482300  0.926300  0.766600  1.0
  C  C60  1  0.517700  0.073700  0.233400  1.0
  C  C61  1  0.570100  0.930300  0.842400  1.0
  C  C62  1  0.429900  0.069700  0.157600  1.0
  C  C63  1  0.639900  0.805200  0.889500  1.0
  C  C64  1  0.360100  0.194800  0.110500  1.0
  C  C65  1  0.723200  0.812300  0.962100  1.0
  C  C66  1  0.276800  0.187700  0.037900  1.0
  C  C67  1  0.436100  0.370600  0.652700  1.0
  C  C68  1  0.563900  0.629400  0.347300  1.0
  C  C69  1  0.193300  0.553400  0.641100  1.0
  C  C70  1  0.806700  0.446600  0.358900  1.0
  C  C71  1  0.354800  0.513300  0.623700  1.0
  C  C72  1  0.645200  0.486700  0.376300  1.0
  C  C73  1  0.443500  0.611300  0.579700  1.0
  C  C74  1  0.556500  0.388700  0.420300  1.0
  C  C75  1  0.370400  0.745300  0.555100  1.0
  C  C76  1  0.629600  0.254700  0.444900  1.0
  C  C77  1  0.209200  0.777600  0.574100  1.0
  C  C78  1  0.790800  0.222400  0.425900  1.0
  Br  Br79  1  0.217920  0.431710  0.275540  1.0
  Br  Br80  1  0.782080  0.568290  0.724460  1.0
  Br  Br81  1  0.220830  0.168030  0.500970  1.0
  Br  Br82  1  0.779170  0.831970  0.499030  1.0
  N  N83  1  0.090500  0.078400  0.301000  1.0
  N  N84  1  0.909500  0.921600  0.699000  1.0
  N  N85  1  0.122000  0.683200  0.616100  1.0
  N  N86  1  0.878000  0.316800  0.383900  1.0
  Cl  Cl87  1  0.500000  0.500000  0.000000  1
  Cl  Cl88  1  0.848400  0.440100  0.950700  1.0
  Cl  Cl89  1  0.151600  0.559900  0.049300  1.0
  Cl  Cl90  1  0.776900  0.490500  0.125800  1.0
  Cl  Cl91  1  0.223100  0.509500  0.874200  1.0
  O  O92  1  0.830700  0.931900  0.065500  1.0
  O  O93  1  0.169300  0.068100  0.934500  1.0
  O  O94  1  0.844600  0.160400  0.076900  1.0
  O  O95  1  0.155400  0.839600  0.923100  1.0
  O  O96  1  0.563000  0.320800  0.626500  1.0
  O  O97  1  0.437000  0.679200  0.373500  1.0
  O  O98  1  0.351300  0.304500  0.714900  1.0
  O  O99  1  0.648700  0.695500  0.285100  1.0
