# generated using pymatgen
data_ZnH18C24Br6(NO2)2
_symmetry_space_group_name_H-M   'P 1'
_cell_length_a   7.75330000
_cell_length_b   9.35280000
_cell_length_c   38.95000000
_cell_angle_alpha   90.00000000
_cell_angle_beta   90.00000000
_cell_angle_gamma   95.63400000
_symmetry_Int_Tables_number   1
_chemical_formula_structural   ZnH18C24Br6(NO2)2
_chemical_formula_sum   'Zn4 H72 C96 Br24 N8 O16'
_cell_volume   2810.81767531
_cell_formula_units_Z   4
loop_
 _symmetry_equiv_pos_site_id
 _symmetry_equiv_pos_as_xyz
  1  'x, y, z'
loop_
 _atom_site_type_symbol
 _atom_site_label
 _atom_site_symmetry_multiplicity
 _atom_site_fract_x
 _atom_site_fract_y
 _atom_site_fract_z
 _atom_site_occupancy
  Zn  Zn1  1  0.663500  0.683360  0.845590  1.0
  Zn  Zn2  1  0.336500  0.316640  0.154410  1.0
  Zn  Zn3  1  0.163500  0.683060  0.654310  1.0
  Zn  Zn4  1  0.836500  0.316940  0.345690  1.0
  H  H5  1  0.037200  0.009400  0.741300  1
  H  H6  1  0.962800  0.990600  0.258700  1
  H  H7  1  0.909700  0.113700  0.758900  1
  H  H8  1  0.090300  0.886300  0.241100  1
  H  H9  1  0.417500  0.124000  0.742400  1
  H  H10  1  0.582500  0.876000  0.257600  1
  H  H11  1  0.544500  0.019700  0.759800  1
  H  H12  1  0.455500  0.980300  0.240200  1
  H  H13  1  0.365600  0.543000  0.493900  1
  H  H14  1  0.634400  0.457000  0.506100  1
  H  H15  1  0.301300  0.382200  0.482300  1
  H  H16  1  0.698700  0.617800  0.517700  1
  H  H17  1  0.113400  0.291200  0.969900  1
  H  H18  1  0.886600  0.708800  0.030100  1
  H  H19  1  0.036700  0.402900  0.944000  1
  H  H20  1  0.963300  0.597100  0.056000  1
  H  H21  1  0.472300  0.735100  0.910600  1.0
  H  H22  1  0.527700  0.264900  0.089400  1.0
  H  H23  1  0.479100  0.162900  0.926100  1.0
  H  H24  1  0.520900  0.837100  0.073900  1.0
  H  H25  1  0.626900  0.202400  0.874400  1.0
  H  H26  1  0.373100  0.797600  0.125600  1.0
  H  H27  1  0.700100  0.006800  0.843200  1.0
  H  H28  1  0.299900  0.993200  0.156800  1.0
  H  H29  1  0.190700  0.816300  0.014300  1.0
  H  H30  1  0.809300  0.183700  0.985700  1.0
  H  H31  1  0.020500  0.721500  0.067200  1.0
  H  H32  1  0.979500  0.278500  0.932800  1.0
  H  H33  1  0.861300  0.991900  0.137000  1.0
  H  H34  1  0.138700  0.008100  0.863000  1.0
  H  H35  1  0.973500  0.194800  0.102800  1.0
  H  H36  1  0.026500  0.805200  0.897200  1.0
  H  H37  1  0.135600  0.290400  0.051100  1.0
  H  H38  1  0.864400  0.709600  0.948900  1.0
  H  H39  1  0.271700  0.243900  0.999900  1.0
  H  H40  1  0.728300  0.756100  0.000100  1.0
  H  H41  1  0.621000  0.548500  0.136200  1.0
  H  H42  1  0.379000  0.451500  0.863800  1.0
  H  H43  1  0.562600  0.291000  0.215100  1.0
  H  H44  1  0.437400  0.709000  0.784900  1.0
  H  H45  1  0.807100  0.395500  0.241500  1.0
  H  H46  1  0.192900  0.604500  0.758500  1.0
  H  H47  1  0.982900  0.565200  0.210500  1.0
  H  H48  1  0.017100  0.434800  0.789500  1.0
  H  H49  1  0.875700  0.449700  0.636600  1.0
  H  H50  1  0.124300  0.550300  0.363400  1.0
  H  H51  1  0.520300  0.429300  0.710900  1.0
  H  H52  1  0.479700  0.570700  0.289100  1.0
  H  H53  1  0.681900  0.603300  0.740100  1.0
  H  H54  1  0.318100  0.396700  0.259900  1.0
  H  H55  1  0.938400  0.708700  0.716000  1.0
  H  H56  1  0.061600  0.291300  0.284000  1.0
  H  H57  1  0.477700  0.278300  0.566200  1.0
  H  H58  1  0.522300  0.721700  0.433800  1.0
  H  H59  1  0.309800  0.184000  0.514700  1.0
  H  H60  1  0.690200  0.816000  0.485300  1.0
  H  H61  1  0.223600  0.752100  0.501500  1.0
  H  H62  1  0.776400  0.247900  0.498500  1.0
  H  H63  1  0.368000  0.712800  0.551600  1.0
  H  H64  1  0.632000  0.287200  0.448400  1.0
  H  H65  1  0.525300  0.805700  0.603700  1.0
  H  H66  1  0.474700  0.194300  0.396300  1.0
  H  H67  1  0.641300  0.997200  0.635900  1.0
  H  H68  1  0.358700  0.002800  0.364100  1.0
  H  H69  1  0.021400  0.262600  0.411700  1.0
  H  H70  1  0.978600  0.737400  0.588300  1.0
  H  H71  1  0.805700  0.994400  0.341300  1.0
  H  H72  1  0.194300  0.005600  0.658700  1.0
  H  H73  1  0.867600  0.797500  0.375100  1.0
  H  H74  1  0.132400  0.202500  0.624900  1.0
  H  H75  1  0.026000  0.836000  0.425600  1.0
  H  H76  1  0.974000  0.164000  0.574400  1.0
  C  C77  1  0.959000  0.085000  0.736800  1
  C  C78  1  0.041000  0.915000  0.263200  1
  C  C79  1  0.465000  0.094000  0.764600  1
  C  C80  1  0.535000  0.906000  0.235400  1
  C  C81  1  0.263000  0.478000  0.486800  1
  C  C82  1  0.737000  0.522000  0.513200  1
  C  C83  1  0.122000  0.393000  0.963000  1
  C  C84  1  0.878000  0.607000  0.037000  1
  C  C85  1  0.504500  0.830600  0.903100  1.0
  C  C86  1  0.495500  0.169400  0.096900  1.0
  C  C87  1  0.460000  0.943900  0.922500  1.0
  C  C88  1  0.540000  0.056100  0.077500  1.0
  C  C89  1  0.507400  0.084500  0.912400  1.0
  C  C90  1  0.492600  0.915500  0.087600  1.0
  C  C91  1  0.595000  0.107600  0.882500  1.0
  C  C92  1  0.405000  0.892400  0.117500  1.0
  C  C93  1  0.636800  0.989700  0.863900  1.0
  C  C94  1  0.363200  0.010300  0.136100  1.0
  C  C95  1  0.364400  0.904700  0.955900  1.0
  C  C96  1  0.635600  0.095300  0.044100  1.0
  C  C97  1  0.244000  0.027500  0.004000  1.0
  C  C98  1  0.756000  0.972500  0.996000  1.0
  C  C99  1  0.177800  0.911000  0.022000  1.0
  C  C100  1  0.822200  0.089000  0.978000  1.0
  C  C101  1  0.087900  0.936000  0.053100  1.0
  C  C102  1  0.912100  0.064000  0.946900  1.0
  C  C103  1  0.013700  0.818100  0.074100  1.0
  C  C104  1  0.986300  0.181900  0.925900  1.0
  C  C105  1  0.934800  0.847600  0.103700  1.0
  C  C106  1  0.065200  0.152400  0.896300  1.0
  C  C107  1  0.917600  0.978600  0.115800  1.0
  C  C108  1  0.082400  0.021400  0.884200  1.0
  C  C109  1  0.987200  0.099700  0.095500  1.0
  C  C110  1  0.012800  0.900300  0.904500  1.0
  C  C111  1  0.074300  0.076600  0.065100  1.0
  C  C112  1  0.925700  0.923400  0.934900  1.0
  C  C113  1  0.145200  0.194100  0.044100  1.0
  C  C114  1  0.854800  0.805900  0.955900  1.0
  C  C115  1  0.226600  0.166300  0.014000  1.0
  C  C116  1  0.773400  0.833700  0.986000  1.0
  C  C117  1  0.920700  0.703300  0.154000  1.0
  C  C118  1  0.079300  0.296700  0.846000  1.0
  C  C119  1  0.817300  0.581400  0.170500  1.0
  C  C120  1  0.182700  0.418600  0.829500  1.0
  C  C121  1  0.661900  0.516300  0.157600  1.0
  C  C122  1  0.338100  0.483700  0.842400  1.0
  C  C123  1  0.629000  0.368200  0.203800  1.0
  C  C124  1  0.371000  0.631800  0.796200  1.0
  C  C125  1  0.775000  0.426000  0.219300  1.0
  C  C126  1  0.225000  0.574000  0.780700  1.0
  C  C127  1  0.873300  0.528600  0.201500  1.0
  C  C128  1  0.126700  0.471400  0.798500  1.0
  C  C129  1  0.835500  0.482900  0.657900  1.0
  C  C130  1  0.164500  0.517100  0.342100  1.0
  C  C131  1  0.680900  0.419400  0.671000  1.0
  C  C132  1  0.319100  0.580600  0.329000  1.0
  C  C133  1  0.627000  0.469400  0.701500  1.0
  C  C134  1  0.373000  0.530600  0.298500  1.0
  C  C135  1  0.720000  0.572000  0.718400  1.0
  C  C136  1  0.280000  0.428000  0.281600  1.0
  C  C137  1  0.873000  0.633200  0.704000  1.0
  C  C138  1  0.127000  0.366800  0.296000  1.0
  C  C139  1  0.583900  0.296500  0.653100  1.0
  C  C140  1  0.416100  0.703500  0.346900  1.0
  C  C141  1  0.564900  0.151900  0.603500  1.0
  C  C142  1  0.435100  0.848100  0.396500  1.0
  C  C143  1  0.484000  0.181800  0.573400  1.0
  C  C144  1  0.516000  0.818200  0.426600  1.0
  C  C145  1  0.408700  0.063200  0.552900  1.0
  C  C146  1  0.591300  0.936800  0.447100  1.0
  C  C147  1  0.322000  0.089000  0.522300  1.0
  C  C148  1  0.678000  0.911000  0.477700  1.0
  C  C149  1  0.256400  0.973200  0.503900  1.0
  C  C150  1  0.743600  0.026800  0.496100  1.0
  C  C151  1  0.271800  0.831200  0.514900  1.0
  C  C152  1  0.728200  0.168800  0.485100  1.0
  C  C153  1  0.355800  0.808500  0.544500  1.0
  C  C154  1  0.644200  0.191500  0.455500  1.0
  C  C155  1  0.423900  0.921000  0.564600  1.0
  C  C156  1  0.576100  0.079000  0.435400  1.0
  C  C157  1  0.513600  0.900600  0.596000  1.0
  C  C158  1  0.486400  0.099400  0.404000  1.0
  C  C159  1  0.582300  0.012700  0.615000  1.0
  C  C160  1  0.417700  0.987300  0.385000  1.0
  C  C161  1  0.133700  0.093900  0.455800  1.0
  C  C162  1  0.866300  0.906100  0.544200  1.0
  C  C163  1  0.039400  0.055900  0.423400  1.0
  C  C164  1  0.960600  0.944100  0.576600  1.0
  C  C165  1  0.992100  0.167100  0.403900  1.0
  C  C166  1  0.007900  0.832900  0.596100  1.0
  C  C167  1  0.863100  0.010500  0.362700  1.0
  C  C168  1  0.136900  0.989500  0.637300  1.0
  C  C169  1  0.903400  0.892600  0.382500  1.0
  C  C170  1  0.096600  0.107400  0.617500  1.0
  C  C171  1  0.994200  0.915000  0.412500  1.0
  C  C172  1  0.005800  0.085000  0.587500  1.0
  Br  Br173  1  0.781600  0.015400  0.706870  1
  Br  Br174  1  0.218400  0.984600  0.293130  1
  Br  Br175  1  0.090900  0.257800  0.713220  1
  Br  Br176  1  0.909100  0.742200  0.286780  1
  Br  Br177  1  0.591200  0.257800  0.786830  1
  Br  Br178  1  0.408800  0.742200  0.213170  1
  Br  Br179  1  0.281200  0.015200  0.793020  1
  Br  Br180  1  0.718800  0.984800  0.206980  1
  Br  Br181  1  0.168000  0.549900  0.446400  1
  Br  Br182  1  0.832000  0.450100  0.553600  1
  Br  Br183  1  0.087600  0.464400  0.524600  1
  Br  Br184  1  0.912400  0.535600  0.475400  1
  Br  Br185  1  0.348400  0.450300  0.946500  1
  Br  Br186  1  0.651600  0.549700  0.053500  1
  Br  Br187  1  0.075500  0.519600  0.002200  1
  Br  Br188  1  0.924500  0.480400  0.997800  1
  Br  Br189  1  0.762200  0.514650  0.883660  1.0
  Br  Br190  1  0.237800  0.485350  0.116340  1.0
  Br  Br191  1  0.831600  0.782500  0.799530  1.0
  Br  Br192  1  0.168400  0.217500  0.200470  1.0
  Br  Br193  1  0.331400  0.782500  0.700340  1.0
  Br  Br194  1  0.668600  0.217500  0.299660  1.0
  Br  Br195  1  0.262400  0.514770  0.616250  1.0
  Br  Br196  1  0.737600  0.485230  0.383750  1.0
  N  N197  1  0.594200  0.853400  0.873200  1.0
  N  N198  1  0.405800  0.146600  0.126800  1.0
  N  N199  1  0.570000  0.412600  0.173700  1.0
  N  N200  1  0.430000  0.587400  0.826300  1.0
  N  N201  1  0.931400  0.589800  0.674100  1.0
  N  N202  1  0.068600  0.410200  0.325900  1.0
  N  N203  1  0.905000  0.146500  0.373800  1.0
  N  N204  1  0.095000  0.853500  0.626200  1.0
  O  O205  1  0.327400  0.786600  0.965100  1.0
  O  O206  1  0.672600  0.213400  0.034900  1.0
  O  O207  1  0.333000  0.025200  0.973000  1.0
  O  O208  1  0.667000  0.974800  0.027000  1.0
  O  O209  1  0.852800  0.726300  0.121800  1.0
  O  O210  1  0.147200  0.273700  0.878200  1.0
  O  O211  1  0.041800  0.770800  0.165800  1.0
  O  O212  1  0.958200  0.229200  0.834200  1.0
  O  O213  1  0.459100  0.230200  0.665600  1.0
  O  O214  1  0.540900  0.769800  0.334400  1.0
  O  O215  1  0.647100  0.272700  0.621800  1.0
  O  O216  1  0.352900  0.727300  0.378200  1.0
  O  O217  1  0.165400  0.976400  0.472900  1.0
  O  O218  1  0.834600  0.023600  0.527100  1.0
  O  O219  1  0.174600  0.210100  0.465200  1.0
  O  O220  1  0.825400  0.789900  0.534800  1.0
