# generated using pymatgen
data_ZnH16C23I2N2(ClO2)2
_symmetry_space_group_name_H-M   'P 1'
_cell_length_a   9.76020000
_cell_length_b   17.02710000
_cell_length_c   17.44370000
_cell_angle_alpha   115.22300000
_cell_angle_beta   96.03400000
_cell_angle_gamma   94.90100000
_symmetry_Int_Tables_number   1
_chemical_formula_structural   ZnH16C23I2N2(ClO2)2
_chemical_formula_sum   'Zn4 H64 C92 I8 N8 Cl8 O16'
_cell_volume   2580.53710974
_cell_formula_units_Z   4
loop_
 _symmetry_equiv_pos_site_id
 _symmetry_equiv_pos_as_xyz
  1  'x, y, z'
loop_
 _atom_site_type_symbol
 _atom_site_label
 _atom_site_symmetry_multiplicity
 _atom_site_fract_x
 _atom_site_fract_y
 _atom_site_fract_z
 _atom_site_occupancy
  Zn  Zn1  1  0.236680  0.881960  0.015170  1.0
  Zn  Zn2  1  0.763320  0.118040  0.984830  1.0
  Zn  Zn3  1  0.767690  0.149900  0.528100  1.0
  Zn  Zn4  1  0.232310  0.850100  0.471900  1.0
  H  H5  1  0.856300  0.483600  0.294500  1
  H  H6  1  0.143700  0.516400  0.705500  1
  H  H7  1  0.015700  0.527600  0.322500  1
  H  H8  1  0.984300  0.472400  0.677500  1
  H  H9  1  0.552300  0.891000  0.069300  1.0
  H  H10  1  0.447700  0.109000  0.930700  1.0
  H  H11  1  0.735100  0.820800  0.011100  1.0
  H  H12  1  0.264900  0.179200  0.988900  1.0
  H  H13  1  0.694000  0.702900  0.873100  1.0
  H  H14  1  0.306000  0.297100  0.126900  1.0
  H  H15  1  0.288900  0.732400  0.862100  1.0
  H  H16  1  0.711100  0.267600  0.137900  1.0
  H  H17  1  0.750300  0.538300  0.668600  1.0
  H  H18  1  0.249700  0.461700  0.331400  1.0
  H  H19  1  0.767000  0.421000  0.542000  1.0
  H  H20  1  0.233000  0.579000  0.458000  1.0
  H  H21  1  0.650100  0.290400  0.407200  1.0
  H  H22  1  0.349900  0.709600  0.592800  1.0
  H  H23  1  0.446400  0.201900  0.320400  1.0
  H  H24  1  0.553600  0.798100  0.679600  1.0
  H  H25  1  0.212500  0.359000  0.483700  1.0
  H  H26  1  0.787500  0.641000  0.516300  1.0
  H  H27  1  0.329100  0.485600  0.620900  1.0
  H  H28  1  0.670900  0.514400  0.379100  1.0
  H  H29  1  0.028000  0.184600  0.118600  1.0
  H  H30  1  0.972000  0.815400  0.881400  1.0
  H  H31  1  0.667200  0.054600  0.107600  1.0
  H  H32  1  0.332800  0.945400  0.892400  1.0
  H  H33  1  0.727200  0.072200  0.246400  1.0
  H  H34  1  0.272800  0.927800  0.753600  1.0
  H  H35  1  0.945300  0.148400  0.323800  1.0
  H  H36  1  0.054700  0.851600  0.676200  1.0
  H  H37  1  0.160000  0.584500  0.118000  1.0
  H  H38  1  0.840000  0.415500  0.882000  1.0
  H  H39  1  0.081400  0.499900  0.121000  1.0
  H  H40  1  0.918600  0.500100  0.879000  1.0
  H  H41  1  0.022200  0.175500  0.660100  1.0
  H  H42  1  0.977800  0.824500  0.339900  1.0
  H  H43  1  0.940900  0.014300  0.770200  1.0
  H  H44  1  0.059100  0.985700  0.229800  1.0
  H  H45  1  0.719100  0.968400  0.686800  1.0
  H  H46  1  0.280900  0.031600  0.313200  1.0
  H  H47  1  0.657300  0.026300  0.592000  1.0
  H  H48  1  0.342700  0.973700  0.408000  1.0
  H  H49  1  0.458900  0.176000  0.768400  1.0
  H  H50  1  0.541100  0.824000  0.231600  1.0
  H  H51  1  0.657000  0.253800  0.866200  1.0
  H  H52  1  0.343000  0.746200  0.133800  1.0
  H  H53  1  0.767500  0.376900  0.008000  1.0
  H  H54  1  0.232500  0.623100  0.992000  1.0
  H  H55  1  0.745700  0.492700  0.134800  1.0
  H  H56  1  0.254300  0.507300  0.865200  1.0
  H  H57  1  0.328400  0.459800  0.065600  1.0
  H  H58  1  0.671600  0.540200  0.934400  1.0
  H  H59  1  0.217600  0.339000  0.922300  1.0
  H  H60  1  0.782400  0.661000  0.077700  1.0
  H  H61  1  0.686600  0.677300  0.317200  1.0
  H  H62  1  0.313400  0.322700  0.682800  1.0
  H  H63  1  0.732100  0.805500  0.446800  1.0
  H  H64  1  0.267900  0.194500  0.553200  1.0
  H  H65  1  0.548300  0.871300  0.509500  1.0
  H  H66  1  0.451700  0.128700  0.490500  1.0
  H  H67  1  0.276400  0.690800  0.320700  1.0
  H  H68  1  0.723600  0.309200  0.679300  1.0
  C  C69  1  0.953000  0.471200  0.300600  1
  C  C70  1  0.047000  0.528800  0.699400  1
  C  C71  1  0.534500  0.843500  0.013500  1.0
  C  C72  1  0.465500  0.156500  0.986500  1.0
  C  C73  1  0.643800  0.802000  0.979100  1.0
  C  C74  1  0.356200  0.198000  0.020900  1.0
  C  C75  1  0.620000  0.732500  0.897700  1.0
  C  C76  1  0.380000  0.267500  0.102300  1.0
  C  C77  1  0.486600  0.707600  0.853700  1.0
  C  C78  1  0.513400  0.292400  0.146300  1.0
  C  C79  1  0.381400  0.751300  0.892400  1.0
  C  C80  1  0.618600  0.248700  0.107600  1.0
  C  C81  1  0.443500  0.635200  0.764900  1.0
  C  C82  1  0.556500  0.364800  0.235100  1.0
  C  C83  1  0.537200  0.519900  0.655900  1.0
  C  C84  1  0.462800  0.480100  0.344100  1.0
  C  C85  1  0.668300  0.502000  0.632100  1.0
  C  C86  1  0.331700  0.498000  0.367900  1.0
  C  C87  1  0.677900  0.433100  0.557300  1.0
  C  C88  1  0.322100  0.566900  0.442700  1.0
  C  C89  1  0.555600  0.378300  0.500900  1.0
  C  C90  1  0.444400  0.621700  0.499100  1.0
  C  C91  1  0.562200  0.304300  0.423600  1.0
  C  C92  1  0.437800  0.695700  0.576400  1.0
  C  C93  1  0.442200  0.252400  0.371800  1.0
  C  C94  1  0.557800  0.747600  0.628200  1.0
  C  C95  1  0.313700  0.275300  0.396100  1.0
  C  C96  1  0.686300  0.724700  0.603900  1.0
  C  C97  1  0.301700  0.345600  0.469400  1.0
  C  C98  1  0.698300  0.654400  0.530600  1.0
  C  C99  1  0.425200  0.399200  0.525100  1.0
  C  C100  1  0.574800  0.600800  0.474900  1.0
  C  C101  1  0.416800  0.471500  0.604300  1.0
  C  C102  1  0.583200  0.528500  0.395700  1.0
  C  C103  1  0.148000  0.226800  0.271500  1.0
  C  C104  1  0.852000  0.773200  0.728500  1.0
  C  C105  1  0.009400  0.174100  0.227900  1.0
  C  C106  1  0.990600  0.825900  0.772100  1.0
  C  C107  1  0.966200  0.161600  0.145000  1.0
  C  C108  1  0.033800  0.838400  0.855000  1.0
  C  C109  1  0.755700  0.085900  0.138800  1.0
  C  C110  1  0.244300  0.914100  0.861200  1.0
  C  C111  1  0.790700  0.095800  0.221300  1.0
  C  C112  1  0.209300  0.904200  0.778700  1.0
  C  C113  1  0.918900  0.140600  0.266700  1.0
  C  C114  1  0.081100  0.859400  0.733300  1.0
  C  C115  1  0.067200  0.554200  0.115400  1.0
  C  C116  1  0.932800  0.445800  0.884600  1.0
  C  C117  1  0.960500  0.132500  0.665500  1.0
  C  C118  1  0.039500  0.867500  0.334500  1.0
  C  C119  1  0.004300  0.099800  0.723100  1.0
  C  C120  1  0.995700  0.900200  0.276900  1.0
  C  C121  1  0.913800  0.037800  0.731300  1.0
  C  C122  1  0.086200  0.962200  0.268700  1.0
  C  C123  1  0.783300  0.010700  0.682000  1.0
  C  C124  1  0.216700  0.989300  0.318000  1.0
  C  C125  1  0.747100  0.045500  0.625900  1.0
  C  C126  1  0.252900  0.954500  0.374100  1.0
  C  C127  1  0.141700  0.132400  0.779500  1.0
  C  C128  1  0.858300  0.867600  0.220500  1.0
  C  C129  1  0.322000  0.252000  0.838900  1.0
  C  C130  1  0.678000  0.748000  0.161100  1.0
  C  C131  1  0.452400  0.225200  0.820400  1.0
  C  C132  1  0.547600  0.774800  0.179600  1.0
  C  C133  1  0.568700  0.271000  0.878300  1.0
  C  C134  1  0.431300  0.729000  0.121700  1.0
  C  C135  1  0.560100  0.344000  0.956400  1.0
  C  C136  1  0.439900  0.656000  0.043600  1.0
  C  C137  1  0.677900  0.392700  0.018700  1.0
  C  C138  1  0.322100  0.607300  0.981300  1.0
  C  C139  1  0.665500  0.461300  0.093200  1.0
  C  C140  1  0.334500  0.538700  0.906800  1.0
  C  C141  1  0.533600  0.486100  0.109100  1.0
  C  C142  1  0.466400  0.513900  0.890900  1.0
  C  C143  1  0.416400  0.442400  0.052900  1.0
  C  C144  1  0.583600  0.557600  0.947100  1.0
  C  C145  1  0.426800  0.369900  0.973900  1.0
  C  C146  1  0.573200  0.630100  0.026100  1.0
  C  C147  1  0.306900  0.322300  0.912500  1.0
  C  C148  1  0.693100  0.677700  0.087500  1.0
  C  C149  1  0.430300  0.589900  0.224200  1.0
  C  C150  1  0.569700  0.410100  0.775800  1.0
  C  C151  1  0.474400  0.671200  0.306400  1.0
  C  C152  1  0.525600  0.328800  0.693600  1.0
  C  C153  1  0.612600  0.705300  0.343600  1.0
  C  C154  1  0.387400  0.294700  0.656400  1.0
  C  C155  1  0.639000  0.780600  0.419700  1.0
  C  C156  1  0.361000  0.219400  0.580300  1.0
  C  C157  1  0.528700  0.819800  0.456500  1.0
  C  C158  1  0.471300  0.180200  0.543500  1.0
  C  C159  1  0.370500  0.714200  0.346500  1.0
  C  C160  1  0.629500  0.285800  0.653500  1.0
  I  I161  1  0.332390  0.036230  0.128670  1.0
  I  I162  1  0.667610  0.963770  0.871330  1.0
  I  I163  1  0.055080  0.781100  0.039070  1.0
  I  I164  1  0.944920  0.218900  0.960930  1.0
  I  I165  1  0.962540  0.260220  0.531130  1.0
  I  I166  1  0.037460  0.739780  0.468870  1.0
  I  I167  1  0.665540  0.013040  0.390870  1.0
  I  I168  1  0.334460  0.986960  0.609130  1.0
  N  N169  1  0.404000  0.819200  0.970700  1.0
  N  N170  1  0.596000  0.180800  0.029300  1.0
  N  N171  1  0.841700  0.118700  0.100400  1.0
  N  N172  1  0.158300  0.881300  0.899600  1.0
  N  N173  1  0.834600  0.105700  0.617400  1.0
  N  N174  1  0.165400  0.894300  0.382600  1.0
  N  N175  1  0.396700  0.788300  0.420800  1.0
  N  N176  1  0.603300  0.211700  0.579200  1.0
  Cl  Cl177  1  0.988100  0.401900  0.199000  1
  Cl  Cl178  1  0.011900  0.598100  0.801000  1
  Cl  Cl179  1  0.972900  0.430100  0.376900  1
  Cl  Cl180  1  0.027100  0.569900  0.623100  1
  Cl  Cl181  1  0.993100  0.621900  0.203100  1.0
  Cl  Cl182  1  0.006900  0.378100  0.796900  1.0
  Cl  Cl183  1  0.970200  0.524900  0.014500  1.0
  Cl  Cl184  1  0.029800  0.475100  0.985500  1.0
  O  O185  1  0.334300  0.623500  0.723800  1.0
  O  O186  1  0.665700  0.376500  0.276200  1.0
  O  O187  1  0.546800  0.589300  0.737900  1.0
  O  O188  1  0.453200  0.410700  0.262100  1.0
  O  O189  1  0.189500  0.220700  0.345200  1.0
  O  O190  1  0.810500  0.779300  0.654800  1.0
  O  O191  1  0.214000  0.270200  0.246200  1.0
  O  O192  1  0.786000  0.729800  0.753800  1.0
  O  O193  1  0.192000  0.099300  0.821200  1.0
  O  O194  1  0.808000  0.900700  0.178800  1.0
  O  O195  1  0.201600  0.207500  0.778200  1.0
  O  O196  1  0.798400  0.792500  0.221800  1.0
  O  O197  1  0.541800  0.560000  0.188800  1.0
  O  O198  1  0.458200  0.440000  0.811200  1.0
  O  O199  1  0.313700  0.557700  0.197300  1.0
  O  O200  1  0.686300  0.442300  0.802700  1.0
