# generated using pymatgen
data_ZnH19C25N3(ClO)4
_symmetry_space_group_name_H-M   'P 1'
_cell_length_a   7.61680000
_cell_length_b   9.24300000
_cell_length_c   19.80200000
_cell_angle_alpha   101.71600000
_cell_angle_beta   98.52900000
_cell_angle_gamma   94.41500000
_symmetry_Int_Tables_number   1
_chemical_formula_structural   ZnH19C25N3(ClO)4
_chemical_formula_sum   'Zn2 H38 C50 N6 Cl8 O8'
_cell_volume   1341.67955926
_cell_formula_units_Z   2
loop_
 _symmetry_equiv_pos_site_id
 _symmetry_equiv_pos_as_xyz
  1  'x, y, z'
loop_
 _atom_site_type_symbol
 _atom_site_label
 _atom_site_symmetry_multiplicity
 _atom_site_fract_x
 _atom_site_fract_y
 _atom_site_fract_z
 _atom_site_occupancy
  Zn  Zn1  1  0.094920  0.385360  0.324510  1.0
  Zn  Zn2  1  0.905080  0.614640  0.675490  1.0
  H  H3  1  0.373500  0.373700  0.003300  1
  H  H4  1  0.626500  0.626300  0.996700  1
  H  H5  1  0.389000  0.537100  0.986500  1
  H  H6  1  0.611000  0.462900  0.013500  1
  H  H7  1  0.885900  0.080600  0.507800  1
  H  H8  1  0.114100  0.919400  0.492200  1
  H  H9  1  0.864100  0.209000  0.572600  1
  H  H10  1  0.135900  0.791000  0.427400  1
  H  H11  1  0.722600  0.178800  0.501600  1
  H  H12  1  0.277400  0.821200  0.498400  1
  H  H13  1  0.165700  0.282500  0.177700  1.0
  H  H14  1  0.834300  0.717500  0.822300  1.0
  H  H15  1  0.154600  0.843000  0.133000  1.0
  H  H16  1  0.845400  0.157000  0.867000  1.0
  H  H17  1  0.080200  0.835200  0.244400  1.0
  H  H18  1  0.919800  0.164800  0.755600  1.0
  H  H19  1  0.051400  0.054600  0.315600  1.0
  H  H20  1  0.948600  0.945400  0.684400  1.0
  H  H21  1  0.250400  0.709200  0.963900  1.0
  H  H22  1  0.749600  0.290800  0.036100  1.0
  H  H23  1  0.286600  0.645400  0.850900  1.0
  H  H24  1  0.713400  0.354600  0.149100  1.0
  H  H25  1  0.360800  0.717300  0.739300  1.0
  H  H26  1  0.639200  0.282700  0.260700  1.0
  H  H27  1  0.426700  0.895100  0.681200  1.0
  H  H28  1  0.573300  0.104900  0.318800  1.0
  H  H29  1  0.371200  0.214800  0.846700  1.0
  H  H30  1  0.628800  0.785200  0.153300  1.0
  H  H31  1  0.299000  0.144500  0.955200  1.0
  H  H32  1  0.701000  0.855500  0.044800  1.0
  H  H33  1  0.573800  0.661800  0.583500  1.0
  H  H34  1  0.426200  0.338200  0.416500  1.0
  H  H35  1  0.291300  0.540400  0.533900  1.0
  H  H36  1  0.708700  0.459600  0.466100  1.0
  H  H37  1  0.185000  0.336700  0.575900  1.0
  H  H38  1  0.815000  0.663300  0.424100  1.0
  H  H39  1  0.650900  0.371500  0.704500  1.0
  H  H40  1  0.349100  0.628500  0.295500  1.0
  C  C41  1  0.316000  0.467000  0.005300  1
  C  C42  1  0.684000  0.533000  0.994700  1
  C  C43  1  0.692300  0.027000  0.559000  1
  C  C44  1  0.307700  0.973000  0.441000  1
  C  C45  1  0.800000  0.132000  0.533200  1
  C  C46  1  0.200000  0.868000  0.466800  1
  C  C47  1  0.149500  0.189800  0.191000  1.0
  C  C48  1  0.850500  0.810200  0.809000  1.0
  C  C49  1  0.164400  0.063900  0.145200  1.0
  C  C50  1  0.835600  0.936100  0.854800  1.0
  C  C51  1  0.141400  0.932400  0.164400  1.0
  C  C52  1  0.858600  0.067600  0.835600  1.0
  C  C53  1  0.098300  0.926600  0.230100  1.0
  C  C54  1  0.901700  0.073400  0.769900  1.0
  C  C55  1  0.084100  0.056100  0.271200  1.0
  C  C56  1  0.915900  0.943900  0.728800  1.0
  C  C57  1  0.198400  0.085100  0.077600  1.0
  C  C58  1  0.801600  0.914900  0.922400  1.0
  C  C59  1  0.268900  0.928500  0.968200  1.0
  C  C60  1  0.731100  0.071500  0.031800  1.0
  C  C61  1  0.269000  0.784100  0.938300  1.0
  C  C62  1  0.731000  0.215900  0.061700  1.0
  C  C63  1  0.295500  0.748100  0.872200  1.0
  C  C64  1  0.704500  0.251900  0.127800  1.0
  C  C65  1  0.335500  0.849900  0.832000  1.0
  C  C66  1  0.664500  0.150100  0.168000  1.0
  C  C67  1  0.366100  0.818500  0.762500  1.0
  C  C68  1  0.633900  0.181500  0.237500  1.0
  C  C69  1  0.401900  0.922000  0.727400  1.0
  C  C70  1  0.598100  0.078000  0.272600  1.0
  C  C71  1  0.402700  0.073300  0.760000  1.0
  C  C72  1  0.597300  0.926700  0.240000  1.0
  C  C73  1  0.370900  0.112800  0.825600  1.0
  C  C74  1  0.629100  0.887200  0.174400  1.0
  C  C75  1  0.336500  0.001000  0.863900  1.0
  C  C76  1  0.663500  0.999000  0.136100  1.0
  C  C77  1  0.300900  0.043200  0.933400  1.0
  C  C78  1  0.699100  0.956800  0.066600  1.0
  C  C79  1  0.343400  0.201200  0.670600  1.0
  C  C80  1  0.656600  0.798800  0.329400  1.0
  C  C81  1  0.531900  0.574100  0.597000  1.0
  C  C82  1  0.468100  0.425900  0.403000  1.0
  C  C83  1  0.364300  0.505700  0.569200  1.0
  C  C84  1  0.635700  0.494300  0.430800  1.0
  C  C85  1  0.302800  0.383700  0.593800  1.0
  C  C86  1  0.697200  0.616300  0.406200  1.0
  C  C87  1  0.408700  0.330000  0.643300  1.0
  C  C88  1  0.591300  0.670000  0.356700  1.0
  C  C89  1  0.576800  0.403100  0.668500  1.0
  C  C90  1  0.423200  0.596900  0.331500  1.0
  N  N91  1  0.593000  0.956000  0.581600  1
  N  N92  1  0.407000  0.044000  0.418400  1
  N  N93  1  0.112100  0.187400  0.255200  1.0
  N  N94  1  0.887900  0.812600  0.744800  1.0
  N  N95  1  0.638900  0.517300  0.643700  1.0
  N  N96  1  0.361100  0.482700  0.356300  1.0
  Cl  Cl97  1  0.075000  0.426700  0.953600  1
  Cl  Cl98  1  0.925000  0.573300  0.046400  1
  Cl  Cl99  1  0.287000  0.552000  0.099900  1
  Cl  Cl100  1  0.713000  0.448000  0.900100  1
  Cl  Cl101  1  0.967500  0.543300  0.267700  1.0
  Cl  Cl102  1  0.032500  0.456700  0.732300  1.0
  Cl  Cl103  1  0.018000  0.321600  0.418400  1.0
  Cl  Cl104  1  0.982000  0.678400  0.581600  1.0
  O  O105  1  0.213000  0.194500  0.056800  1.0
  O  O106  1  0.787000  0.805500  0.943200  1.0
  O  O107  1  0.230900  0.954900  0.036800  1.0
  O  O108  1  0.769100  0.045100  0.963200  1.0
  O  O109  1  0.447900  0.187700  0.727100  1.0
  O  O110  1  0.552100  0.812300  0.272900  1.0
  O  O111  1  0.200500  0.126700  0.645000  1.0
  O  O112  1  0.799500  0.873300  0.355000  1.0
