# generated using pymatgen
data_Ti2H32C18(Cl2O3)3
_symmetry_space_group_name_H-M   'P 1'
_cell_length_a   12.43600000
_cell_length_b   13.68300000
_cell_length_c   18.33500000
_cell_angle_alpha   102.47400000
_cell_angle_beta   90.00000000
_cell_angle_gamma   90.00000000
_symmetry_Int_Tables_number   1
_chemical_formula_structural   Ti2H32C18(Cl2O3)3
_chemical_formula_sum   'Ti8 H128 C72 Cl24 O36'
_cell_volume   3046.26802302
_cell_formula_units_Z   4
loop_
 _symmetry_equiv_pos_site_id
 _symmetry_equiv_pos_as_xyz
  1  'x, y, z'
loop_
 _atom_site_type_symbol
 _atom_site_label
 _atom_site_symmetry_multiplicity
 _atom_site_fract_x
 _atom_site_fract_y
 _atom_site_fract_z
 _atom_site_occupancy
  Ti  Ti1  1  0.920030  0.371140  0.334100  1
  Ti  Ti2  1  0.420030  0.128860  0.665900  1
  Ti  Ti3  1  0.079970  0.628860  0.665900  1
  Ti  Ti4  1  0.579970  0.871140  0.334100  1
  Ti  Ti5  1  0.117420  0.346430  0.187390  1
  Ti  Ti6  1  0.617420  0.153570  0.812610  1
  Ti  Ti7  1  0.882580  0.653570  0.812610  1
  Ti  Ti8  1  0.382580  0.846430  0.187390  1
  H  H9  1  0.567900  0.470900  0.619200  1
  H  H10  1  0.067900  0.029100  0.380800  1
  H  H11  1  0.432100  0.529100  0.380800  1
  H  H12  1  0.932100  0.970900  0.619200  1
  H  H13  1  0.540200  0.354600  0.591300  1
  H  H14  1  0.040200  0.145400  0.408700  1
  H  H15  1  0.459800  0.645400  0.408700  1
  H  H16  1  0.959800  0.854600  0.591300  1
  H  H17  1  0.510100  0.431800  0.540300  1
  H  H18  1  0.010100  0.068200  0.459700  1
  H  H19  1  0.489900  0.568200  0.459700  1
  H  H20  1  0.989900  0.931800  0.540300  1
  H  H21  1  0.945600  0.857400  0.363800  1
  H  H22  1  0.445600  0.642600  0.636200  1
  H  H23  1  0.054400  0.142600  0.636200  1
  H  H24  1  0.554400  0.357400  0.363800  1
  H  H25  1  0.067400  0.835100  0.337200  1
  H  H26  1  0.567400  0.664900  0.662800  1
  H  H27  1  0.932600  0.164900  0.662800  1
  H  H28  1  0.432600  0.335100  0.337200  1
  H  H29  1  0.031600  0.824900  0.419000  1
  H  H30  1  0.531600  0.675100  0.581000  1
  H  H31  1  0.968400  0.175100  0.581000  1
  H  H32  1  0.468400  0.324900  0.419000  1
  H  H33  1  0.109700  0.016800  0.125400  1
  H  H34  1  0.609700  0.483200  0.874600  1
  H  H35  1  0.890300  0.983200  0.874600  1
  H  H36  1  0.390300  0.516800  0.125400  1
  H  H37  1  0.771000  0.636300  0.478200  1
  H  H38  1  0.271000  0.863700  0.521800  1
  H  H39  1  0.229000  0.363700  0.521800  1
  H  H40  1  0.729000  0.136300  0.478200  1
  H  H41  1  0.713600  0.589900  0.400600  1
  H  H42  1  0.213600  0.910100  0.599400  1
  H  H43  1  0.286400  0.410100  0.599400  1
  H  H44  1  0.786400  0.089900  0.400600  1
  H  H45  1  0.667500  0.340500  0.493300  1
  H  H46  1  0.167500  0.159500  0.506700  1
  H  H47  1  0.332500  0.659500  0.506700  1
  H  H48  1  0.832500  0.840500  0.493300  1
  H  H49  1  0.711200  0.406000  0.963000  1
  H  H50  1  0.211200  0.094000  0.037000  1
  H  H51  1  0.288800  0.594000  0.037000  1
  H  H52  1  0.788800  0.906000  0.963000  1
  H  H53  1  0.749600  0.520300  0.981700  1
  H  H54  1  0.249600  0.979700  0.018300  1
  H  H55  1  0.250400  0.479700  0.018300  1
  H  H56  1  0.750400  0.020300  0.981700  1
  H  H57  1  0.695300  0.473100  0.045300  1
  H  H58  1  0.195300  0.026900  0.954700  1
  H  H59  1  0.304700  0.526900  0.954700  1
  H  H60  1  0.804700  0.973100  0.045300  1
  H  H61  1  0.934600  0.878700  0.104400  1
  H  H62  1  0.434600  0.621300  0.895600  1
  H  H63  1  0.065400  0.121300  0.895600  1
  H  H64  1  0.565400  0.378700  0.104400  1
  H  H65  1  0.057400  0.843800  0.105400  1
  H  H66  1  0.557400  0.656200  0.894600  1
  H  H67  1  0.942600  0.156200  0.894600  1
  H  H68  1  0.442600  0.343800  0.105400  1
  H  H69  1  0.015900  0.897100  0.041000  1
  H  H70  1  0.515900  0.602900  0.959000  1
  H  H71  1  0.984100  0.102900  0.959000  1
  H  H72  1  0.484100  0.397100  0.041000  1
  H  H73  1  0.831300  0.177700  0.085000  1
  H  H74  1  0.331300  0.322300  0.915000  1
  H  H75  1  0.168700  0.822300  0.915000  1
  H  H76  1  0.668700  0.677700  0.085000  1
  H  H77  1  0.833900  0.235800  0.170500  1
  H  H78  1  0.333900  0.264200  0.829500  1
  H  H79  1  0.166100  0.764200  0.829500  1
  H  H80  1  0.666100  0.735800  0.170500  1
  H  H81  1  0.885000  0.483200  0.060300  1
  H  H82  1  0.385000  0.016800  0.939700  1
  H  H83  1  0.115000  0.516800  0.939700  1
  H  H84  1  0.615000  0.983200  0.060300  1
  H  H85  1  0.057300  0.066300  0.251000  1
  H  H86  1  0.557300  0.433700  0.749000  1
  H  H87  1  0.942700  0.933700  0.749000  1
  H  H88  1  0.442700  0.566300  0.251000  1
  H  H89  1  0.092700  0.951200  0.234700  1
  H  H90  1  0.592700  0.548800  0.765300  1
  H  H91  1  0.907300  0.048800  0.765300  1
  H  H92  1  0.407300  0.451200  0.234700  1
  H  H93  1  0.967900  0.980100  0.239400  1
  H  H94  1  0.467900  0.519900  0.760600  1
  H  H95  1  0.032100  0.019900  0.760600  1
  H  H96  1  0.532100  0.480100  0.239400  1
  H  H97  1  0.920100  0.617900  0.241400  1
  H  H98  1  0.420100  0.882100  0.758600  1
  H  H99  1  0.079900  0.382100  0.758600  1
  H  H100  1  0.579900  0.117900  0.241400  1
  H  H101  1  0.991000  0.708300  0.224800  1
  H  H102  1  0.491000  0.791700  0.775200  1
  H  H103  1  0.009000  0.291700  0.775200  1
  H  H104  1  0.509000  0.208300  0.224800  1
  H  H105  1  0.871600  0.728800  0.257200  1
  H  H106  1  0.371600  0.771200  0.742800  1
  H  H107  1  0.128400  0.271200  0.742800  1
  H  H108  1  0.628400  0.228800  0.257200  1
  H  H109  1  0.044500  0.664700  0.339900  1
  H  H110  1  0.544500  0.835300  0.660100  1
  H  H111  1  0.955500  0.335300  0.660100  1
  H  H112  1  0.455500  0.164700  0.339900  1
  H  H113  1  0.829900  0.372500  0.559500  1
  H  H114  1  0.329900  0.127500  0.440500  1
  H  H115  1  0.170100  0.627500  0.440500  1
  H  H116  1  0.670100  0.872500  0.559500  1
  H  H117  1  0.747500  0.315500  0.602900  1
  H  H118  1  0.247500  0.184500  0.397100  1
  H  H119  1  0.252500  0.684500  0.397100  1
  H  H120  1  0.752500  0.815500  0.602900  1
  H  H121  1  0.766200  0.433300  0.630900  1
  H  H122  1  0.266200  0.066700  0.369100  1
  H  H123  1  0.233800  0.566700  0.369100  1
  H  H124  1  0.733800  0.933300  0.630900  1
  H  H125  1  0.990800  0.365200  0.971500  1
  H  H126  1  0.490800  0.134800  0.028500  1
  H  H127  1  0.009200  0.634800  0.028500  1
  H  H128  1  0.509200  0.865200  0.971500  1
  H  H129  1  0.941300  0.448900  0.932400  1
  H  H130  1  0.441300  0.051100  0.067600  1
  H  H131  1  0.058700  0.551100  0.067600  1
  H  H132  1  0.558700  0.948900  0.932400  1
  H  H133  1  0.887600  0.340200  0.918600  1
  H  H134  1  0.387600  0.159800  0.081400  1
  H  H135  1  0.112400  0.659800  0.081400  1
  H  H136  1  0.612400  0.840200  0.918600  1
  C  C137  1  0.562900  0.415400  0.575500  1
  C  C138  1  0.062900  0.084600  0.424500  1
  C  C139  1  0.437100  0.584600  0.424500  1
  C  C140  1  0.937100  0.915400  0.575500  1
  C  C141  1  0.008800  0.815700  0.366800  1
  C  C142  1  0.508800  0.684300  0.633200  1
  C  C143  1  0.991200  0.184300  0.633200  1
  C  C144  1  0.491200  0.315700  0.366800  1
  C  C145  1  0.878300  0.595500  0.391600  1
  C  C146  1  0.378300  0.904500  0.608400  1
  C  C147  1  0.121700  0.404500  0.608400  1
  C  C148  1  0.621700  0.095500  0.391600  1
  C  C149  1  0.038200  0.995100  0.141200  1
  C  C150  1  0.538200  0.504900  0.858800  1
  C  C151  1  0.961800  0.004900  0.858800  1
  C  C152  1  0.461800  0.495100  0.141200  1
  C  C153  1  0.775400  0.581900  0.432800  1
  C  C154  1  0.275400  0.918100  0.567200  1
  C  C155  1  0.224600  0.418100  0.567200  1
  C  C156  1  0.724600  0.081900  0.432800  1
  C  C157  1  0.672800  0.397900  0.537400  1
  C  C158  1  0.172800  0.102100  0.462600  1
  C  C159  1  0.327200  0.602100  0.462600  1
  C  C160  1  0.827200  0.897900  0.537400  1
  C  C161  1  0.973200  0.158800  0.137300  1
  C  C162  1  0.473200  0.341200  0.862700  1
  C  C163  1  0.026800  0.841200  0.862700  1
  C  C164  1  0.526800  0.658800  0.137300  1
  C  C165  1  0.742300  0.459600  0.001500  1
  C  C166  1  0.242300  0.040400  0.998500  1
  C  C167  1  0.257700  0.540400  0.998500  1
  C  C168  1  0.757700  0.959600  0.001500  1
  C  C169  1  0.009000  0.895000  0.093900  1
  C  C170  1  0.509000  0.605000  0.906100  1
  C  C171  1  0.991000  0.105000  0.906100  1
  C  C172  1  0.491000  0.395000  0.093900  1
  C  C173  1  0.876800  0.219400  0.124000  1
  C  C174  1  0.376800  0.280600  0.876000  1
  C  C175  1  0.123200  0.780600  0.876000  1
  C  C176  1  0.623200  0.719400  0.124000  1
  C  C177  1  0.850100  0.428100  0.023100  1
  C  C178  1  0.350100  0.071900  0.976900  1
  C  C179  1  0.149900  0.571900  0.976900  1
  C  C180  1  0.649900  0.928100  0.023100  1
  C  C181  1  0.039100  0.998500  0.223800  1
  C  C182  1  0.539100  0.501500  0.776200  1
  C  C183  1  0.960900  0.001500  0.776200  1
  C  C184  1  0.460900  0.498500  0.223800  1
  C  C185  1  0.763300  0.484600  0.455800  1
  C  C186  1  0.263300  0.015400  0.544200  1
  C  C187  1  0.236700  0.515400  0.544200  1
  C  C188  1  0.736700  0.984600  0.455800  1
  C  C189  1  0.937000  0.689100  0.258100  1
  C  C190  1  0.437000  0.810900  0.741900  1
  C  C191  1  0.063000  0.310900  0.741900  1
  C  C192  1  0.563000  0.189100  0.258100  1
  C  C193  1  0.980900  0.708400  0.337100  1
  C  C194  1  0.480900  0.791600  0.662900  1
  C  C195  1  0.019100  0.291600  0.662900  1
  C  C196  1  0.519100  0.208400  0.337100  1
  C  C197  1  0.761700  0.378100  0.586900  1
  C  C198  1  0.261700  0.121900  0.413100  1
  C  C199  1  0.238300  0.621900  0.413100  1
  C  C200  1  0.738300  0.878100  0.586900  1
  C  C201  1  0.903500  0.314400  0.100400  1
  C  C202  1  0.403500  0.185600  0.899600  1
  C  C203  1  0.096500  0.685600  0.899600  1
  C  C204  1  0.596500  0.814400  0.100400  1
  C  C205  1  0.924200  0.392400  0.955200  1
  C  C206  1  0.424200  0.107600  0.044800  1
  C  C207  1  0.075800  0.607600  0.044800  1
  C  C208  1  0.575800  0.892400  0.955200  1
  Cl  Cl209  1  0.868900  0.207600  0.315280  1
  Cl  Cl210  1  0.368900  0.292400  0.684720  1
  Cl  Cl211  1  0.131100  0.792400  0.684720  1
  Cl  Cl212  1  0.631100  0.707600  0.315280  1
  Cl  Cl213  1  0.043400  0.364400  0.426980  1
  Cl  Cl214  1  0.543400  0.135600  0.573020  1
  Cl  Cl215  1  0.956600  0.635600  0.573020  1
  Cl  Cl216  1  0.456600  0.864400  0.426980  1
  Cl  Cl217  1  0.773600  0.411500  0.262960  1
  Cl  Cl218  1  0.273600  0.088500  0.737040  1
  Cl  Cl219  1  0.226400  0.588500  0.737040  1
  Cl  Cl220  1  0.726400  0.911500  0.262960  1
  Cl  Cl221  1  0.247500  0.290500  0.251500  1
  Cl  Cl222  1  0.747500  0.209500  0.748500  1
  Cl  Cl223  1  0.752500  0.709500  0.748500  1
  Cl  Cl224  1  0.252500  0.790500  0.251500  1
  Cl  Cl225  1  0.158000  0.508300  0.209970  1
  Cl  Cl226  1  0.658000  0.991700  0.790030  1
  Cl  Cl227  1  0.842000  0.491700  0.790030  1
  Cl  Cl228  1  0.342000  0.008300  0.209970  1
  Cl  Cl229  1  0.203700  0.309900  0.073380  1
  Cl  Cl230  1  0.703700  0.190100  0.926620  1
  Cl  Cl231  1  0.796300  0.690100  0.926620  1
  Cl  Cl232  1  0.296300  0.809900  0.073380  1
  O  O233  1  0.694600  0.491000  0.510900  1
  O  O234  1  0.194600  0.009000  0.489100  1
  O  O235  1  0.305400  0.509000  0.489100  1
  O  O236  1  0.805400  0.991000  0.510900  1
  O  O237  1  0.807100  0.407500  0.425900  1
  O  O238  1  0.307100  0.092500  0.574100  1
  O  O239  1  0.192900  0.592500  0.574100  1
  O  O240  1  0.692900  0.907500  0.425900  1
  O  O241  1  0.831400  0.339000  0.056100  1
  O  O242  1  0.331400  0.161000  0.943900  1
  O  O243  1  0.168600  0.661000  0.943900  1
  O  O244  1  0.668600  0.839000  0.056100  1
  O  O245  1  0.984500  0.365700  0.118700  1
  O  O246  1  0.484500  0.134300  0.881300  1
  O  O247  1  0.015500  0.634300  0.881300  1
  O  O248  1  0.515500  0.865700  0.118700  1
  O  O249  1  0.952200  0.064900  0.126000  1
  O  O250  1  0.452200  0.435100  0.874000  1
  O  O251  1  0.047800  0.935100  0.874000  1
  O  O252  1  0.547800  0.564900  0.126000  1
  O  O253  1  0.938400  0.525900  0.361900  1
  O  O254  1  0.438400  0.974100  0.638100  1
  O  O255  1  0.061600  0.474100  0.638100  1
  O  O256  1  0.561600  0.025900  0.361900  1
  O  O257  1  0.061200  0.195600  0.156800  1
  O  O258  1  0.561200  0.304400  0.843200  1
  O  O259  1  0.938800  0.804400  0.843200  1
  O  O260  1  0.438800  0.695600  0.156800  1
  O  O261  1  0.892600  0.687300  0.387200  1
  O  O262  1  0.392600  0.812700  0.612800  1
  O  O263  1  0.107400  0.312700  0.612800  1
  O  O264  1  0.607400  0.187300  0.387200  1
  O  O265  1  0.012900  0.359400  0.261700  1
  O  O266  1  0.512900  0.140600  0.738300  1
  O  O267  1  0.987100  0.640600  0.738300  1
  O  O268  1  0.487100  0.859400  0.261700  1
