# generated using pymatgen
data_H76PdC51N2(ClO3)2
_symmetry_space_group_name_H-M   'P 1'
_cell_length_a   12.75100000
_cell_length_b   18.43100000
_cell_length_c   21.80500000
_cell_angle_alpha   90.00000000
_cell_angle_beta   90.00000000
_cell_angle_gamma   102.80600000
_symmetry_Int_Tables_number   1
_chemical_formula_structural   H76PdC51N2(ClO3)2
_chemical_formula_sum   'H304 Pd4 C204 N8 Cl8 O24'
_cell_volume   4997.00792574
_cell_formula_units_Z   4
loop_
 _symmetry_equiv_pos_site_id
 _symmetry_equiv_pos_as_xyz
  1  'x, y, z'
loop_
 _atom_site_type_symbol
 _atom_site_label
 _atom_site_symmetry_multiplicity
 _atom_site_fract_x
 _atom_site_fract_y
 _atom_site_fract_z
 _atom_site_occupancy
  H  H1  1  0.097400  0.119500  0.157000  1
  H  H2  1  0.402600  0.880500  0.657000  1
  H  H3  1  0.902600  0.880500  0.843000  1
  H  H4  1  0.597400  0.119500  0.343000  1
  H  H5  1  0.150700  0.088900  0.098600  1
  H  H6  1  0.349300  0.911100  0.598600  1
  H  H7  1  0.849300  0.911100  0.901400  1
  H  H8  1  0.650700  0.088900  0.401400  1
  H  H9  1  0.264300  0.175200  0.033200  1
  H  H10  1  0.235700  0.824800  0.533200  1
  H  H11  1  0.735700  0.824800  0.966800  1
  H  H12  1  0.764300  0.175200  0.466800  1
  H  H13  1  0.334800  0.162900  0.091700  1
  H  H14  1  0.165200  0.837100  0.591700  1
  H  H15  1  0.665200  0.837100  0.908300  1
  H  H16  1  0.834800  0.162900  0.408300  1
  H  H17  1  0.532200  0.458200  0.039600  1
  H  H18  1  0.967800  0.541800  0.539600  1
  H  H19  1  0.467800  0.541800  0.960400  1
  H  H20  1  0.032200  0.458200  0.460400  1
  H  H21  1  0.365400  0.446900  0.088600  1
  H  H22  1  0.134600  0.553100  0.588600  1
  H  H23  1  0.634600  0.553100  0.911400  1
  H  H24  1  0.865400  0.446900  0.411400  1
  H  H25  1  0.257900  0.330400  0.106400  1
  H  H26  1  0.242100  0.669600  0.606400  1
  H  H27  1  0.742100  0.669600  0.893600  1
  H  H28  1  0.757900  0.330400  0.393600  1
  H  H29  1  0.668300  0.322500  0.017400  1
  H  H30  1  0.831700  0.677500  0.517400  1
  H  H31  1  0.331700  0.677500  0.982600  1
  H  H32  1  0.168300  0.322500  0.482600  1
  H  H33  1  0.605600  0.322300  0.953700  1
  H  H34  1  0.894400  0.677700  0.453700  1
  H  H35  1  0.394400  0.677700  0.046300  1
  H  H36  1  0.105600  0.322300  0.546300  1
  H  H37  1  0.810700  0.407400  0.025000  1
  H  H38  1  0.689300  0.592600  0.525000  1
  H  H39  1  0.189300  0.592600  0.975000  1
  H  H40  1  0.310700  0.407400  0.475000  1
  H  H41  1  0.752600  0.464700  0.059600  1
  H  H42  1  0.747400  0.535300  0.559600  1
  H  H43  1  0.247400  0.535300  0.940400  1
  H  H44  1  0.252600  0.464700  0.440400  1
  H  H45  1  0.929200  0.693400  0.982400  1
  H  H46  1  0.570800  0.306600  0.482400  1
  H  H47  1  0.070800  0.306600  0.017600  1
  H  H48  1  0.429200  0.693400  0.517600  1
  H  H49  1  0.020900  0.662800  0.897700  1
  H  H50  1  0.479100  0.337200  0.397700  1
  H  H51  1  0.979100  0.337200  0.102300  1
  H  H52  1  0.520900  0.662800  0.602300  1
  H  H53  1  0.007800  0.541500  0.868800  1
  H  H54  1  0.492200  0.458500  0.368800  1
  H  H55  1  0.992200  0.458500  0.131200  1
  H  H56  1  0.507800  0.541500  0.631200  1
  H  H57  1  0.026100  0.421700  0.879300  1
  H  H58  1  0.473900  0.578300  0.379300  1
  H  H59  1  0.973900  0.578300  0.120700  1
  H  H60  1  0.526100  0.421700  0.620700  1
  H  H61  1  0.927400  0.422000  0.833600  1
  H  H62  1  0.572600  0.578000  0.333600  1
  H  H63  1  0.072600  0.578000  0.166400  1
  H  H64  1  0.427400  0.422000  0.666400  1
  H  H65  1  0.939700  0.299500  0.911100  1
  H  H66  1  0.560300  0.700500  0.411100  1
  H  H67  1  0.060300  0.700500  0.088900  1
  H  H68  1  0.439700  0.299500  0.588900  1
  H  H69  1  0.972200  0.302800  0.840100  1
  H  H70  1  0.527800  0.697200  0.340100  1
  H  H71  1  0.027800  0.697200  0.159900  1
  H  H72  1  0.472200  0.302800  0.659900  1
  H  H73  1  0.763700  0.288700  0.890100  1
  H  H74  1  0.736300  0.711300  0.390100  1
  H  H75  1  0.236300  0.711300  0.109900  1
  H  H76  1  0.263700  0.288700  0.609900  1
  H  H77  1  0.787200  0.317300  0.821500  1
  H  H78  1  0.712800  0.682700  0.321500  1
  H  H79  1  0.212800  0.682700  0.178500  1
  H  H80  1  0.287200  0.317300  0.678500  1
  H  H81  1  0.821000  0.207900  0.792500  1
  H  H82  1  0.679000  0.792100  0.292500  1
  H  H83  1  0.179000  0.792100  0.207500  1
  H  H84  1  0.321000  0.207900  0.707500  1
  H  H85  1  0.814600  0.179000  0.860700  1
  H  H86  1  0.685400  0.821000  0.360700  1
  H  H87  1  0.185400  0.821000  0.139300  1
  H  H88  1  0.314600  0.179000  0.639300  1
  H  H89  1  0.682100  0.107400  0.795600  1
  H  H90  1  0.817900  0.892600  0.295600  1
  H  H91  1  0.317900  0.892600  0.204400  1
  H  H92  1  0.182100  0.107400  0.704400  1
  H  H93  1  0.624300  0.142700  0.851900  1
  H  H94  1  0.875700  0.857300  0.351900  1
  H  H95  1  0.375700  0.857300  0.148100  1
  H  H96  1  0.124300  0.142700  0.648100  1
  H  H97  1  0.639900  0.256800  0.798300  1
  H  H98  1  0.860100  0.743200  0.298300  1
  H  H99  1  0.360100  0.743200  0.201700  1
  H  H100  1  0.139900  0.256800  0.701700  1
  H  H101  1  0.720100  0.233000  0.748000  1
  H  H102  1  0.779900  0.767000  0.248000  1
  H  H103  1  0.279900  0.767000  0.252000  1
  H  H104  1  0.220100  0.233000  0.752000  1
  H  H105  1  0.583700  0.167000  0.699200  1
  H  H106  1  0.916300  0.833000  0.199200  1
  H  H107  1  0.416300  0.833000  0.300800  1
  H  H108  1  0.083700  0.167000  0.800800  1
  H  H109  1  0.504800  0.195000  0.745400  1
  H  H110  1  0.995200  0.805000  0.245400  1
  H  H111  1  0.495200  0.805000  0.254600  1
  H  H112  1  0.004800  0.195000  0.754600  1
  H  H113  1  0.521500  0.086900  0.806600  1
  H  H114  1  0.978500  0.913100  0.306600  1
  H  H115  1  0.478500  0.913100  0.193400  1
  H  H116  1  0.021500  0.086900  0.693400  1
  H  H117  1  0.564900  0.058500  0.744800  1
  H  H118  1  0.935100  0.941500  0.244800  1
  H  H119  1  0.435100  0.941500  0.255200  1
  H  H120  1  0.064900  0.058500  0.755200  1
  H  H121  1  0.358800  0.087100  0.749700  1
  H  H122  1  0.141200  0.912900  0.249700  1
  H  H123  1  0.641200  0.912900  0.250300  1
  H  H124  1  0.858800  0.087100  0.750300  1
  H  H125  1  0.404800  0.040000  0.699800  1
  H  H126  1  0.095200  0.960000  0.199800  1
  H  H127  1  0.595200  0.960000  0.300200  1
  H  H128  1  0.904800  0.040000  0.800200  1
  H  H129  1  0.381700  0.939900  0.769100  1
  H  H130  1  0.118300  0.060100  0.269100  1
  H  H131  1  0.618300  0.060100  0.230900  1
  H  H132  1  0.881700  0.939900  0.730900  1
  H  H133  1  0.271800  0.962500  0.750100  1
  H  H134  1  0.228200  0.037500  0.250100  1
  H  H135  1  0.728200  0.037500  0.249900  1
  H  H136  1  0.771800  0.962500  0.749900  1
  H  H137  1  0.309200  0.942300  0.862500  1
  H  H138  1  0.190800  0.057700  0.362500  1
  H  H139  1  0.690800  0.057700  0.137500  1
  H  H140  1  0.809200  0.942300  0.637500  1
  H  H141  1  0.377500  0.026000  0.859100  1
  H  H142  1  0.122500  0.974000  0.359100  1
  H  H143  1  0.622500  0.974000  0.140900  1
  H  H144  1  0.877500  0.026000  0.640900  1
  H  H145  1  0.153100  0.980600  0.837000  1
  H  H146  1  0.346900  0.019400  0.337000  1
  H  H147  1  0.846900  0.019400  0.163000  1
  H  H148  1  0.653100  0.980600  0.663000  1
  H  H149  1  0.219700  0.064400  0.828400  1
  H  H150  1  0.280300  0.935600  0.328400  1
  H  H151  1  0.780300  0.935600  0.171600  1
  H  H152  1  0.719700  0.064400  0.671600  1
  H  H153  1  0.186200  0.986200  0.942400  1
  H  H154  1  0.313800  0.013800  0.442400  1
  H  H155  1  0.813800  0.013800  0.057600  1
  H  H156  1  0.686200  0.986200  0.557600  1
  H  H157  1  0.264700  0.066600  0.935700  1
  H  H158  1  0.235300  0.933400  0.435700  1
  H  H159  1  0.735300  0.933400  0.064300  1
  H  H160  1  0.764700  0.066600  0.564300  1
  H  H161  1  0.112800  0.114800  0.903100  1
  H  H162  1  0.387200  0.885200  0.403100  1
  H  H163  1  0.887200  0.885200  0.096900  1
  H  H164  1  0.612800  0.114800  0.596900  1
  H  H165  1  0.036600  0.034700  0.917200  1
  H  H166  1  0.463400  0.965300  0.417200  1
  H  H167  1  0.963400  0.965300  0.082800  1
  H  H168  1  0.536600  0.034700  0.582800  1
  H  H169  1  0.800600  0.197400  0.082000  1
  H  H170  1  0.699400  0.802600  0.582000  1
  H  H171  1  0.199400  0.802600  0.918000  1
  H  H172  1  0.300600  0.197400  0.418000  1
  H  H173  1  0.801300  0.170800  0.978000  1
  H  H174  1  0.698700  0.829200  0.478000  1
  H  H175  1  0.198700  0.829200  0.022000  1
  H  H176  1  0.301300  0.170800  0.522000  1
  H  H177  1  0.935300  0.121100  0.933800  1
  H  H178  1  0.564700  0.878900  0.433800  1
  H  H179  1  0.064700  0.878900  0.066200  1
  H  H180  1  0.435300  0.121100  0.566200  1
  H  H181  1  0.761400  0.694600  0.039700  1
  H  H182  1  0.738600  0.305400  0.539700  1
  H  H183  1  0.238600  0.305400  0.960300  1
  H  H184  1  0.261400  0.694600  0.460300  1
  H  H185  1  0.871300  0.701000  0.077400  1
  H  H186  1  0.628700  0.299000  0.577400  1
  H  H187  1  0.128700  0.299000  0.922600  1
  H  H188  1  0.371300  0.701000  0.422600  1
  H  H189  1  0.733300  0.720200  0.140800  1
  H  H190  1  0.766700  0.279800  0.640800  1
  H  H191  1  0.266700  0.279800  0.859200  1
  H  H192  1  0.233300  0.720200  0.359200  1
  H  H193  1  0.778300  0.649800  0.162400  1
  H  H194  1  0.721700  0.350200  0.662400  1
  H  H195  1  0.221700  0.350200  0.837600  1
  H  H196  1  0.278300  0.649800  0.337600  1
  H  H197  1  0.633800  0.568900  0.121600  1
  H  H198  1  0.866200  0.431100  0.621600  1
  H  H199  1  0.366200  0.431100  0.878400  1
  H  H200  1  0.133800  0.568900  0.378400  1
  H  H201  1  0.593200  0.634700  0.088100  1
  H  H202  1  0.906800  0.365300  0.588100  1
  H  H203  1  0.406800  0.365300  0.911900  1
  H  H204  1  0.093200  0.634700  0.411900  1
  H  H205  1  0.593900  0.619200  0.218000  1
  H  H206  1  0.906100  0.380800  0.718000  1
  H  H207  1  0.406100  0.380800  0.782000  1
  H  H208  1  0.093900  0.619200  0.282000  1
  H  H209  1  0.543200  0.678200  0.181200  1
  H  H210  1  0.956800  0.321800  0.681200  1
  H  H211  1  0.456800  0.321800  0.818800  1
  H  H212  1  0.043200  0.678200  0.318800  1
  H  H213  1  0.467200  0.524100  0.181300  1
  H  H214  1  0.032800  0.475900  0.681300  1
  H  H215  1  0.532800  0.475900  0.818700  1
  H  H216  1  0.967200  0.524100  0.318700  1
  H  H217  1  0.420700  0.579000  0.137500  1
  H  H218  1  0.079300  0.421000  0.637500  1
  H  H219  1  0.579300  0.421000  0.862500  1
  H  H220  1  0.920700  0.579000  0.362500  1
  H  H221  1  0.412400  0.580600  0.266500  1
  H  H222  1  0.087600  0.419400  0.766500  1
  H  H223  1  0.587600  0.419400  0.733500  1
  H  H224  1  0.912400  0.580600  0.233500  1
  H  H225  1  0.367800  0.636800  0.223400  1
  H  H226  1  0.132200  0.363200  0.723400  1
  H  H227  1  0.632200  0.363200  0.776600  1
  H  H228  1  0.867800  0.636800  0.276600  1
  H  H229  1  0.256500  0.525100  0.182200  1
  H  H230  1  0.243500  0.474900  0.682200  1
  H  H231  1  0.743500  0.474900  0.817800  1
  H  H232  1  0.756500  0.525100  0.317800  1
  H  H233  1  0.224700  0.561000  0.244500  1
  H  H234  1  0.275300  0.439000  0.744500  1
  H  H235  1  0.775300  0.439000  0.755500  1
  H  H236  1  0.724700  0.561000  0.255500  1
  H  H237  1  0.316300  0.479100  0.298900  1
  H  H238  1  0.183700  0.520900  0.798900  1
  H  H239  1  0.683700  0.520900  0.701100  1
  H  H240  1  0.816300  0.479100  0.201100  1
  H  H241  1  0.324500  0.438200  0.235000  1
  H  H242  1  0.175500  0.561800  0.735000  1
  H  H243  1  0.675500  0.561800  0.765000  1
  H  H244  1  0.824500  0.438200  0.265000  1
  H  H245  1  0.125900  0.418700  0.232100  1
  H  H246  1  0.374100  0.581300  0.732100  1
  H  H247  1  0.874100  0.581300  0.767900  1
  H  H248  1  0.625900  0.418700  0.267900  1
  H  H249  1  0.136000  0.437200  0.304200  1
  H  H250  1  0.364000  0.562800  0.804200  1
  H  H251  1  0.864000  0.562800  0.695800  1
  H  H252  1  0.636000  0.437200  0.195800  1
  H  H253  1  0.187900  0.334300  0.326600  1
  H  H254  1  0.312100  0.665700  0.826600  1
  H  H255  1  0.812100  0.665700  0.673400  1
  H  H256  1  0.687900  0.334300  0.173400  1
  H  H257  1  0.253400  0.335100  0.264100  1
  H  H258  1  0.246600  0.664900  0.764100  1
  H  H259  1  0.746600  0.664900  0.735900  1
  H  H260  1  0.753400  0.335100  0.235900  1
  H  H261  1  0.098800  0.282300  0.211200  1
  H  H262  1  0.401200  0.717700  0.711200  1
  H  H263  1  0.901200  0.717700  0.788800  1
  H  H264  1  0.598800  0.282300  0.288800  1
  H  H265  1  0.110600  0.231400  0.268900  1
  H  H266  1  0.389400  0.768600  0.768900  1
  H  H267  1  0.889400  0.768600  0.731100  1
  H  H268  1  0.610600  0.231400  0.231100  1
  H  H269  1  0.968100  0.327700  0.259200  1
  H  H270  1  0.531900  0.672300  0.759200  1
  H  H271  1  0.031900  0.672300  0.740800  1
  H  H272  1  0.468100  0.327700  0.240800  1
  H  H273  1  0.986000  0.287200  0.321600  1
  H  H274  1  0.514000  0.712800  0.821600  1
  H  H275  1  0.014000  0.712800  0.678400  1
  H  H276  1  0.486000  0.287200  0.178400  1
  H  H277  1  0.829900  0.221700  0.282100  1
  H  H278  1  0.670100  0.778300  0.782100  1
  H  H279  1  0.170100  0.778300  0.717900  1
  H  H280  1  0.329900  0.221700  0.217900  1
  H  H281  1  0.914800  0.170600  0.273700  1
  H  H282  1  0.585200  0.829400  0.773700  1
  H  H283  1  0.085200  0.829400  0.726300  1
  H  H284  1  0.414800  0.170600  0.226300  1
  H  H285  1  0.797200  0.170900  0.186400  1
  H  H286  1  0.702800  0.829100  0.686400  1
  H  H287  1  0.202800  0.829100  0.813600  1
  H  H288  1  0.297200  0.170900  0.313600  1
  H  H289  1  0.859000  0.255500  0.173900  1
  H  H290  1  0.641000  0.744500  0.673900  1
  H  H291  1  0.141000  0.744500  0.826100  1
  H  H292  1  0.359000  0.255500  0.326100  1
  H  H293  1  0.581100  0.956500  0.911900  1
  H  H294  1  0.918900  0.043500  0.411900  1
  H  H295  1  0.418900  0.043500  0.088100  1
  H  H296  1  0.081100  0.956500  0.588100  1
  H  H297  1  0.682100  0.979600  0.957000  1
  H  H298  1  0.817900  0.020400  0.457000  1
  H  H299  1  0.317900  0.020400  0.043000  1
  H  H300  1  0.182100  0.979600  0.543000  1
  H  H301  1  0.684400  0.017800  0.890900  1
  H  H302  1  0.815600  0.982200  0.390900  1
  H  H303  1  0.315600  0.982200  0.109100  1
  H  H304  1  0.184400  0.017800  0.609100  1
  Pd  Pd305  1  0.501860  0.188570  0.005385  1
  Pd  Pd306  1  0.998140  0.811430  0.505385  1
  Pd  Pd307  1  0.498140  0.811430  0.994615  1
  Pd  Pd308  1  0.001860  0.188570  0.494615  1
  C  C309  1  0.121200  0.130700  0.114100  1
  C  C310  1  0.378800  0.869300  0.614100  1
  C  C311  1  0.878800  0.869300  0.885900  1
  C  C312  1  0.621200  0.130700  0.385900  1
  C  C313  1  0.291000  0.195700  0.073700  1
  C  C314  1  0.209000  0.804300  0.573700  1
  C  C315  1  0.709000  0.804300  0.926300  1
  C  C316  1  0.791000  0.195700  0.426300  1
  C  C317  1  0.358200  0.272500  0.066100  1
  C  C318  1  0.141800  0.727500  0.566100  1
  C  C319  1  0.641800  0.727500  0.933900  1
  C  C320  1  0.858200  0.272500  0.433900  1
  C  C321  1  0.519200  0.346500  0.027700  1
  C  C322  1  0.980800  0.653500  0.527700  1
  C  C323  1  0.480800  0.653500  0.972300  1
  C  C324  1  0.019200  0.346500  0.472300  1
  C  C325  1  0.487100  0.410500  0.046600  1
  C  C326  1  0.012900  0.589500  0.546600  1
  C  C327  1  0.512900  0.589500  0.953400  1
  C  C328  1  0.987100  0.410500  0.453400  1
  C  C329  1  0.388300  0.403700  0.075800  1
  C  C330  1  0.111700  0.596300  0.575800  1
  C  C331  1  0.611700  0.596300  0.924200  1
  C  C332  1  0.888300  0.403700  0.424200  1
  C  C333  1  0.324900  0.335300  0.085900  1
  C  C334  1  0.175100  0.664700  0.585900  1
  C  C335  1  0.675100  0.664700  0.914100  1
  C  C336  1  0.824900  0.335300  0.414100  1
  C  C337  1  0.622200  0.348600  0.993300  1
  C  C338  1  0.877800  0.651400  0.493300  1
  C  C339  1  0.377800  0.651400  0.006700  1
  C  C340  1  0.122200  0.348600  0.506700  1
  C  C341  1  0.773000  0.448300  0.018900  1
  C  C342  1  0.727000  0.551700  0.518900  1
  C  C343  1  0.227000  0.551700  0.981100  1
  C  C344  1  0.273000  0.448300  0.481100  1
  C  C345  1  0.845200  0.512000  0.986400  1
  C  C346  1  0.654800  0.488000  0.486400  1
  C  C347  1  0.154800  0.488000  0.013600  1
  C  C348  1  0.345200  0.512000  0.513600  1
  C  C349  1  0.855400  0.585600  0.004200  1
  C  C350  1  0.644600  0.414400  0.504200  1
  C  C351  1  0.144600  0.414400  0.995800  1
  C  C352  1  0.355400  0.585600  0.495800  1
  C  C353  1  0.921800  0.642800  0.970800  1
  C  C354  1  0.578200  0.357200  0.470800  1
  C  C355  1  0.078200  0.357200  0.029200  1
  C  C356  1  0.421800  0.642800  0.529200  1
  C  C357  1  0.976300  0.624100  0.920700  1
  C  C358  1  0.523700  0.375900  0.420700  1
  C  C359  1  0.023700  0.375900  0.079300  1
  C  C360  1  0.476300  0.624100  0.579300  1
  C  C361  1  0.968700  0.552900  0.903200  1
  C  C362  1  0.531300  0.447100  0.403200  1
  C  C363  1  0.031300  0.447100  0.096800  1
  C  C364  1  0.468700  0.552900  0.596800  1
  C  C365  1  0.902500  0.497000  0.936400  1
  C  C366  1  0.597500  0.503000  0.436400  1
  C  C367  1  0.097500  0.503000  0.063600  1
  C  C368  1  0.402500  0.497000  0.563600  1
  C  C369  1  0.948200  0.401800  0.872700  1
  C  C370  1  0.551800  0.598200  0.372700  1
  C  C371  1  0.051800  0.598200  0.127300  1
  C  C372  1  0.448200  0.401800  0.627300  1
  C  C373  1  0.924200  0.318700  0.870500  1
  C  C374  1  0.575800  0.681300  0.370500  1
  C  C375  1  0.075800  0.681300  0.129500  1
  C  C376  1  0.424200  0.318700  0.629500  1
  C  C377  1  0.808500  0.285300  0.853500  1
  C  C378  1  0.691500  0.714700  0.353500  1
  C  C379  1  0.191500  0.714700  0.146500  1
  C  C380  1  0.308500  0.285300  0.646500  1
  C  C381  1  0.779000  0.206500  0.830900  1
  C  C382  1  0.721000  0.793500  0.330900  1
  C  C383  1  0.221000  0.793500  0.169100  1
  C  C384  1  0.279000  0.206500  0.669100  1
  C  C385  1  0.674900  0.153400  0.817000  1
  C  C386  1  0.825100  0.846600  0.317000  1
  C  C387  1  0.325100  0.846600  0.183000  1
  C  C388  1  0.174900  0.153400  0.683000  1
  C  C389  1  0.658300  0.214700  0.775600  1
  C  C390  1  0.841700  0.785300  0.275600  1
  C  C391  1  0.341700  0.785300  0.224400  1
  C  C392  1  0.158300  0.214700  0.724400  1
  C  C393  1  0.564000  0.168000  0.743000  1
  C  C394  1  0.936000  0.832000  0.243000  1
  C  C395  1  0.436000  0.832000  0.257000  1
  C  C396  1  0.064000  0.168000  0.757000  1
  C  C397  1  0.516500  0.089000  0.761400  1
  C  C398  1  0.983500  0.911000  0.261400  1
  C  C399  1  0.483500  0.911000  0.238600  1
  C  C400  1  0.016500  0.089000  0.738600  1
  C  C401  1  0.403300  0.049800  0.744400  1
  C  C402  1  0.096700  0.950200  0.244400  1
  C  C403  1  0.596700  0.950200  0.255600  1
  C  C404  1  0.903300  0.049800  0.755600  1
  C  C405  1  0.340300  0.979200  0.772700  1
  C  C406  1  0.159700  0.020800  0.272700  1
  C  C407  1  0.659700  0.020800  0.227300  1
  C  C408  1  0.840300  0.979200  0.727300  1
  C  C409  1  0.315800  0.990300  0.840900  1
  C  C410  1  0.184200  0.009700  0.340900  1
  C  C411  1  0.684200  0.009700  0.159100  1
  C  C412  1  0.815800  0.990300  0.659100  1
  C  C413  1  0.215800  0.018100  0.852200  1
  C  C414  1  0.284200  0.981900  0.352200  1
  C  C415  1  0.784200  0.981900  0.147800  1
  C  C416  1  0.715800  0.018100  0.647800  1
  C  C417  1  0.198800  0.033500  0.919200  1
  C  C418  1  0.301200  0.966500  0.419200  1
  C  C419  1  0.801200  0.966500  0.080800  1
  C  C420  1  0.698800  0.033500  0.580800  1
  C  C421  1  0.104500  0.069600  0.928700  1
  C  C422  1  0.395500  0.930400  0.428700  1
  C  C423  1  0.895500  0.930400  0.071300  1
  C  C424  1  0.604500  0.069600  0.571300  1
  C  C425  1  0.021300  0.119700  0.013300  1
  C  C426  1  0.478700  0.880300  0.513300  1
  C  C427  1  0.978700  0.880300  0.986700  1
  C  C428  1  0.521300  0.119700  0.486700  1
  C  C429  1  0.026300  0.138600  0.075200  1
  C  C430  1  0.473700  0.861400  0.575200  1
  C  C431  1  0.973700  0.861400  0.924800  1
  C  C432  1  0.526300  0.138600  0.424800  1
  C  C433  1  0.942800  0.167000  0.100000  1
  C  C434  1  0.557200  0.833000  0.600000  1
  C  C435  1  0.057200  0.833000  0.900000  1
  C  C436  1  0.442800  0.167000  0.400000  1
  C  C437  1  0.857400  0.178500  0.064500  1
  C  C438  1  0.642600  0.821500  0.564500  1
  C  C439  1  0.142600  0.821500  0.935500  1
  C  C440  1  0.357400  0.178500  0.435500  1
  C  C441  1  0.858000  0.161800  0.003100  1
  C  C442  1  0.642000  0.838200  0.503100  1
  C  C443  1  0.142000  0.838200  0.996900  1
  C  C444  1  0.358000  0.161800  0.496900  1
  C  C445  1  0.937400  0.132400  0.976300  1
  C  C446  1  0.562600  0.867600  0.476300  1
  C  C447  1  0.062600  0.867600  0.023700  1
  C  C448  1  0.437400  0.132400  0.523700  1
  C  C449  1  0.797100  0.671200  0.072200  1
  C  C450  1  0.702900  0.328800  0.572200  1
  C  C451  1  0.202900  0.328800  0.927800  1
  C  C452  1  0.297100  0.671200  0.427800  1
  C  C453  1  0.738100  0.669000  0.129500  1
  C  C454  1  0.761900  0.331000  0.629500  1
  C  C455  1  0.261900  0.331000  0.870500  1
  C  C456  1  0.238100  0.669000  0.370500  1
  C  C457  1  0.628000  0.621400  0.125800  1
  C  C458  1  0.872000  0.378600  0.625800  1
  C  C459  1  0.372000  0.378600  0.874200  1
  C  C460  1  0.128000  0.621400  0.374200  1
  C  C461  1  0.556100  0.627200  0.179800  1
  C  C462  1  0.943900  0.372800  0.679800  1
  C  C463  1  0.443900  0.372800  0.820200  1
  C  C464  1  0.056100  0.627200  0.320200  1
  C  C465  1  0.454400  0.575000  0.177900  1
  C  C466  1  0.045600  0.425000  0.677900  1
  C  C467  1  0.545600  0.425000  0.822100  1
  C  C468  1  0.954400  0.575000  0.322100  1
  C  C469  1  0.378600  0.585400  0.226300  1
  C  C470  1  0.121400  0.414600  0.726300  1
  C  C471  1  0.621400  0.414600  0.773700  1
  C  C472  1  0.878600  0.585400  0.273700  1
  C  C473  1  0.278500  0.536800  0.225200  1
  C  C474  1  0.221500  0.463200  0.725200  1
  C  C475  1  0.721500  0.463200  0.774800  1
  C  C476  1  0.778500  0.536800  0.274800  1
  C  C477  1  0.280900  0.466500  0.258700  1
  C  C478  1  0.219100  0.533500  0.758700  1
  C  C479  1  0.719100  0.533500  0.741300  1
  C  C480  1  0.780900  0.466500  0.241300  1
  C  C481  1  0.171200  0.418300  0.268900  1
  C  C482  1  0.328800  0.581700  0.768900  1
  C  C483  1  0.828800  0.581700  0.731100  1
  C  C484  1  0.671200  0.418300  0.231100  1
  C  C485  1  0.184100  0.340800  0.281700  1
  C  C486  1  0.315900  0.659200  0.781700  1
  C  C487  1  0.815900  0.659200  0.718300  1
  C  C488  1  0.684100  0.340800  0.218300  1
  C  C489  1  0.096000  0.279900  0.256600  1
  C  C490  1  0.404000  0.720100  0.756600  1
  C  C491  1  0.904000  0.720100  0.743400  1
  C  C492  1  0.596000  0.279900  0.243400  1
  C  C493  1  0.985500  0.282100  0.276400  1
  C  C494  1  0.514500  0.717900  0.776400  1
  C  C495  1  0.014500  0.717900  0.723600  1
  C  C496  1  0.485500  0.282100  0.223600  1
  C  C497  1  0.895100  0.216800  0.259300  1
  C  C498  1  0.604900  0.783200  0.759300  1
  C  C499  1  0.104900  0.783200  0.740700  1
  C  C500  1  0.395100  0.216800  0.240700  1
  C  C501  1  0.866400  0.207400  0.191600  1
  C  C502  1  0.633600  0.792600  0.691600  1
  C  C503  1  0.133600  0.792600  0.808400  1
  C  C504  1  0.366400  0.207400  0.308400  1
  C  C505  1  0.591800  0.056000  0.952200  1
  C  C506  1  0.908200  0.944000  0.452200  1
  C  C507  1  0.408200  0.944000  0.047800  1
  C  C508  1  0.091800  0.056000  0.547800  1
  C  C509  1  0.638700  0.997700  0.925800  1
  C  C510  1  0.861300  0.002300  0.425800  1
  C  C511  1  0.361300  0.002300  0.074200  1
  C  C512  1  0.138700  0.997700  0.574200  1
  N  N513  1  0.454500  0.279200  0.036900  1
  N  N514  1  0.045500  0.720800  0.536900  1
  N  N515  1  0.545500  0.720800  0.963100  1
  N  N516  1  0.954500  0.279200  0.463100  1
  N  N517  1  0.555100  0.101300  0.972700  1
  N  N518  1  0.944900  0.898700  0.472700  1
  N  N519  1  0.444900  0.898700  0.027300  1
  N  N520  1  0.055100  0.101300  0.527300  1
  Cl  Cl521  1  0.424400  0.201440  0.912930  1
  Cl  Cl522  1  0.075600  0.798560  0.412930  1
  Cl  Cl523  1  0.575600  0.798560  0.087070  1
  Cl  Cl524  1  0.924400  0.201440  0.587070  1
  Cl  Cl525  1  0.573720  0.174430  0.099570  1
  Cl  Cl526  1  0.926280  0.825570  0.599570  1
  Cl  Cl527  1  0.426280  0.825570  0.900430  1
  Cl  Cl528  1  0.073720  0.174430  0.400430  1
  O  O529  1  0.203400  0.198100  0.112500  1
  O  O530  1  0.296600  0.801900  0.612500  1
  O  O531  1  0.796600  0.801900  0.887500  1
  O  O532  1  0.703400  0.198100  0.387500  1
  O  O533  1  0.679000  0.423300  0.982100  1
  O  O534  1  0.821000  0.576700  0.482100  1
  O  O535  1  0.321000  0.576700  0.017900  1
  O  O536  1  0.179000  0.423300  0.517900  1
  O  O537  1  0.888000  0.422800  0.922100  1
  O  O538  1  0.612000  0.577200  0.422100  1
  O  O539  1  0.112000  0.577200  0.077900  1
  O  O540  1  0.388000  0.422800  0.577900  1
  O  O541  1  0.102500  0.088800  0.992920  1
  O  O542  1  0.397500  0.911200  0.492920  1
  O  O543  1  0.897500  0.911200  0.007080  1
  O  O544  1  0.602500  0.088800  0.507080  1
  O  O545  1  0.799300  0.595800  0.055000  1
  O  O546  1  0.700700  0.404200  0.555000  1
  O  O547  1  0.200700  0.404200  0.945000  1
  O  O548  1  0.299300  0.595800  0.445000  1
  O  O549  1  0.951500  0.181600  0.161100  1
  O  O550  1  0.548500  0.818400  0.661100  1
  O  O551  1  0.048500  0.818400  0.838900  1
  O  O552  1  0.451500  0.181600  0.338900  1
