# generated using pymatgen
data_P2PtC37S2N2O3
_symmetry_space_group_name_H-M   'P 1'
_cell_length_a   15.86900000
_cell_length_b   22.83300000
_cell_length_c   34.19200000
_cell_angle_alpha   100.35000000
_cell_angle_beta   90.00000000
_cell_angle_gamma   90.00000000
_symmetry_Int_Tables_number   1
_chemical_formula_structural   P2PtC37S2N2O3
_chemical_formula_sum   'P16 Pt8 C296 S16 N16 O24'
_cell_volume   12187.43611636
_cell_formula_units_Z   8
loop_
 _symmetry_equiv_pos_site_id
 _symmetry_equiv_pos_as_xyz
  1  'x, y, z'
loop_
 _atom_site_type_symbol
 _atom_site_label
 _atom_site_symmetry_multiplicity
 _atom_site_fract_x
 _atom_site_fract_y
 _atom_site_fract_z
 _atom_site_occupancy
  P  P1  1  0.915700  0.615600  0.894100  1.0
  P  P2  1  0.915700  0.884400  0.605900  1.0
  P  P3  1  0.084300  0.384400  0.105900  1.0
  P  P4  1  0.084300  0.115600  0.394100  1.0
  P  P5  1  0.928000  0.646900  0.806100  1.0
  P  P6  1  0.928000  0.853100  0.693900  1.0
  P  P7  1  0.072000  0.353100  0.193900  1.0
  P  P8  1  0.072000  0.146900  0.306100  1.0
  P  P9  1  0.603400  0.401500  0.518000  1.0
  P  P10  1  0.603400  0.098500  0.982000  1.0
  P  P11  1  0.396600  0.598500  0.482000  1.0
  P  P12  1  0.396600  0.901500  0.018000  1.0
  P  P13  1  0.592900  0.259100  0.487800  1.0
  P  P14  1  0.592900  0.240900  0.012200  1.0
  P  P15  1  0.407100  0.740900  0.512200  1.0
  P  P16  1  0.407100  0.759100  0.987800  1.0
  Pt  Pt17  1  0.879410  0.571380  0.832740  1.0
  Pt  Pt18  1  0.879410  0.928620  0.667260  1.0
  Pt  Pt19  1  0.120590  0.428620  0.167260  1.0
  Pt  Pt20  1  0.120590  0.071380  0.332740  1.0
  Pt  Pt21  1  0.644370  0.319480  0.540700  1.0
  Pt  Pt22  1  0.644370  0.180520  0.959300  1.0
  Pt  Pt23  1  0.355630  0.680520  0.459300  1.0
  Pt  Pt24  1  0.355630  0.819480  0.040700  1.0
  C  C25  1  0.885000  0.456000  0.854900  1.0
  C  C26  1  0.885000  0.044000  0.645100  1.0
  C  C27  1  0.115000  0.544000  0.145100  1.0
  C  C28  1  0.115000  0.956000  0.354900  1.0
  C  C29  1  0.864000  0.397000  0.873600  1.0
  C  C30  1  0.864000  0.103000  0.626400  1.0
  C  C31  1  0.136000  0.603000  0.126400  1.0
  C  C32  1  0.136000  0.897000  0.373600  1.0
  C  C33  1  0.771000  0.402000  0.885000  1.0
  C  C34  1  0.771000  0.098000  0.615000  1.0
  C  C35  1  0.229000  0.598000  0.115000  1.0
  C  C36  1  0.229000  0.902000  0.385000  1.0
  C  C37  1  0.718000  0.448000  0.880200  1.0
  C  C38  1  0.718000  0.052000  0.619800  1.0
  C  C39  1  0.282000  0.552000  0.119800  1.0
  C  C40  1  0.282000  0.948000  0.380200  1.0
  C  C41  1  0.745000  0.498000  0.865300  1.0
  C  C42  1  0.745000  0.002000  0.634700  1.0
  C  C43  1  0.255000  0.502000  0.134700  1.0
  C  C44  1  0.255000  0.998000  0.365300  1.0
  C  C45  1  0.021000  0.600000  0.910100  1.0
  C  C46  1  0.021000  0.900000  0.589900  1.0
  C  C47  1  0.979000  0.400000  0.089900  1.0
  C  C48  1  0.979000  0.100000  0.410100  1.0
  C  C49  1  0.070000  0.558000  0.883900  1.0
  C  C50  1  0.070000  0.942000  0.616100  1.0
  C  C51  1  0.930000  0.442000  0.116100  1.0
  C  C52  1  0.930000  0.058000  0.383900  1.0
  C  C53  1  0.155000  0.542000  0.900000  1.0
  C  C54  1  0.155000  0.958000  0.600000  1.0
  C  C55  1  0.845000  0.458000  0.100000  1.0
  C  C56  1  0.845000  0.042000  0.400000  1.0
  C  C57  1  0.183000  0.568000  0.936000  1.0
  C  C58  1  0.183000  0.932000  0.564000  1.0
  C  C59  1  0.817000  0.432000  0.064000  1.0
  C  C60  1  0.817000  0.068000  0.436000  1.0
  C  C61  1  0.127000  0.614000  0.959300  1.0
  C  C62  1  0.127000  0.886000  0.540700  1.0
  C  C63  1  0.873000  0.386000  0.040700  1.0
  C  C64  1  0.873000  0.114000  0.459300  1.0
  C  C65  1  0.046000  0.634000  0.948700  1.0
  C  C66  1  0.046000  0.866000  0.551300  1.0
  C  C67  1  0.954000  0.366000  0.051300  1.0
  C  C68  1  0.954000  0.134000  0.448700  1.0
  C  C69  1  0.845000  0.593000  0.931300  1.0
  C  C70  1  0.845000  0.907000  0.568700  1.0
  C  C71  1  0.155000  0.407000  0.068700  1.0
  C  C72  1  0.155000  0.093000  0.431300  1.0
  C  C73  1  0.878000  0.544000  0.950800  1.0
  C  C74  1  0.878000  0.956000  0.549200  1.0
  C  C75  1  0.122000  0.456000  0.049200  1.0
  C  C76  1  0.122000  0.044000  0.450800  1.0
  C  C77  1  0.821000  0.528000  0.979000  1.0
  C  C78  1  0.821000  0.972000  0.521000  1.0
  C  C79  1  0.179000  0.472000  0.021000  1.0
  C  C80  1  0.179000  0.028000  0.479000  1.0
  C  C81  1  0.737000  0.554000  0.986000  1.0
  C  C82  1  0.737000  0.946000  0.514000  1.0
  C  C83  1  0.263000  0.446000  0.014000  1.0
  C  C84  1  0.263000  0.054000  0.486000  1.0
  C  C85  1  0.704000  0.600000  0.963000  1.0
  C  C86  1  0.704000  0.900000  0.537000  1.0
  C  C87  1  0.296000  0.400000  0.037000  1.0
  C  C88  1  0.296000  0.100000  0.463000  1.0
  C  C89  1  0.758000  0.619000  0.936000  1.0
  C  C90  1  0.758000  0.881000  0.564000  1.0
  C  C91  1  0.242000  0.381000  0.064000  1.0
  C  C92  1  0.242000  0.119000  0.436000  1.0
  C  C93  1  0.906000  0.699000  0.906100  1.0
  C  C94  1  0.906000  0.801000  0.593900  1.0
  C  C95  1  0.094000  0.301000  0.093900  1.0
  C  C96  1  0.094000  0.199000  0.406100  1.0
  C  C97  1  0.961000  0.729000  0.877800  1.0
  C  C98  1  0.961000  0.771000  0.622200  1.0
  C  C99  1  0.039000  0.271000  0.122200  1.0
  C  C100  1  0.039000  0.229000  0.377800  1.0
  C  C101  1  0.919000  0.721000  0.834600  1.0
  C  C102  1  0.919000  0.779000  0.665400  1.0
  C  C103  1  0.081000  0.279000  0.165400  1.0
  C  C104  1  0.081000  0.221000  0.334600  1.0
  C  C105  1  0.876000  0.651000  0.758300  1.0
  C  C106  1  0.876000  0.849000  0.741700  1.0
  C  C107  1  0.124000  0.349000  0.241700  1.0
  C  C108  1  0.124000  0.151000  0.258300  1.0
  C  C109  1  0.791000  0.674000  0.760000  1.0
  C  C110  1  0.791000  0.826000  0.740000  1.0
  C  C111  1  0.209000  0.326000  0.240000  1.0
  C  C112  1  0.209000  0.174000  0.260000  1.0
  C  C113  1  0.750000  0.675000  0.723000  1.0
  C  C114  1  0.750000  0.825000  0.777000  1.0
  C  C115  1  0.250000  0.325000  0.277000  1.0
  C  C116  1  0.250000  0.175000  0.223000  1.0
  C  C117  1  0.802000  0.648000  0.685900  1.0
  C  C118  1  0.802000  0.852000  0.814100  1.0
  C  C119  1  0.198000  0.352000  0.314100  1.0
  C  C120  1  0.198000  0.148000  0.185900  1.0
  C  C121  1  0.880000  0.625000  0.686400  1.0
  C  C122  1  0.880000  0.875000  0.813600  1.0
  C  C123  1  0.120000  0.375000  0.313600  1.0
  C  C124  1  0.120000  0.125000  0.186400  1.0
  C  C125  1  0.928000  0.631000  0.722600  1.0
  C  C126  1  0.928000  0.869000  0.777400  1.0
  C  C127  1  0.072000  0.369000  0.277400  1.0
  C  C128  1  0.072000  0.131000  0.222600  1.0
  C  C129  1  0.042000  0.643000  0.795000  1.0
  C  C130  1  0.042000  0.857000  0.705000  1.0
  C  C131  1  0.958000  0.357000  0.205000  1.0
  C  C132  1  0.958000  0.143000  0.295000  1.0
  C  C133  1  0.079000  0.589000  0.794000  1.0
  C  C134  1  0.079000  0.911000  0.706000  1.0
  C  C135  1  0.921000  0.411000  0.206000  1.0
  C  C136  1  0.921000  0.089000  0.294000  1.0
  C  C137  1  0.170000  0.577000  0.775000  1.0
  C  C138  1  0.170000  0.923000  0.725000  1.0
  C  C139  1  0.830000  0.423000  0.225000  1.0
  C  C140  1  0.830000  0.077000  0.275000  1.0
  C  C141  1  0.208000  0.632000  0.773000  1.0
  C  C142  1  0.208000  0.868000  0.727000  1.0
  C  C143  1  0.792000  0.368000  0.227000  1.0
  C  C144  1  0.792000  0.132000  0.273000  1.0
  C  C145  1  0.181000  0.681000  0.777000  1.0
  C  C146  1  0.181000  0.819000  0.723000  1.0
  C  C147  1  0.819000  0.319000  0.223000  1.0
  C  C148  1  0.819000  0.181000  0.277000  1.0
  C  C149  1  0.087000  0.692000  0.787200  1.0
  C  C150  1  0.087000  0.808000  0.712800  1.0
  C  C151  1  0.913000  0.308000  0.212800  1.0
  C  C152  1  0.913000  0.192000  0.287200  1.0
  C  C153  1  0.762000  0.538000  0.764400  1.0
  C  C154  1  0.762000  0.962000  0.735600  1.0
  C  C155  1  0.238000  0.462000  0.235600  1.0
  C  C156  1  0.238000  0.038000  0.264400  1.0
  C  C157  1  0.724000  0.509000  0.726500  1.0
  C  C158  1  0.724000  0.991000  0.773500  1.0
  C  C159  1  0.276000  0.491000  0.273500  1.0
  C  C160  1  0.276000  0.009000  0.226500  1.0
  C  C161  1  0.778000  0.465000  0.704300  1.0
  C  C162  1  0.778000  0.035000  0.795700  1.0
  C  C163  1  0.222000  0.535000  0.295700  1.0
  C  C164  1  0.222000  0.965000  0.204300  1.0
  C  C165  1  0.863000  0.456000  0.716300  1.0
  C  C166  1  0.863000  0.044000  0.783700  1.0
  C  C167  1  0.137000  0.544000  0.283700  1.0
  C  C168  1  0.137000  0.956000  0.216300  1.0
  C  C169  1  0.886000  0.489000  0.753700  1.0
  C  C170  1  0.886000  0.011000  0.746300  1.0
  C  C171  1  0.114000  0.511000  0.246300  1.0
  C  C172  1  0.114000  0.989000  0.253700  1.0
  C  C173  1  0.748000  0.430000  0.665900  1.0
  C  C174  1  0.748000  0.070000  0.834100  1.0
  C  C175  1  0.252000  0.570000  0.334100  1.0
  C  C176  1  0.252000  0.930000  0.165900  1.0
  C  C177  1  0.665000  0.413000  0.663400  1.0
  C  C178  1  0.665000  0.087000  0.836600  1.0
  C  C179  1  0.335000  0.587000  0.336600  1.0
  C  C180  1  0.335000  0.913000  0.163400  1.0
  C  C181  1  0.643000  0.385000  0.620600  1.0
  C  C182  1  0.643000  0.115000  0.879400  1.0
  C  C183  1  0.357000  0.615000  0.379400  1.0
  C  C184  1  0.357000  0.885000  0.120600  1.0
  C  C185  1  0.777000  0.387000  0.595300  1.0
  C  C186  1  0.777000  0.113000  0.904700  1.0
  C  C187  1  0.223000  0.613000  0.404700  1.0
  C  C188  1  0.223000  0.887000  0.095300  1.0
  C  C189  1  0.807000  0.417000  0.632300  1.0
  C  C190  1  0.807000  0.083000  0.867700  1.0
  C  C191  1  0.193000  0.583000  0.367700  1.0
  C  C192  1  0.193000  0.917000  0.132300  1.0
  C  C193  1  0.635000  0.223000  0.586700  1.0
  C  C194  1  0.635000  0.277000  0.913300  1.0
  C  C195  1  0.365000  0.777000  0.413300  1.0
  C  C196  1  0.365000  0.723000  0.086700  1.0
  C  C197  1  0.659000  0.174000  0.607900  1.0
  C  C198  1  0.659000  0.326000  0.892100  1.0
  C  C199  1  0.341000  0.826000  0.392100  1.0
  C  C200  1  0.341000  0.674000  0.107900  1.0
  C  C201  1  0.741000  0.350000  0.901900  1.0
  C  C202  1  0.741000  0.150000  0.598100  1.0
  C  C203  1  0.259000  0.650000  0.098100  1.0
  C  C204  1  0.259000  0.850000  0.401900  1.0
  C  C205  1  0.797000  0.321000  0.925100  1.0
  C  C206  1  0.797000  0.179000  0.574900  1.0
  C  C207  1  0.203000  0.679000  0.074900  1.0
  C  C208  1  0.203000  0.821000  0.425100  1.0
  C  C209  1  0.771000  0.228000  0.557900  1.0
  C  C210  1  0.771000  0.272000  0.942100  1.0
  C  C211  1  0.229000  0.772000  0.442100  1.0
  C  C212  1  0.229000  0.728000  0.057900  1.0
  C  C213  1  0.501000  0.398000  0.491600  1.0
  C  C214  1  0.501000  0.102000  0.008400  1.0
  C  C215  1  0.499000  0.602000  0.508400  1.0
  C  C216  1  0.499000  0.898000  0.991600  1.0
  C  C217  1  0.502000  0.343000  0.454200  1.0
  C  C218  1  0.502000  0.157000  0.045800  1.0
  C  C219  1  0.498000  0.657000  0.545800  1.0
  C  C220  1  0.498000  0.843000  0.954200  1.0
  C  C221  1  0.493000  0.281000  0.466800  1.0
  C  C222  1  0.493000  0.219000  0.033200  1.0
  C  C223  1  0.507000  0.719000  0.533200  1.0
  C  C224  1  0.507000  0.781000  0.966800  1.0
  C  C225  1  0.585000  0.464000  0.558500  1.0
  C  C226  1  0.585000  0.036000  0.941500  1.0
  C  C227  1  0.415000  0.536000  0.441500  1.0
  C  C228  1  0.415000  0.964000  0.058500  1.0
  C  C229  1  0.510000  0.460000  0.581100  1.0
  C  C230  1  0.510000  0.040000  0.918900  1.0
  C  C231  1  0.490000  0.540000  0.418900  1.0
  C  C232  1  0.490000  0.960000  0.081100  1.0
  C  C233  1  0.488000  0.507000  0.613000  1.0
  C  C234  1  0.488000  0.993000  0.887000  1.0
  C  C235  1  0.512000  0.493000  0.387000  1.0
  C  C236  1  0.512000  0.007000  0.113000  1.0
  C  C237  1  0.545000  0.545000  0.623700  1.0
  C  C238  1  0.545000  0.955000  0.876300  1.0
  C  C239  1  0.455000  0.455000  0.376300  1.0
  C  C240  1  0.455000  0.045000  0.123700  1.0
  C  C241  1  0.631000  0.552000  0.602600  1.0
  C  C242  1  0.631000  0.948000  0.897400  1.0
  C  C243  1  0.369000  0.448000  0.397400  1.0
  C  C244  1  0.369000  0.052000  0.102600  1.0
  C  C245  1  0.648000  0.508000  0.566200  1.0
  C  C246  1  0.648000  0.992000  0.933800  1.0
  C  C247  1  0.352000  0.492000  0.433800  1.0
  C  C248  1  0.352000  0.008000  0.066200  1.0
  C  C249  1  0.688000  0.430000  0.488200  1.0
  C  C250  1  0.688000  0.070000  0.011800  1.0
  C  C251  1  0.312000  0.570000  0.511800  1.0
  C  C252  1  0.312000  0.930000  0.988200  1.0
  C  C253  1  0.658000  0.475000  0.465000  1.0
  C  C254  1  0.658000  0.025000  0.035000  1.0
  C  C255  1  0.342000  0.525000  0.535000  1.0
  C  C256  1  0.342000  0.975000  0.965000  1.0
  C  C257  1  0.721000  0.500000  0.443000  1.0
  C  C258  1  0.721000  0.000000  0.057000  1.0
  C  C259  1  0.279000  0.500000  0.557000  1.0
  C  C260  1  0.279000  0.000000  0.943000  1.0
  C  C261  1  0.810000  0.481000  0.442000  1.0
  C  C262  1  0.810000  0.019000  0.058000  1.0
  C  C263  1  0.190000  0.519000  0.558000  1.0
  C  C264  1  0.190000  0.981000  0.942000  1.0
  C  C265  1  0.839000  0.432000  0.465000  1.0
  C  C266  1  0.839000  0.068000  0.035000  1.0
  C  C267  1  0.161000  0.568000  0.535000  1.0
  C  C268  1  0.161000  0.932000  0.965000  1.0
  C  C269  1  0.771000  0.410000  0.487000  1.0
  C  C270  1  0.771000  0.090000  0.013000  1.0
  C  C271  1  0.229000  0.590000  0.513000  1.0
  C  C272  1  0.229000  0.910000  0.987000  1.0
  C  C273  1  0.664000  0.240000  0.444800  1.0
  C  C274  1  0.664000  0.260000  0.055200  1.0
  C  C275  1  0.336000  0.760000  0.555200  1.0
  C  C276  1  0.336000  0.740000  0.944800  1.0
  C  C277  1  0.630000  0.205000  0.407200  1.0
  C  C278  1  0.630000  0.295000  0.092800  1.0
  C  C279  1  0.370000  0.795000  0.592800  1.0
  C  C280  1  0.370000  0.705000  0.907200  1.0
  C  C281  1  0.690000  0.190000  0.378000  1.0
  C  C282  1  0.690000  0.310000  0.122000  1.0
  C  C283  1  0.310000  0.810000  0.622000  1.0
  C  C284  1  0.310000  0.690000  0.878000  1.0
  C  C285  1  0.779000  0.206000  0.384200  1.0
  C  C286  1  0.779000  0.294000  0.115800  1.0
  C  C287  1  0.221000  0.794000  0.615800  1.0
  C  C288  1  0.221000  0.706000  0.884200  1.0
  C  C289  1  0.817000  0.244000  0.418700  1.0
  C  C290  1  0.817000  0.256000  0.081300  1.0
  C  C291  1  0.183000  0.756000  0.581300  1.0
  C  C292  1  0.183000  0.744000  0.918700  1.0
  C  C293  1  0.752000  0.254000  0.450300  1.0
  C  C294  1  0.752000  0.246000  0.049700  1.0
  C  C295  1  0.248000  0.746000  0.549700  1.0
  C  C296  1  0.248000  0.754000  0.950300  1.0
  C  C297  1  0.567000  0.183000  0.499600  1.0
  C  C298  1  0.567000  0.317000  0.000400  1.0
  C  C299  1  0.433000  0.817000  0.500400  1.0
  C  C300  1  0.433000  0.683000  0.999600  1.0
  C  C301  1  0.484000  0.181000  0.520000  1.0
  C  C302  1  0.484000  0.319000  0.980000  1.0
  C  C303  1  0.516000  0.819000  0.480000  1.0
  C  C304  1  0.516000  0.681000  0.020000  1.0
  C  C305  1  0.467000  0.127000  0.539000  1.0
  C  C306  1  0.467000  0.373000  0.961000  1.0
  C  C307  1  0.533000  0.873000  0.461000  1.0
  C  C308  1  0.533000  0.627000  0.039000  1.0
  C  C309  1  0.532000  0.080000  0.528000  1.0
  C  C310  1  0.532000  0.420000  0.972000  1.0
  C  C311  1  0.468000  0.920000  0.472000  1.0
  C  C312  1  0.468000  0.580000  0.028000  1.0
  C  C313  1  0.608000  0.088000  0.504000  1.0
  C  C314  1  0.608000  0.412000  0.996000  1.0
  C  C315  1  0.392000  0.912000  0.496000  1.0
  C  C316  1  0.392000  0.588000  0.004000  1.0
  C  C317  1  0.625000  0.137000  0.491100  1.0
  C  C318  1  0.625000  0.363000  0.008900  1.0
  C  C319  1  0.375000  0.863000  0.508900  1.0
  C  C320  1  0.375000  0.637000  0.991100  1.0
  S  S321  1  0.635000  0.674400  0.859300  1
  S  S322  1  0.635000  0.825600  0.640700  1
  S  S323  1  0.365000  0.325600  0.140700  1
  S  S324  1  0.365000  0.174400  0.359300  1
  S  S325  1  0.108000  0.414000  0.793900  1
  S  S326  1  0.108000  0.086000  0.706100  1
  S  S327  1  0.892000  0.586000  0.206100  1
  S  S328  1  0.892000  0.914000  0.293900  1
  S  S329  1  0.396000  0.180100  0.904800  1
  S  S330  1  0.396000  0.319900  0.595200  1
  S  S331  1  0.604000  0.819900  0.095200  1
  S  S332  1  0.604000  0.680100  0.404800  1
  S  S333  1  0.969900  0.203400  0.987000  1
  S  S334  1  0.969900  0.296600  0.513000  1
  S  S335  1  0.030100  0.796600  0.013000  1
  S  S336  1  0.030100  0.703400  0.487000  1
  N  N337  1  0.832000  0.498700  0.852300  1.0
  N  N338  1  0.832000  0.001300  0.647700  1.0
  N  N339  1  0.168000  0.501300  0.147700  1.0
  N  N340  1  0.168000  0.998700  0.352300  1.0
  N  N341  1  0.696000  0.370100  0.591300  1.0
  N  N342  1  0.696000  0.129900  0.908700  1.0
  N  N343  1  0.304000  0.629900  0.408700  1.0
  N  N344  1  0.304000  0.870100  0.091300  1.0
  N  N345  1  0.839000  0.527600  0.778000  1.0
  N  N346  1  0.839000  0.972400  0.722000  1.0
  N  N347  1  0.161000  0.472400  0.222000  1.0
  N  N348  1  0.161000  0.027600  0.278000  1.0
  N  N349  1  0.686000  0.249600  0.564800  1.0
  N  N350  1  0.686000  0.250400  0.935200  1.0
  N  N351  1  0.314000  0.750400  0.435200  1.0
  N  N352  1  0.314000  0.749600  0.064800  1.0
  O  O353  1  0.594000  0.675000  0.894800  1
  O  O354  1  0.594000  0.825000  0.605200  1
  O  O355  1  0.406000  0.325000  0.105200  1
  O  O356  1  0.406000  0.175000  0.394800  1
  O  O357  1  0.050000  0.451000  0.800000  1
  O  O358  1  0.050000  0.049000  0.700000  1
  O  O359  1  0.950000  0.549000  0.200000  1
  O  O360  1  0.950000  0.951000  0.300000  1
  O  O361  1  0.884000  0.185000  0.982100  1
  O  O362  1  0.884000  0.315000  0.517900  1
  O  O363  1  0.116000  0.815000  0.017900  1
  O  O364  1  0.116000  0.685000  0.482100  1
  O  O365  1  0.636000  0.627000  0.839000  1
  O  O366  1  0.636000  0.873000  0.661000  1
  O  O367  1  0.364000  0.373000  0.161000  1
  O  O368  1  0.364000  0.127000  0.339000  1
  O  O369  1  0.709000  0.703000  0.861000  1
  O  O370  1  0.709000  0.797000  0.639000  1
  O  O371  1  0.291000  0.297000  0.139000  1
  O  O372  1  0.291000  0.203000  0.361000  1
  O  O373  1  0.401000  0.171000  0.940000  1
  O  O374  1  0.401000  0.329000  0.560000  1
  O  O375  1  0.599000  0.829000  0.060000  1
  O  O376  1  0.599000  0.671000  0.440000  1
