# generated using pymatgen
data_Ag6B5H153C189N39O13F20
_symmetry_space_group_name_H-M   'P 1'
_cell_length_a   21.26750000
_cell_length_b   21.26750000
_cell_length_c   25.91420000
_cell_angle_alpha   90.00000000
_cell_angle_beta   90.00000000
_cell_angle_gamma   120.00000000
_symmetry_Int_Tables_number   1
_chemical_formula_structural   Ag6B5H153C189N39O13F20
_chemical_formula_sum   'Ag12 B10 H306 C378 N78 O26 F40'
_cell_volume   10150.82453882
_cell_formula_units_Z   2
loop_
 _symmetry_equiv_pos_site_id
 _symmetry_equiv_pos_as_xyz
  1  'x, y, z'
loop_
 _atom_site_type_symbol
 _atom_site_label
 _atom_site_symmetry_multiplicity
 _atom_site_fract_x
 _atom_site_fract_y
 _atom_site_fract_z
 _atom_site_occupancy
  Ag  Ag1  1  0.690980  0.722710  0.797730  1
  Ag  Ag2  1  0.722710  0.031730  0.297730  1
  Ag  Ag3  1  0.031730  0.309020  0.797730  1
  Ag  Ag4  1  0.309020  0.277290  0.297730  1
  Ag  Ag5  1  0.277290  0.968270  0.797730  1
  Ag  Ag6  1  0.968270  0.690980  0.297730  1
  Ag  Ag7  1  0.681110  0.945080  0.200310  1
  Ag  Ag8  1  0.945080  0.263970  0.700310  1
  Ag  Ag9  1  0.263970  0.318890  0.200310  1
  Ag  Ag10  1  0.318890  0.054920  0.700310  1
  Ag  Ag11  1  0.054920  0.736030  0.200310  1
  Ag  Ag12  1  0.736030  0.681110  0.700310  1
  B  B13  1  0.333333  0.666667  0.336200  1
  B  B14  1  0.666667  0.333333  0.836200  1
  B  B15  1  0.000000  0.000000  0.494300  1
  B  B16  1  0.000000  0.000000  0.994300  1
  B  B17  1  0.560800  0.996500  0.748000  1
  B  B18  1  0.996500  0.435700  0.248000  1
  B  B19  1  0.435700  0.439200  0.748000  1
  B  B20  1  0.439200  0.003500  0.248000  1
  B  B21  1  0.003500  0.564300  0.748000  1
  B  B22  1  0.564300  0.560800  0.248000  1
  H  H23  1  0.745100  0.578600  0.934500  1
  H  H24  1  0.578600  0.833500  0.434500  1
  H  H25  1  0.833500  0.254900  0.934500  1
  H  H26  1  0.254900  0.421400  0.434500  1
  H  H27  1  0.421400  0.166500  0.934500  1
  H  H28  1  0.166500  0.745100  0.434500  1
  H  H29  1  0.669500  0.462600  0.902800  1
  H  H30  1  0.462600  0.793100  0.402800  1
  H  H31  1  0.793100  0.330500  0.902800  1
  H  H32  1  0.330500  0.537400  0.402800  1
  H  H33  1  0.537400  0.206900  0.902800  1
  H  H34  1  0.206900  0.669500  0.402800  1
  H  H35  1  0.604800  0.446600  0.827100  1
  H  H36  1  0.446600  0.841800  0.327100  1
  H  H37  1  0.841800  0.395200  0.827100  1
  H  H38  1  0.395200  0.553400  0.327100  1
  H  H39  1  0.553400  0.158200  0.827100  1
  H  H40  1  0.158200  0.604800  0.327100  1
  H  H41  1  0.615900  0.546600  0.783100  1
  H  H42  1  0.546600  0.930700  0.283100  1
  H  H43  1  0.930700  0.384100  0.783100  1
  H  H44  1  0.384100  0.453400  0.283100  1
  H  H45  1  0.453400  0.069300  0.783100  1
  H  H46  1  0.069300  0.615900  0.283100  1
  H  H47  1  0.841900  0.704800  0.952500  1
  H  H48  1  0.704800  0.862900  0.452500  1
  H  H49  1  0.862900  0.158100  0.952500  1
  H  H50  1  0.158100  0.295200  0.452500  1
  H  H51  1  0.295200  0.137100  0.952500  1
  H  H52  1  0.137100  0.841900  0.452500  1
  H  H53  1  0.900300  0.840800  0.951100  1
  H  H54  1  0.840800  0.940500  0.451100  1
  H  H55  1  0.940500  0.099700  0.951100  1
  H  H56  1  0.099700  0.159200  0.451100  1
  H  H57  1  0.159200  0.059500  0.951100  1
  H  H58  1  0.059500  0.900300  0.451100  1
  H  H59  1  0.820700  0.892100  0.841800  1
  H  H60  1  0.892100  0.071400  0.341800  1
  H  H61  1  0.071400  0.179300  0.841800  1
  H  H62  1  0.179300  0.107900  0.341800  1
  H  H63  1  0.107900  0.928600  0.841800  1
  H  H64  1  0.928600  0.820700  0.341800  1
  H  H65  1  0.875800  0.933200  0.886600  1
  H  H66  1  0.933200  0.057400  0.386600  1
  H  H67  1  0.057400  0.124200  0.886600  1
  H  H68  1  0.124200  0.066800  0.386600  1
  H  H69  1  0.066800  0.942600  0.886600  1
  H  H70  1  0.942600  0.875800  0.386600  1
  H  H71  1  0.620900  0.719700  0.315300  1
  H  H72  1  0.719700  0.098800  0.815300  1
  H  H73  1  0.098800  0.379100  0.315300  1
  H  H74  1  0.379100  0.280300  0.815300  1
  H  H75  1  0.280300  0.901200  0.315300  1
  H  H76  1  0.901200  0.620900  0.815300  1
  H  H77  1  0.732900  0.757600  0.353500  1
  H  H78  1  0.757600  0.024700  0.853500  1
  H  H79  1  0.024700  0.267100  0.353500  1
  H  H80  1  0.267100  0.242400  0.853500  1
  H  H81  1  0.242400  0.975300  0.353500  1
  H  H82  1  0.975300  0.732900  0.853500  1
  H  H83  1  0.831900  0.869100  0.331500  1
  H  H84  1  0.869100  0.037200  0.831500  1
  H  H85  1  0.037200  0.168100  0.331500  1
  H  H86  1  0.168100  0.130900  0.831500  1
  H  H87  1  0.130900  0.962800  0.331500  1
  H  H88  1  0.962800  0.831900  0.831500  1
  H  H89  1  0.818900  0.942500  0.271300  1
  H  H90  1  0.942500  0.123600  0.771300  1
  H  H91  1  0.123600  0.181100  0.271300  1
  H  H92  1  0.181100  0.057500  0.771300  1
  H  H93  1  0.057500  0.876400  0.271300  1
  H  H94  1  0.876400  0.818900  0.771300  1
  H  H95  1  0.517700  0.678800  0.265200  1
  H  H96  1  0.678800  0.161100  0.765200  1
  H  H97  1  0.161100  0.482300  0.265200  1
  H  H98  1  0.482300  0.321200  0.765200  1
  H  H99  1  0.321200  0.838900  0.265200  1
  H  H100  1  0.838900  0.517700  0.765200  1
  H  H101  1  0.424300  0.692400  0.214600  1
  H  H102  1  0.692400  0.268100  0.714600  1
  H  H103  1  0.268100  0.575700  0.214600  1
  H  H104  1  0.575700  0.307600  0.714600  1
  H  H105  1  0.307600  0.731900  0.214600  1
  H  H106  1  0.731900  0.424300  0.714600  1
  H  H107  1  0.433200  0.822000  0.167400  1
  H  H108  1  0.822000  0.388800  0.667400  1
  H  H109  1  0.388800  0.566800  0.167400  1
  H  H110  1  0.566800  0.178000  0.667400  1
  H  H111  1  0.178000  0.611200  0.167400  1
  H  H112  1  0.611200  0.433200  0.667400  1
  H  H113  1  0.497500  0.890500  0.193600  1
  H  H114  1  0.890500  0.393000  0.693600  1
  H  H115  1  0.393000  0.502500  0.193600  1
  H  H116  1  0.502500  0.109500  0.693600  1
  H  H117  1  0.109500  0.607000  0.193600  1
  H  H118  1  0.607000  0.497500  0.693600  1
  H  H119  1  0.696200  0.857100  0.849400  1
  H  H120  1  0.857100  0.160900  0.349400  1
  H  H121  1  0.160900  0.303800  0.849400  1
  H  H122  1  0.303800  0.142900  0.349400  1
  H  H123  1  0.142900  0.839100  0.849400  1
  H  H124  1  0.839100  0.696200  0.349400  1
  H  H125  1  0.608600  0.876700  0.887200  1
  H  H126  1  0.876700  0.268100  0.387200  1
  H  H127  1  0.268100  0.391400  0.887200  1
  H  H128  1  0.391400  0.123300  0.387200  1
  H  H129  1  0.123300  0.731900  0.887200  1
  H  H130  1  0.731900  0.608600  0.387200  1
  H  H131  1  0.741700  0.974700  0.007400  1
  H  H132  1  0.974700  0.233000  0.507400  1
  H  H133  1  0.233000  0.258300  0.007400  1
  H  H134  1  0.258300  0.025300  0.507400  1
  H  H135  1  0.025300  0.767000  0.007400  1
  H  H136  1  0.767000  0.741700  0.507400  1
  H  H137  1  0.829300  0.955100  0.969600  1
  H  H138  1  0.955100  0.125800  0.469600  1
  H  H139  1  0.125800  0.170700  0.969600  1
  H  H140  1  0.170700  0.044900  0.469600  1
  H  H141  1  0.044900  0.874200  0.969600  1
  H  H142  1  0.874200  0.829300  0.469600  1
  H  H143  1  0.492000  0.946900  0.115400  1
  H  H144  1  0.946900  0.454900  0.615400  1
  H  H145  1  0.454900  0.508000  0.115400  1
  H  H146  1  0.508000  0.053100  0.615400  1
  H  H147  1  0.053100  0.545100  0.115400  1
  H  H148  1  0.545100  0.492000  0.615400  1
  H  H149  1  0.546500  0.988700  0.035600  1
  H  H150  1  0.988700  0.442200  0.535600  1
  H  H151  1  0.442200  0.453500  0.035600  1
  H  H152  1  0.453500  0.011300  0.535600  1
  H  H153  1  0.011300  0.557800  0.035600  1
  H  H154  1  0.557800  0.546500  0.535600  1
  H  H155  1  0.615600  0.844100  0.037400  1
  H  H156  1  0.844100  0.228500  0.537400  1
  H  H157  1  0.228500  0.384400  0.037400  1
  H  H158  1  0.384400  0.155900  0.537400  1
  H  H159  1  0.155900  0.771500  0.037400  1
  H  H160  1  0.771500  0.615600  0.537400  1
  H  H161  1  0.561100  0.802200  0.117100  1
  H  H162  1  0.802200  0.241100  0.617100  1
  H  H163  1  0.241100  0.438900  0.117100  1
  H  H164  1  0.438900  0.197800  0.617100  1
  H  H165  1  0.197800  0.758900  0.117100  1
  H  H166  1  0.758900  0.561100  0.617100  1
  H  H167  1  0.618500  0.903500  0.727900  1
  H  H168  1  0.903500  0.285000  0.227900  1
  H  H169  1  0.285000  0.381500  0.727900  1
  H  H170  1  0.381500  0.096500  0.227900  1
  H  H171  1  0.096500  0.715000  0.727900  1
  H  H172  1  0.715000  0.618500  0.227900  1
  H  H173  1  0.732000  0.992500  0.699600  1
  H  H174  1  0.992500  0.260500  0.199600  1
  H  H175  1  0.260500  0.268000  0.699600  1
  H  H176  1  0.268000  0.007500  0.199600  1
  H  H177  1  0.007500  0.739500  0.699600  1
  H  H178  1  0.739500  0.732000  0.199600  1
  H  H179  1  0.829100  0.971600  0.701300  1
  H  H180  1  0.971600  0.142500  0.201300  1
  H  H181  1  0.142500  0.170900  0.701300  1
  H  H182  1  0.170900  0.028400  0.201300  1
  H  H183  1  0.028400  0.857500  0.701300  1
  H  H184  1  0.857500  0.829100  0.201300  1
  H  H185  1  0.812700  0.861700  0.731400  1
  H  H186  1  0.861700  0.049000  0.231400  1
  H  H187  1  0.049000  0.187300  0.731400  1
  H  H188  1  0.187300  0.138300  0.231400  1
  H  H189  1  0.138300  0.951000  0.731400  1
  H  H190  1  0.951000  0.812700  0.231400  1
  H  H191  1  0.501700  0.805100  0.751800  1
  H  H192  1  0.805100  0.303400  0.251800  1
  H  H193  1  0.303400  0.498300  0.751800  1
  H  H194  1  0.498300  0.194900  0.251800  1
  H  H195  1  0.194900  0.696600  0.751800  1
  H  H196  1  0.696600  0.501700  0.251800  1
  H  H197  1  0.417100  0.687800  0.796500  1
  H  H198  1  0.687800  0.270700  0.296500  1
  H  H199  1  0.270700  0.582900  0.796500  1
  H  H200  1  0.582900  0.312200  0.296500  1
  H  H201  1  0.312200  0.729300  0.796500  1
  H  H202  1  0.729300  0.417100  0.296500  1
  H  H203  1  0.504100  0.578900  0.806500  1
  H  H204  1  0.578900  0.074800  0.306500  1
  H  H205  1  0.074800  0.495900  0.806500  1
  H  H206  1  0.495900  0.421100  0.306500  1
  H  H207  1  0.421100  0.925200  0.806500  1
  H  H208  1  0.925200  0.504100  0.306500  1
  H  H209  1  0.434700  0.576800  0.829500  1
  H  H210  1  0.576800  0.142100  0.329500  1
  H  H211  1  0.142100  0.565300  0.829500  1
  H  H212  1  0.565300  0.423200  0.329500  1
  H  H213  1  0.423200  0.857900  0.829500  1
  H  H214  1  0.857900  0.434700  0.329500  1
  H  H215  1  0.752500  0.152700  0.069500  1
  H  H216  1  0.152700  0.400200  0.569500  1
  H  H217  1  0.400200  0.247500  0.069500  1
  H  H218  1  0.247500  0.847300  0.569500  1
  H  H219  1  0.847300  0.599800  0.069500  1
  H  H220  1  0.599800  0.752500  0.569500  1
  H  H221  1  0.668300  0.186100  0.093700  1
  H  H222  1  0.186100  0.517800  0.593700  1
  H  H223  1  0.517800  0.331700  0.093700  1
  H  H224  1  0.331700  0.813900  0.593700  1
  H  H225  1  0.813900  0.482200  0.093700  1
  H  H226  1  0.482200  0.668300  0.593700  1
  H  H227  1  0.592800  0.130600  0.163900  1
  H  H228  1  0.130600  0.537800  0.663900  1
  H  H229  1  0.537800  0.407200  0.163900  1
  H  H230  1  0.407200  0.869400  0.663900  1
  H  H231  1  0.869400  0.462200  0.163900  1
  H  H232  1  0.462200  0.592800  0.663900  1
  H  H233  1  0.601400  0.041500  0.209800  1
  H  H234  1  0.041500  0.440100  0.709800  1
  H  H235  1  0.440100  0.398600  0.209800  1
  H  H236  1  0.398600  0.958500  0.709800  1
  H  H237  1  0.958500  0.559900  0.209800  1
  H  H238  1  0.559900  0.601400  0.709800  1
  H  H239  1  0.858100  0.128300  0.061700  1
  H  H240  1  0.128300  0.270200  0.561700  1
  H  H241  1  0.270200  0.141900  0.061700  1
  H  H242  1  0.141900  0.871700  0.561700  1
  H  H243  1  0.871700  0.729800  0.061700  1
  H  H244  1  0.729800  0.858100  0.561700  1
  H  H245  1  0.908800  0.044000  0.064900  1
  H  H246  1  0.044000  0.135200  0.564900  1
  H  H247  1  0.135200  0.091200  0.064900  1
  H  H248  1  0.091200  0.956000  0.564900  1
  H  H249  1  0.956000  0.864800  0.064900  1
  H  H250  1  0.864800  0.908800  0.564900  1
  H  H251  1  0.825500  0.912500  0.162800  1
  H  H252  1  0.912500  0.087000  0.662800  1
  H  H253  1  0.087000  0.174500  0.162800  1
  H  H254  1  0.174500  0.087500  0.662800  1
  H  H255  1  0.087500  0.913000  0.162800  1
  H  H256  1  0.913000  0.825500  0.662800  1
  H  H257  1  0.873700  0.925900  0.113700  1
  H  H258  1  0.925900  0.052200  0.613700  1
  H  H259  1  0.052200  0.126300  0.113700  1
  H  H260  1  0.126300  0.074100  0.613700  1
  H  H261  1  0.074100  0.947800  0.113700  1
  H  H262  1  0.947800  0.873700  0.613700  1
  H  H263  1  0.500200  0.517600  0.894000  1
  H  H264  1  0.517600  0.017400  0.394000  1
  H  H265  1  0.017400  0.499800  0.894000  1
  H  H266  1  0.499800  0.482400  0.394000  1
  H  H267  1  0.482400  0.982600  0.894000  1
  H  H268  1  0.982600  0.500200  0.394000  1
  H  H269  1  0.549300  0.533800  0.976200  1
  H  H270  1  0.533800  0.984500  0.476200  1
  H  H271  1  0.984500  0.450700  0.976200  1
  H  H272  1  0.450700  0.466200  0.476200  1
  H  H273  1  0.466200  0.015500  0.976200  1
  H  H274  1  0.015500  0.549300  0.476200  1
  H  H275  1  0.604300  0.744100  0.972100  1
  H  H276  1  0.744100  0.139800  0.472100  1
  H  H277  1  0.139800  0.395700  0.972100  1
  H  H278  1  0.395700  0.255900  0.472100  1
  H  H279  1  0.255900  0.860200  0.972100  1
  H  H280  1  0.860200  0.604300  0.472100  1
  H  H281  1  0.555200  0.727800  0.889900  1
  H  H282  1  0.727800  0.172600  0.389900  1
  H  H283  1  0.172600  0.444800  0.889900  1
  H  H284  1  0.444800  0.272200  0.389900  1
  H  H285  1  0.272200  0.827400  0.889900  1
  H  H286  1  0.827400  0.555200  0.389900  1
  H  H287  1  0.698700  0.814500  0.162700  1
  H  H288  1  0.814500  0.115800  0.662700  1
  H  H289  1  0.115800  0.301300  0.162700  1
  H  H290  1  0.301300  0.185500  0.662700  1
  H  H291  1  0.185500  0.884200  0.162700  1
  H  H292  1  0.884200  0.698700  0.662700  1
  H  H293  1  0.609200  0.707500  0.125800  1
  H  H294  1  0.707500  0.098300  0.625800  1
  H  H295  1  0.098300  0.390800  0.125800  1
  H  H296  1  0.390800  0.292500  0.625800  1
  H  H297  1  0.292500  0.901700  0.125800  1
  H  H298  1  0.901700  0.609200  0.625800  1
  H  H299  1  0.726900  0.753900  0.995700  1
  H  H300  1  0.753900  0.027000  0.495700  1
  H  H301  1  0.027000  0.273100  0.995700  1
  H  H302  1  0.273100  0.246100  0.495700  1
  H  H303  1  0.246100  0.973000  0.995700  1
  H  H304  1  0.973000  0.726900  0.495700  1
  H  H305  1  0.816400  0.860900  0.032500  1
  H  H306  1  0.860900  0.044500  0.532500  1
  H  H307  1  0.044500  0.183600  0.032500  1
  H  H308  1  0.183600  0.139100  0.532500  1
  H  H309  1  0.139100  0.955500  0.032500  1
  H  H310  1  0.955500  0.816400  0.532500  1
  H  H311  1  0.629600  0.143000  0.888200  1
  H  H312  1  0.143000  0.513400  0.388200  1
  H  H313  1  0.513400  0.370400  0.888200  1
  H  H314  1  0.370400  0.857000  0.388200  1
  H  H315  1  0.857000  0.486600  0.888200  1
  H  H316  1  0.486600  0.629600  0.388200  1
  H  H317  1  0.629400  0.070000  0.897300  1
  H  H318  1  0.070000  0.440600  0.397300  1
  H  H319  1  0.440600  0.370600  0.897300  1
  H  H320  1  0.370600  0.930000  0.397300  1
  H  H321  1  0.930000  0.559400  0.897300  1
  H  H322  1  0.559400  0.629400  0.397300  1
  H  H323  1  0.697600  0.136800  0.873000  1
  H  H324  1  0.136800  0.439200  0.373000  1
  H  H325  1  0.439200  0.302400  0.873000  1
  H  H326  1  0.302400  0.863200  0.373000  1
  H  H327  1  0.863200  0.560800  0.873000  1
  H  H328  1  0.560800  0.697600  0.373000  1
  C  C329  1  0.725900  0.632200  0.877800  1
  C  C330  1  0.632200  0.906300  0.377800  1
  C  C331  1  0.906300  0.274100  0.877800  1
  C  C332  1  0.274100  0.367800  0.377800  1
  C  C333  1  0.367800  0.093700  0.877800  1
  C  C334  1  0.093700  0.725900  0.377800  1
  C  C335  1  0.719200  0.572200  0.904100  1
  C  C336  1  0.572200  0.853000  0.404100  1
  C  C337  1  0.853000  0.280800  0.904100  1
  C  C338  1  0.280800  0.427800  0.404100  1
  C  C339  1  0.427800  0.147000  0.904100  1
  C  C340  1  0.147000  0.719200  0.404100  1
  C  C341  1  0.673900  0.502700  0.885200  1
  C  C342  1  0.502700  0.828800  0.385200  1
  C  C343  1  0.828800  0.326100  0.885200  1
  C  C344  1  0.326100  0.497300  0.385200  1
  C  C345  1  0.497300  0.171200  0.885200  1
  C  C346  1  0.171200  0.673900  0.385200  1
  C  C347  1  0.635200  0.493100  0.839800  1
  C  C348  1  0.493100  0.857900  0.339800  1
  C  C349  1  0.857900  0.364800  0.839800  1
  C  C350  1  0.364800  0.506900  0.339800  1
  C  C351  1  0.506900  0.142100  0.839800  1
  C  C352  1  0.142100  0.635200  0.339800  1
  C  C353  1  0.641800  0.553100  0.813500  1
  C  C354  1  0.553100  0.911300  0.313500  1
  C  C355  1  0.911300  0.358200  0.813500  1
  C  C356  1  0.358200  0.446900  0.313500  1
  C  C357  1  0.446900  0.088700  0.813500  1
  C  C358  1  0.088700  0.641800  0.313500  1
  C  C359  1  0.770100  0.702800  0.895700  1
  C  C360  1  0.702800  0.932700  0.395700  1
  C  C361  1  0.932700  0.229900  0.895700  1
  C  C362  1  0.229900  0.297200  0.395700  1
  C  C363  1  0.297200  0.067300  0.895700  1
  C  C364  1  0.067300  0.770100  0.395700  1
  C  C365  1  0.828000  0.731600  0.931900  1
  C  C366  1  0.731600  0.903600  0.431900  1
  C  C367  1  0.903600  0.172000  0.931900  1
  C  C368  1  0.172000  0.268400  0.431900  1
  C  C369  1  0.268400  0.096400  0.931900  1
  C  C370  1  0.096400  0.828000  0.431900  1
  C  C371  1  0.861000  0.808400  0.931100  1
  C  C372  1  0.808400  0.947400  0.431100  1
  C  C373  1  0.947400  0.139000  0.931100  1
  C  C374  1  0.139000  0.191600  0.431100  1
  C  C375  1  0.191600  0.052600  0.931100  1
  C  C376  1  0.052600  0.861000  0.431100  1
  C  C377  1  0.827800  0.892900  0.878800  1
  C  C378  1  0.892900  0.065100  0.378800  1
  C  C379  1  0.065100  0.172200  0.878800  1
  C  C380  1  0.172200  0.107100  0.378800  1
  C  C381  1  0.107100  0.934900  0.878800  1
  C  C382  1  0.934900  0.827800  0.378800  1
  C  C383  1  0.652800  0.808400  0.270400  1
  C  C384  1  0.808400  0.155600  0.770400  1
  C  C385  1  0.155600  0.347200  0.270400  1
  C  C386  1  0.347200  0.191600  0.770400  1
  C  C387  1  0.191600  0.844400  0.270400  1
  C  C388  1  0.844400  0.652800  0.770400  1
  C  C389  1  0.660600  0.764400  0.306500  1
  C  C390  1  0.764400  0.103800  0.806500  1
  C  C391  1  0.103800  0.339400  0.306500  1
  C  C392  1  0.339400  0.235600  0.806500  1
  C  C393  1  0.235600  0.896200  0.306500  1
  C  C394  1  0.896200  0.660600  0.806500  1
  C  C395  1  0.727700  0.787100  0.329400  1
  C  C396  1  0.787100  0.059400  0.829400  1
  C  C397  1  0.059400  0.272300  0.329400  1
  C  C398  1  0.272300  0.212900  0.829400  1
  C  C399  1  0.212900  0.940600  0.329400  1
  C  C400  1  0.940600  0.727700  0.829400  1
  C  C401  1  0.787000  0.853800  0.316200  1
  C  C402  1  0.853800  0.066800  0.816200  1
  C  C403  1  0.066800  0.213000  0.316200  1
  C  C404  1  0.213000  0.146200  0.816200  1
  C  C405  1  0.146200  0.933200  0.316200  1
  C  C406  1  0.933200  0.787000  0.816200  1
  C  C407  1  0.779200  0.897800  0.280200  1
  C  C408  1  0.897800  0.118600  0.780200  1
  C  C409  1  0.118600  0.220800  0.280200  1
  C  C410  1  0.220800  0.102200  0.780200  1
  C  C411  1  0.102200  0.881400  0.280200  1
  C  C412  1  0.881400  0.779200  0.780200  1
  C  C413  1  0.590900  0.788300  0.247500  1
  C  C414  1  0.788300  0.197400  0.747500  1
  C  C415  1  0.197400  0.409100  0.247500  1
  C  C416  1  0.409100  0.211700  0.747500  1
  C  C417  1  0.211700  0.802600  0.247500  1
  C  C418  1  0.802600  0.590900  0.747500  1
  C  C419  1  0.525000  0.720700  0.248600  1
  C  C420  1  0.720700  0.195700  0.748600  1
  C  C421  1  0.195700  0.475000  0.248600  1
  C  C422  1  0.475000  0.279300  0.748600  1
  C  C423  1  0.279300  0.804300  0.248600  1
  C  C424  1  0.804300  0.525000  0.748600  1
  C  C425  1  0.472300  0.728500  0.220000  1
  C  C426  1  0.728500  0.256200  0.720000  1
  C  C427  1  0.256200  0.527700  0.220000  1
  C  C428  1  0.527700  0.271500  0.720000  1
  C  C429  1  0.271500  0.743800  0.220000  1
  C  C430  1  0.743800  0.472300  0.720000  1
  C  C431  1  0.485300  0.847900  0.172900  1
  C  C432  1  0.847900  0.362600  0.672900  1
  C  C433  1  0.362600  0.514700  0.172900  1
  C  C434  1  0.514700  0.152100  0.672900  1
  C  C435  1  0.152100  0.637400  0.172900  1
  C  C436  1  0.637400  0.485300  0.672900  1
  C  C437  1  0.771400  0.904100  0.905700  1
  C  C438  1  0.904100  0.132700  0.405700  1
  C  C439  1  0.132700  0.228600  0.905700  1
  C  C440  1  0.228600  0.095900  0.405700  1
  C  C441  1  0.095900  0.867300  0.905700  1
  C  C442  1  0.867300  0.771400  0.405700  1
  C  C443  1  0.705300  0.880600  0.881080  1
  C  C444  1  0.880600  0.175300  0.381080  1
  C  C445  1  0.175300  0.294700  0.881080  1
  C  C446  1  0.294700  0.119400  0.381080  1
  C  C447  1  0.119400  0.824700  0.881080  1
  C  C448  1  0.824700  0.705300  0.381080  1
  C  C449  1  0.652800  0.892400  0.903740  1
  C  C450  1  0.892400  0.239600  0.403740  1
  C  C451  1  0.239600  0.347200  0.903740  1
  C  C452  1  0.347200  0.107600  0.403740  1
  C  C453  1  0.107600  0.760400  0.903740  1
  C  C454  1  0.760400  0.652800  0.403740  1
  C  C455  1  0.666500  0.927700  0.951060  1
  C  C456  1  0.927700  0.261200  0.451060  1
  C  C457  1  0.261200  0.333500  0.951060  1
  C  C458  1  0.333500  0.072300  0.451060  1
  C  C459  1  0.072300  0.738800  0.951060  1
  C  C460  1  0.738800  0.666500  0.451060  1
  C  C461  1  0.732580  0.951180  0.975710  1
  C  C462  1  0.951180  0.218600  0.475710  1
  C  C463  1  0.218600  0.267420  0.975710  1
  C  C464  1  0.267420  0.048820  0.475710  1
  C  C465  1  0.048820  0.781400  0.975710  1
  C  C466  1  0.781400  0.732580  0.475710  1
  C  C467  1  0.785100  0.939400  0.953100  1
  C  C468  1  0.939400  0.154300  0.453100  1
  C  C469  1  0.154300  0.214900  0.953100  1
  C  C470  1  0.214900  0.060600  0.453100  1
  C  C471  1  0.060600  0.845700  0.953100  1
  C  C472  1  0.845700  0.785100  0.453100  1
  C  C473  1  0.521100  0.870300  0.124190  1
  C  C474  1  0.870300  0.349200  0.624190  1
  C  C475  1  0.349200  0.478900  0.124190  1
  C  C476  1  0.478900  0.129700  0.624190  1
  C  C477  1  0.129700  0.650800  0.124190  1
  C  C478  1  0.650800  0.521100  0.624190  1
  C  C479  1  0.516800  0.926300  0.099800  1
  C  C480  1  0.926300  0.409500  0.599800  1
  C  C481  1  0.409500  0.483200  0.099800  1
  C  C482  1  0.483200  0.073700  0.599800  1
  C  C483  1  0.073700  0.590500  0.099800  1
  C  C484  1  0.590500  0.516800  0.599800  1
  C  C485  1  0.549400  0.951300  0.052000  1
  C  C486  1  0.951300  0.401900  0.552000  1
  C  C487  1  0.401900  0.450600  0.052000  1
  C  C488  1  0.450600  0.048700  0.552000  1
  C  C489  1  0.048700  0.598100  0.052000  1
  C  C490  1  0.598100  0.549400  0.552000  1
  C  C491  1  0.586500  0.920620  0.028580  1
  C  C492  1  0.920620  0.334120  0.528580  1
  C  C493  1  0.334120  0.413500  0.028580  1
  C  C494  1  0.413500  0.079380  0.528580  1
  C  C495  1  0.079380  0.665880  0.028580  1
  C  C496  1  0.665880  0.586500  0.528580  1
  C  C497  1  0.590800  0.864700  0.053000  1
  C  C498  1  0.864700  0.273900  0.553000  1
  C  C499  1  0.273900  0.409200  0.053000  1
  C  C500  1  0.409200  0.135300  0.553000  1
  C  C501  1  0.135300  0.726100  0.053000  1
  C  C502  1  0.726100  0.590800  0.553000  1
  C  C503  1  0.558200  0.839600  0.100800  1
  C  C504  1  0.839600  0.281400  0.600800  1
  C  C505  1  0.281400  0.441800  0.100800  1
  C  C506  1  0.441800  0.160400  0.600800  1
  C  C507  1  0.160400  0.718600  0.100800  1
  C  C508  1  0.718600  0.558200  0.600800  1
  C  C509  1  0.609500  0.939700  0.971000  1
  C  C510  1  0.939700  0.330200  0.471000  1
  C  C511  1  0.330200  0.390500  0.971000  1
  C  C512  1  0.390500  0.060300  0.471000  1
  C  C513  1  0.060300  0.669800  0.971000  1
  C  C514  1  0.669800  0.609500  0.471000  1
  C  C515  1  0.647600  0.829200  0.746600  1
  C  C516  1  0.829200  0.181600  0.246600  1
  C  C517  1  0.181600  0.352400  0.746600  1
  C  C518  1  0.352400  0.170800  0.246600  1
  C  C519  1  0.170800  0.818400  0.746600  1
  C  C520  1  0.818400  0.647600  0.246600  1
  C  C521  1  0.657400  0.895100  0.728600  1
  C  C522  1  0.895100  0.237700  0.228600  1
  C  C523  1  0.237700  0.342600  0.728600  1
  C  C524  1  0.342600  0.104900  0.228600  1
  C  C525  1  0.104900  0.762300  0.728600  1
  C  C526  1  0.762300  0.657400  0.228600  1
  C  C527  1  0.725400  0.948400  0.711600  1
  C  C528  1  0.948400  0.223000  0.211600  1
  C  C529  1  0.223000  0.274600  0.711600  1
  C  C530  1  0.274600  0.051600  0.211600  1
  C  C531  1  0.051600  0.777000  0.711600  1
  C  C532  1  0.777000  0.725400  0.211600  1
  C  C533  1  0.783600  0.935900  0.712700  1
  C  C534  1  0.935900  0.152300  0.212700  1
  C  C535  1  0.152300  0.216400  0.712700  1
  C  C536  1  0.216400  0.064100  0.212700  1
  C  C537  1  0.064100  0.847700  0.712700  1
  C  C538  1  0.847700  0.783600  0.212700  1
  C  C539  1  0.773800  0.870100  0.730700  1
  C  C540  1  0.870100  0.096300  0.230700  1
  C  C541  1  0.096300  0.226200  0.730700  1
  C  C542  1  0.226200  0.129900  0.230700  1
  C  C543  1  0.129900  0.903700  0.730700  1
  C  C544  1  0.903700  0.773800  0.230700  1
  C  C545  1  0.583400  0.777900  0.762000  1
  C  C546  1  0.777900  0.194500  0.262000  1
  C  C547  1  0.194500  0.416600  0.762000  1
  C  C548  1  0.416600  0.222100  0.262000  1
  C  C549  1  0.222100  0.805500  0.762000  1
  C  C550  1  0.805500  0.583400  0.262000  1
  C  C551  1  0.513800  0.771600  0.764500  1
  C  C552  1  0.771600  0.257800  0.264500  1
  C  C553  1  0.257800  0.486200  0.764500  1
  C  C554  1  0.486200  0.228400  0.264500  1
  C  C555  1  0.228400  0.742200  0.764500  1
  C  C556  1  0.742200  0.513800  0.264500  1
  C  C557  1  0.466000  0.705300  0.789700  1
  C  C558  1  0.705300  0.239300  0.289700  1
  C  C559  1  0.239300  0.534000  0.789700  1
  C  C560  1  0.534000  0.294700  0.289700  1
  C  C561  1  0.294700  0.760700  0.789700  1
  C  C562  1  0.760700  0.466000  0.289700  1
  C  C563  1  0.487100  0.605800  0.826800  1
  C  C564  1  0.605800  0.118700  0.326800  1
  C  C565  1  0.118700  0.512900  0.826800  1
  C  C566  1  0.512900  0.394200  0.326800  1
  C  C567  1  0.394200  0.881300  0.826800  1
  C  C568  1  0.881300  0.487100  0.326800  1
  C  C569  1  0.727400  0.077000  0.125100  1
  C  C570  1  0.077000  0.349600  0.625100  1
  C  C571  1  0.349600  0.272600  0.125100  1
  C  C572  1  0.272600  0.923000  0.625100  1
  C  C573  1  0.923000  0.650400  0.125100  1
  C  C574  1  0.650400  0.727400  0.625100  1
  C  C575  1  0.722200  0.130400  0.097600  1
  C  C576  1  0.130400  0.408200  0.597600  1
  C  C577  1  0.408200  0.277800  0.097600  1
  C  C578  1  0.277800  0.869600  0.597600  1
  C  C579  1  0.869600  0.591800  0.097600  1
  C  C580  1  0.591800  0.722200  0.597600  1
  C  C581  1  0.671800  0.150500  0.112100  1
  C  C582  1  0.150500  0.478700  0.612100  1
  C  C583  1  0.478700  0.328200  0.112100  1
  C  C584  1  0.328200  0.849500  0.612100  1
  C  C585  1  0.849500  0.521300  0.112100  1
  C  C586  1  0.521300  0.671800  0.612100  1
  C  C587  1  0.626500  0.117100  0.154200  1
  C  C588  1  0.117100  0.490600  0.654200  1
  C  C589  1  0.490600  0.373500  0.154200  1
  C  C590  1  0.373500  0.882900  0.654200  1
  C  C591  1  0.882900  0.509400  0.154200  1
  C  C592  1  0.509400  0.626500  0.654200  1
  C  C593  1  0.631700  0.063800  0.181600  1
  C  C594  1  0.063800  0.432100  0.681600  1
  C  C595  1  0.432100  0.368300  0.181600  1
  C  C596  1  0.368300  0.936200  0.681600  1
  C  C597  1  0.936200  0.567900  0.181600  1
  C  C598  1  0.567900  0.631700  0.681600  1
  C  C599  1  0.774600  0.054300  0.110500  1
  C  C600  1  0.054300  0.279700  0.610500  1
  C  C601  1  0.279700  0.225400  0.110500  1
  C  C602  1  0.225400  0.945700  0.610500  1
  C  C603  1  0.945700  0.720300  0.110500  1
  C  C604  1  0.720300  0.774600  0.610500  1
  C  C605  1  0.838500  0.084800  0.079800  1
  C  C606  1  0.084800  0.246300  0.579800  1
  C  C607  1  0.246300  0.161500  0.079800  1
  C  C608  1  0.161500  0.915200  0.579800  1
  C  C609  1  0.915200  0.753700  0.079800  1
  C  C610  1  0.753700  0.838500  0.579800  1
  C  C611  1  0.867100  0.037100  0.081600  1
  C  C612  1  0.037100  0.170000  0.581600  1
  C  C613  1  0.170000  0.132900  0.081600  1
  C  C614  1  0.132900  0.962900  0.581600  1
  C  C615  1  0.962900  0.830000  0.081600  1
  C  C616  1  0.830000  0.867100  0.581600  1
  C  C617  1  0.827100  0.918100  0.125600  1
  C  C618  1  0.918100  0.091000  0.625600  1
  C  C619  1  0.091000  0.172900  0.125600  1
  C  C620  1  0.172900  0.081900  0.625600  1
  C  C621  1  0.081900  0.909000  0.125600  1
  C  C622  1  0.909000  0.827100  0.625600  1
  C  C623  1  0.522900  0.621200  0.883800  1
  C  C624  1  0.621200  0.098300  0.383800  1
  C  C625  1  0.098300  0.477100  0.883800  1
  C  C626  1  0.477100  0.378800  0.383800  1
  C  C627  1  0.378800  0.901700  0.883800  1
  C  C628  1  0.901700  0.522900  0.383800  1
  C  C629  1  0.521100  0.563000  0.909700  1
  C  C630  1  0.563000  0.041900  0.409700  1
  C  C631  1  0.041900  0.478900  0.909700  1
  C  C632  1  0.478900  0.437000  0.409700  1
  C  C633  1  0.437000  0.958100  0.909700  1
  C  C634  1  0.958100  0.521100  0.409700  1
  C  C635  1  0.550500  0.572700  0.958900  1
  C  C636  1  0.572700  0.022200  0.458900  1
  C  C637  1  0.022200  0.449500  0.958900  1
  C  C638  1  0.449500  0.427300  0.458900  1
  C  C639  1  0.427300  0.977800  0.958900  1
  C  C640  1  0.977800  0.550500  0.458900  1
  C  C641  1  0.581600  0.640500  0.982280  1
  C  C642  1  0.640500  0.058900  0.482280  1
  C  C643  1  0.058900  0.418400  0.982280  1
  C  C644  1  0.418400  0.359500  0.482280  1
  C  C645  1  0.359500  0.941100  0.982280  1
  C  C646  1  0.941100  0.581600  0.482280  1
  C  C647  1  0.583400  0.698700  0.956420  1
  C  C648  1  0.698700  0.115300  0.456420  1
  C  C649  1  0.115300  0.416600  0.956420  1
  C  C650  1  0.416600  0.301300  0.456420  1
  C  C651  1  0.301300  0.884700  0.956420  1
  C  C652  1  0.884700  0.583400  0.456420  1
  C  C653  1  0.554000  0.688900  0.907200  1
  C  C654  1  0.688900  0.134900  0.407200  1
  C  C655  1  0.134900  0.446000  0.907200  1
  C  C656  1  0.446000  0.311100  0.407200  1
  C  C657  1  0.311100  0.865100  0.907200  1
  C  C658  1  0.865100  0.554000  0.407200  1
  C  C659  1  0.766400  0.848300  0.101200  1
  C  C660  1  0.848300  0.081900  0.601200  1
  C  C661  1  0.081900  0.233600  0.101200  1
  C  C662  1  0.233600  0.151700  0.601200  1
  C  C663  1  0.151700  0.918100  0.101200  1
  C  C664  1  0.918100  0.766400  0.601200  1
  C  C665  1  0.704300  0.802300  0.129200  1
  C  C666  1  0.802300  0.098000  0.629200  1
  C  C667  1  0.098000  0.295700  0.129200  1
  C  C668  1  0.295700  0.197700  0.629200  1
  C  C669  1  0.197700  0.902000  0.129200  1
  C  C670  1  0.902000  0.704300  0.629200  1
  C  C671  1  0.650700  0.738200  0.107130  1
  C  C672  1  0.738200  0.087500  0.607130  1
  C  C673  1  0.087500  0.349300  0.107130  1
  C  C674  1  0.349300  0.261800  0.607130  1
  C  C675  1  0.261800  0.912500  0.107130  1
  C  C676  1  0.912500  0.650700  0.607130  1
  C  C677  1  0.659100  0.720000  0.057090  1
  C  C678  1  0.720000  0.060900  0.557090  1
  C  C679  1  0.060900  0.340900  0.057090  1
  C  C680  1  0.340900  0.280000  0.557090  1
  C  C681  1  0.280000  0.939100  0.057090  1
  C  C682  1  0.939100  0.659100  0.557090  1
  C  C683  1  0.721210  0.766010  0.029130  1
  C  C684  1  0.766010  0.044800  0.529130  1
  C  C685  1  0.044800  0.278790  0.029130  1
  C  C686  1  0.278790  0.233990  0.529130  1
  C  C687  1  0.233990  0.955200  0.029130  1
  C  C688  1  0.955200  0.721210  0.529130  1
  C  C689  1  0.774800  0.830100  0.051200  1
  C  C690  1  0.830100  0.055300  0.551200  1
  C  C691  1  0.055300  0.225200  0.051200  1
  C  C692  1  0.225200  0.169900  0.551200  1
  C  C693  1  0.169900  0.944700  0.051200  1
  C  C694  1  0.944700  0.774800  0.551200  1
  C  C695  1  0.599600  0.646800  0.037600  1
  C  C696  1  0.646800  0.047200  0.537600  1
  C  C697  1  0.047200  0.400400  0.037600  1
  C  C698  1  0.400400  0.353200  0.537600  1
  C  C699  1  0.353200  0.952800  0.037600  1
  C  C700  1  0.952800  0.599600  0.537600  1
  C  C701  1  0.659000  0.122200  0.897400  1
  C  C702  1  0.122200  0.463200  0.397400  1
  C  C703  1  0.463200  0.341000  0.897400  1
  C  C704  1  0.341000  0.877800  0.397400  1
  C  C705  1  0.877800  0.536800  0.897400  1
  C  C706  1  0.536800  0.659000  0.397400  1
  N  N707  1  0.687100  0.622500  0.832400  1
  N  N708  1  0.622500  0.935400  0.332400  1
  N  N709  1  0.935400  0.312900  0.832400  1
  N  N710  1  0.312900  0.377500  0.332400  1
  N  N711  1  0.377500  0.064600  0.832400  1
  N  N712  1  0.064600  0.687100  0.332400  1
  N  N713  1  0.823400  0.827100  0.894500  1
  N  N714  1  0.827100  0.003700  0.394500  1
  N  N715  1  0.003700  0.176600  0.894500  1
  N  N716  1  0.176600  0.172900  0.394500  1
  N  N717  1  0.172900  0.996300  0.894500  1
  N  N718  1  0.996300  0.823400  0.394500  1
  N  N719  1  0.767200  0.761800  0.872600  1
  N  N720  1  0.761800  0.994600  0.372600  1
  N  N721  1  0.994600  0.232800  0.872600  1
  N  N722  1  0.232800  0.238200  0.372600  1
  N  N723  1  0.238200  0.005400  0.872600  1
  N  N724  1  0.005400  0.767200  0.372600  1
  N  N725  1  0.712100  0.875100  0.257300  1
  N  N726  1  0.875100  0.163000  0.757300  1
  N  N727  1  0.163000  0.287900  0.257300  1
  N  N728  1  0.287900  0.124900  0.757300  1
  N  N729  1  0.124900  0.837000  0.257300  1
  N  N730  1  0.837000  0.712100  0.757300  1
  N  N731  1  0.505600  0.800800  0.201200  1
  N  N732  1  0.800800  0.295200  0.701200  1
  N  N733  1  0.295200  0.494400  0.201200  1
  N  N734  1  0.494400  0.199200  0.701200  1
  N  N735  1  0.199200  0.704800  0.201200  1
  N  N736  1  0.704800  0.505600  0.701200  1
  N  N737  1  0.578900  0.837800  0.218200  1
  N  N738  1  0.837800  0.258900  0.718200  1
  N  N739  1  0.258900  0.421100  0.218200  1
  N  N740  1  0.421100  0.162200  0.718200  1
  N  N741  1  0.162200  0.741100  0.218200  1
  N  N742  1  0.741100  0.578900  0.718200  1
  N  N743  1  0.705800  0.816700  0.747700  1
  N  N744  1  0.816700  0.110900  0.247700  1
  N  N745  1  0.110900  0.294200  0.747700  1
  N  N746  1  0.294200  0.183300  0.247700  1
  N  N747  1  0.183300  0.889100  0.747700  1
  N  N748  1  0.889100  0.705800  0.247700  1
  N  N749  1  0.506100  0.670600  0.802800  1
  N  N750  1  0.670600  0.164500  0.302800  1
  N  N751  1  0.164500  0.493900  0.802800  1
  N  N752  1  0.493900  0.329400  0.302800  1
  N  N753  1  0.329400  0.835500  0.802800  1
  N  N754  1  0.835500  0.506100  0.302800  1
  N  N755  1  0.578700  0.715500  0.785700  1
  N  N756  1  0.715500  0.136800  0.285700  1
  N  N757  1  0.136800  0.421300  0.785700  1
  N  N758  1  0.421300  0.284500  0.285700  1
  N  N759  1  0.284500  0.863200  0.785700  1
  N  N760  1  0.863200  0.578700  0.285700  1
  N  N761  1  0.682100  0.043700  0.167100  1
  N  N762  1  0.043700  0.361600  0.667100  1
  N  N763  1  0.361600  0.317900  0.167100  1
  N  N764  1  0.317900  0.956300  0.667100  1
  N  N765  1  0.956300  0.638400  0.167100  1
  N  N766  1  0.638400  0.682100  0.667100  1
  N  N767  1  0.820900  0.977100  0.113400  1
  N  N768  1  0.977100  0.156200  0.613400  1
  N  N769  1  0.156200  0.179100  0.113400  1
  N  N770  1  0.179100  0.022900  0.613400  1
  N  N771  1  0.022900  0.843800  0.113400  1
  N  N772  1  0.843800  0.820900  0.613400  1
  N  N773  1  0.763800  0.987800  0.131200  1
  N  N774  1  0.987800  0.224000  0.631200  1
  N  N775  1  0.224000  0.236200  0.131200  1
  N  N776  1  0.236200  0.012200  0.631200  1
  N  N777  1  0.012200  0.776000  0.131200  1
  N  N778  1  0.776000  0.763800  0.631200  1
  N  N779  1  0.689900  0.147200  0.950100  1
  N  N780  1  0.147200  0.457300  0.450100  1
  N  N781  1  0.457300  0.310100  0.950100  1
  N  N782  1  0.310100  0.852800  0.450100  1
  N  N783  1  0.852800  0.542700  0.950100  1
  N  N784  1  0.542700  0.689900  0.450100  1
  O  O785  1  0.578000  0.965500  0.946300  1
  O  O786  1  0.965500  0.387500  0.446300  1
  O  O787  1  0.387500  0.422000  0.946300  1
  O  O788  1  0.422000  0.034500  0.446300  1
  O  O789  1  0.034500  0.612500  0.946300  1
  O  O790  1  0.612500  0.578000  0.446300  1
  O  O791  1  0.569200  0.592500  0.062600  1
  O  O792  1  0.592500  0.023300  0.562600  1
  O  O793  1  0.023300  0.430800  0.062600  1
  O  O794  1  0.430800  0.407500  0.562600  1
  O  O795  1  0.407500  0.976700  0.062600  1
  O  O796  1  0.976700  0.569200  0.562600  1
  O  O797  1  0.690100  0.195900  0.977000  1
  O  O798  1  0.195900  0.505800  0.477000  1
  O  O799  1  0.505800  0.309900  0.977000  1
  O  O800  1  0.309900  0.804100  0.477000  1
  O  O801  1  0.804100  0.494200  0.977000  1
  O  O802  1  0.494200  0.690100  0.477000  1
  O  O803  1  0.726900  0.120300  0.961900  1
  O  O804  1  0.120300  0.393400  0.461900  1
  O  O805  1  0.393400  0.273100  0.961900  1
  O  O806  1  0.273100  0.879700  0.461900  1
  O  O807  1  0.879700  0.606600  0.961900  1
  O  O808  1  0.606600  0.726900  0.461900  1
  O  O809  1  0.333333  0.666667  0.122300  1
  O  O810  1  0.666667  0.333333  0.622300  1
  F  F811  1  0.333333  0.666667  0.283200  1
  F  F812  1  0.666667  0.333333  0.783200  1
  F  F813  1  0.000000  0.000000  0.440100  1
  F  F814  1  0.000000  0.000000  0.940100  1
  F  F815  1  0.527300  0.035100  0.738900  1
  F  F816  1  0.035100  0.507800  0.238900  1
  F  F817  1  0.507800  0.472700  0.738900  1
  F  F818  1  0.472700  0.964900  0.238900  1
  F  F819  1  0.964900  0.492200  0.738900  1
  F  F820  1  0.492200  0.527300  0.238900  1
  F  F821  1  0.620500  0.020700  0.716000  1
  F  F822  1  0.020700  0.400200  0.216000  1
  F  F823  1  0.400200  0.379500  0.716000  1
  F  F824  1  0.379500  0.979300  0.216000  1
  F  F825  1  0.979300  0.599800  0.716000  1
  F  F826  1  0.599800  0.620500  0.216000  1
  F  F827  1  0.512000  0.924400  0.736300  1
  F  F828  1  0.924400  0.412400  0.236300  1
  F  F829  1  0.412400  0.488000  0.736300  1
  F  F830  1  0.488000  0.075600  0.236300  1
  F  F831  1  0.075600  0.587600  0.736300  1
  F  F832  1  0.587600  0.512000  0.236300  1
  F  F833  1  0.581600  0.000100  0.796800  1
  F  F834  1  0.000100  0.418500  0.296800  1
  F  F835  1  0.418500  0.418400  0.796800  1
  F  F836  1  0.418400  0.999900  0.296800  1
  F  F837  1  0.999900  0.581500  0.796800  1
  F  F838  1  0.581500  0.581600  0.296800  1
  F  F839  1  0.393800  0.664600  0.353600  1.0
  F  F840  1  0.664600  0.270800  0.853600  1.0
  F  F841  1  0.270800  0.606200  0.353600  1.0
  F  F842  1  0.606200  0.335400  0.853600  1.0
  F  F843  1  0.335400  0.729200  0.353600  1.0
  F  F844  1  0.729200  0.393800  0.853600  1.0
  F  F845  1  0.943800  0.007400  0.513800  1.0
  F  F846  1  0.007400  0.063600  0.013800  1.0
  F  F847  1  0.063600  0.056200  0.513800  1.0
  F  F848  1  0.056200  0.992600  0.013800  1.0
  F  F849  1  0.992600  0.936400  0.513800  1.0
  F  F850  1  0.936400  0.943800  0.013800  1.0
