# generated using pymatgen
data_B4H156Pd2C164N15(OF4)4
_symmetry_space_group_name_H-M   'P 1'
_cell_length_a   18.93146943
_cell_length_b   18.93146943
_cell_length_c   26.26126939
_cell_angle_alpha   96.52347638
_cell_angle_beta   106.80466251
_cell_angle_gamma   116.19047567
_symmetry_Int_Tables_number   1
_chemical_formula_structural   B4H156Pd2C164N15(OF4)4
_chemical_formula_sum   'B8 H312 Pd4 C328 N30 O8 F32'
_cell_volume   7759.77439455
_cell_formula_units_Z   2
loop_
 _symmetry_equiv_pos_site_id
 _symmetry_equiv_pos_as_xyz
  1  'x, y, z'
loop_
 _atom_site_type_symbol
 _atom_site_label
 _atom_site_symmetry_multiplicity
 _atom_site_fract_x
 _atom_site_fract_y
 _atom_site_fract_z
 _atom_site_occupancy
  B  B1  1  0.411600  0.296300  0.102300  1
  B  B2  1  0.306000  0.690700  0.602300  1
  B  B3  1  0.211300  0.971400  0.495300  1
  B  B4  1  0.023900  0.284000  0.995300  1
  B  B5  1  0.302700  0.230000  0.740100  1
  B  B6  1  0.010100  0.437400  0.240100  1
  B  B7  1  0.460300  0.650300  0.374200  1
  B  B8  1  0.223900  0.913900  0.874200  1
  C  C9  1  0.981600  0.263500  0.807100  1
  C  C10  1  0.043600  0.825500  0.307100  1
  C  C11  1  0.985900  0.232200  0.758700  1
  C  C12  1  0.026500  0.772800  0.258700  1
  C  C13  1  0.106200  0.226500  0.807900  1
  C  C14  1  0.081400  0.701700  0.307900  1
  C  C15  1  0.105400  0.257800  0.857600  1
  C  C16  1  0.099800  0.752200  0.357600  1
  C  C17  1  0.041600  0.274800  0.857600  1
  C  C18  1  0.082800  0.816000  0.357600  1
  C  C19  1  0.916200  0.283000  0.806000  1
  C  C20  1  0.023000  0.889800  0.306000  1
  C  C21  1  0.866500  0.303800  0.812700  1
  C  C22  1  0.008900  0.946200  0.312700  1
  C  C23  1  0.814000  0.330600  0.828400  1
  C  C24  1  0.997800  0.014400  0.328400  1
  C  C25  1  0.816900  0.335300  0.882600  1
  C  C26  1  0.047300  0.065700  0.382600  1
  C  C27  1  0.771800  0.363400  0.903200  1
  C  C28  1  0.039800  0.131400  0.403200  1
  C  C29  1  0.721000  0.385100  0.867100  1
  C  C30  1  0.982000  0.146100  0.367100  1
  C  C31  1  0.714100  0.377900  0.811400  1
  C  C32  1  0.933500  0.097300  0.311400  1
  C  C33  1  0.761600  0.351300  0.792300  1
  C  C34  1  0.941000  0.030700  0.292300  1
  C  C35  1  0.629000  0.426300  0.828700  1
  C  C36  1  0.902400  0.199700  0.328700  1
  C  C37  1  0.653500  0.404400  0.786500  1
  C  C38  1  0.882100  0.133000  0.286500  1
  C  C39  1  0.570900  0.454300  0.819200  1
  C  C40  1  0.864900  0.248300  0.319200  1
  C  C41  1  0.536400  0.458000  0.766400  1
  C  C42  1  0.808400  0.230000  0.266400  1
  C  C43  1  0.559400  0.435900  0.724100  1
  C  C44  1  0.788200  0.164700  0.224100  1
  C  C45  1  0.618400  0.408700  0.733500  1
  C  C46  1  0.824800  0.115100  0.233500  1
  C  C47  1  0.521400  0.444300  0.670900  1
  C  C48  1  0.726600  0.149500  0.170900  1
  C  C49  1  0.487400  0.456000  0.629400  1
  C  C50  1  0.673400  0.142000  0.129400  1
  C  C51  1  0.449800  0.478000  0.582800  1
  C  C52  1  0.604800  0.133000  0.082800  1
  C  C53  1  0.454400  0.456100  0.532100  1
  C  C54  1  0.576000  0.077700  0.032100  1
  C  C55  1  0.387200  0.523600  0.493800  1
  C  C56  1  0.470200  0.106600  0.993800  1
  C  C57  1  0.378000  0.546200  0.541600  1
  C  C58  1  0.495400  0.163600  0.041600  1
  C  C59  1  0.410600  0.524500  0.587300  1
  C  C60  1  0.562800  0.176700  0.087300  1
  C  C61  1  0.666200  0.437400  0.931800  1
  C  C62  1  0.994400  0.265600  0.431800  1
  C  C63  1  0.603400  0.367200  0.945200  1
  C  C64  1  0.078000  0.341800  0.445200  1
  C  C65  1  0.514500  0.348400  0.918700  1
  C  C66  1  0.070300  0.404200  0.418700  1
  C  C67  1  0.450600  0.275400  0.928600  1
  C  C68  1  0.153200  0.478000  0.428600  1
  C  C69  1  0.360900  0.254200  0.902900  1
  C  C70  1  0.148700  0.542000  0.402900  1
  C  C71  1  0.293700  0.179500  0.908800  1
  C  C72  1  0.229300  0.615100  0.408800  1
  C  C73  1  0.489600  0.329700  0.293300  1
  C  C74  1  0.463600  0.803700  0.793300  1
  C  C75  1  0.481900  0.357600  0.341700  1
  C  C76  1  0.484100  0.859800  0.841700  1
  C  C77  1  0.443100  0.445800  0.305500  1
  C  C78  1  0.359700  0.862400  0.805500  1
  C  C79  1  0.447400  0.420900  0.255700  1
  C  C80  1  0.334800  0.808300  0.755700  1
  C  C81  1  0.469800  0.361600  0.249000  1
  C  C82  1  0.387400  0.779200  0.749000  1
  C  C83  1  0.512500  0.266900  0.287000  1
  C  C84  1  0.520100  0.774500  0.787000  1
  C  C85  1  0.534400  0.217600  0.277800  1
  C  C86  1  0.560200  0.743400  0.777800  1
  C  C87  1  0.555700  0.156800  0.261700  1
  C  C88  1  0.604900  0.706000  0.761700  1
  C  C89  1  0.517500  0.113100  0.205000  1
  C  C90  1  0.591900  0.687500  0.705000  1
  C  C91  1  0.534000  0.053900  0.186100  1
  C  C92  1  0.632200  0.652100  0.686100  1
  C  C93  1  0.589600  0.037500  0.224500  1
  C  C94  1  0.687000  0.634900  0.724500  1
  C  C95  1  0.628900  0.080900  0.281000  1
  C  C96  1  0.700100  0.652100  0.781000  1
  C  C97  1  0.611400  0.141100  0.299900  1
  C  C98  1  0.658800  0.688500  0.799900  1
  C  C99  1  0.667600  0.983600  0.265400  1
  C  C100  1  0.781800  0.597800  0.765400  1
  C  C101  1  0.680800  0.046800  0.307600  1
  C  C102  1  0.760800  0.626800  0.807600  1
  C  C103  1  0.707400  0.937300  0.276100  1
  C  C104  1  0.838800  0.568700  0.776100  1
  C  C105  1  0.762700  0.955600  0.329500  1
  C  C106  1  0.873900  0.566800  0.829500  1
  C  C107  1  0.778600  0.019900  0.371900  1
  C  C108  1  0.852000  0.593300  0.871900  1
  C  C109  1  0.737300  0.065200  0.361100  1
  C  C110  1  0.795900  0.623800  0.861100  1
  C  C111  1  0.842100  0.038200  0.425300  1
  C  C112  1  0.887100  0.583200  0.925300  1
  C  C113  1  0.897400  0.046700  0.466300  1
  C  C114  1  0.919600  0.568900  0.966300  1
  C  C115  1  0.966600  0.059200  0.514000  1
  C  C116  1  0.954800  0.547400  0.014000  1
  C  C117  1  0.975500  0.093800  0.566700  1
  C  C118  1  0.972900  0.591200  0.066700  1
  C  C119  1  0.097400  0.087000  0.608200  1
  C  C120  1  0.021200  0.510800  0.108200  1
  C  C121  1  0.091300  0.049900  0.557400  1
  C  C122  1  0.007500  0.466100  0.057400  1
  C  C123  1  0.025600  0.035900  0.510100  1
  C  C124  1  0.974200  0.484500  0.010100  1
  C  C125  1  0.592200  0.926700  0.162100  1
  C  C126  1  0.735400  0.569900  0.662100  1
  C  C127  1  0.515300  0.841000  0.147900  1
  C  C128  1  0.806900  0.632600  0.647900  1
  C  C129  1  0.430900  0.839900  0.128400  1
  C  C130  1  0.788500  0.697500  0.628400  1
  C  C131  1  0.354800  0.757300  0.116700  1
  C  C132  1  0.859400  0.761900  0.616700  1
  C  C133  1  0.269900  0.754000  0.092500  1
  C  C134  1  0.838500  0.822600  0.592500  1
  C  C135  1  0.195100  0.672000  0.083900  1
  C  C136  1  0.911900  0.888800  0.583900  1
  C  C137  1  0.564000  0.065700  0.443500  1
  C  C138  1  0.877800  0.879500  0.943500  1
  C  C139  1  0.623600  0.045800  0.474200  1
  C  C140  1  0.928400  0.850600  0.974200  1
  C  C141  1  0.707900  0.103400  0.499500  1
  C  C142  1  0.896100  0.791600  0.999500  1
  C  C143  1  0.738100  0.184300  0.495400  1
  C  C144  1  0.811100  0.757300  0.995400  1
  C  C145  1  0.679800  0.204600  0.465400  1
  C  C146  1  0.760800  0.785600  0.965400  1
  C  C147  1  0.593500  0.146100  0.439800  1
  C  C148  1  0.793700  0.846300  0.939800  1
  C  C149  1  0.534500  0.173300  0.411200  1
  C  C150  1  0.737900  0.876700  0.911200  1
  C  C151  1  0.444500  0.109000  0.386700  1
  C  C152  1  0.777700  0.942200  0.886700  1
  C  C153  1  0.384500  0.129400  0.359300  1
  C  C154  1  0.729900  0.974800  0.859300  1
  C  C155  1  0.298000  0.073900  0.337900  1
  C  C156  1  0.764000  0.039900  0.837900  1
  C  C157  1  0.271700  0.994900  0.343400  1
  C  C158  1  0.848500  0.071700  0.843400  1
  C  C159  1  0.330000  0.972300  0.369700  1
  C  C160  1  0.897400  0.039700  0.869700  1
  C  C161  1  0.417500  0.028200  0.390900  1
  C  C162  1  0.862700  0.973400  0.890900  1
  C  C163  1  0.826600  0.245000  0.522000  1
  C  C164  1  0.777000  0.695400  0.022000  1
  C  C165  1  0.899000  0.297600  0.543400  1
  C  C166  1  0.745800  0.644400  0.043400  1
  C  C167  1  0.986600  0.360400  0.568200  1
  C  C168  1  0.707800  0.581600  0.068200  1
  C  C169  1  0.046700  0.349700  0.609600  1
  C  C170  1  0.759900  0.562900  0.109600  1
  C  C171  1  0.022100  0.278600  0.627700  1
  C  C172  1  0.849100  0.605600  0.127700  1
  C  C173  1  0.160900  0.327800  0.687900  1
  C  C174  1  0.860100  0.527000  0.187900  1
  C  C175  1  0.189900  0.399500  0.674400  1
  C  C176  1  0.774900  0.484500  0.174400  1
  C  C177  1  0.132900  0.412000  0.633100  1
  C  C178  1  0.721100  0.500200  0.133100  1
  C  C179  1  0.158700  0.484400  0.614900  1
  C  C180  1  0.630500  0.456200  0.114900  1
  C  C181  1  0.099700  0.492200  0.575700  1
  C  C182  1  0.583500  0.476000  0.075700  1
  C  C183  1  0.014500  0.431500  0.552000  1
  C  C184  1  0.620500  0.537500  0.052000  1
  C  C185  1  0.240100  0.102700  0.315800  1
  C  C186  1  0.713100  0.075700  0.815800  1
  C  C187  1  0.197000  0.133100  0.299500  1
  C  C188  1  0.666400  0.102500  0.799500  1
  C  C189  1  0.151600  0.175200  0.282800  1
  C  C190  1  0.607600  0.131200  0.782800  1
  C  C191  1  0.191500  0.261300  0.308200  1
  C  C192  1  0.546900  0.116700  0.808200  1
  C  C193  1  0.275500  0.307500  0.348200  1
  C  C194  1  0.540700  0.072700  0.848200  1
  C  C195  1  0.272600  0.428800  0.352400  1
  C  C196  1  0.423600  0.079800  0.852400  1
  C  C197  1  0.190000  0.390500  0.315500  1
  C  C198  1  0.425000  0.125500  0.815500  1
  C  C199  1  0.146300  0.304000  0.291700  1
  C  C200  1  0.487700  0.145400  0.791700  1
  C  C201  1  0.062700  0.260100  0.251200  1
  C  C202  1  0.491100  0.188500  0.751200  1
  C  C203  1  0.027300  0.178200  0.227700  1
  C  C204  1  0.549500  0.200400  0.727700  1
  C  C205  1  0.070300  0.135300  0.242400  1
  C  C206  1  0.607100  0.172100  0.742400  1
  C  C207  1  0.449300  0.922000  0.421700  1
  C  C208  1  0.999700  0.972400  0.921700  1
  C  C209  1  0.431600  0.911900  0.473900  1
  C  C210  1  0.062000  0.042300  0.973900  1
  C  C211  1  0.420300  0.830900  0.486400  1
  C  C212  1  0.155500  0.066100  0.986400  1
  C  C213  1  0.507200  0.833000  0.512800  1
  C  C214  1  0.179800  0.005600  0.012800  1
  C  C215  1  0.497300  0.755500  0.531400  1
  C  C216  1  0.275900  0.034100  0.031400  1
  C  C217  1  0.574600  0.752600  0.553400  1
  C  C218  1  0.300800  0.978800  0.053400  1
  C  C219  1  0.561300  0.998600  0.641500  1
  C  C220  1  0.142900  0.080200  0.141500  1
  C  C221  1  0.532100  0.926800  0.658700  1
  C  C222  1  0.231900  0.126600  0.158700  1
  C  C223  1  0.587600  0.900400  0.683200  1
  C  C224  1  0.282800  0.095600  0.183200  1
  C  C225  1  0.672900  0.943900  0.691400  1
  C  C226  1  0.247500  0.018500  0.191400  1
  C  C227  1  0.702400  0.016400  0.676600  1
  C  C228  1  0.160200  0.974200  0.176600  1
  C  C229  1  0.647400  0.043500  0.651300  1
  C  C230  1  0.107800  0.003900  0.151300  1
  C  C231  1  0.684100  0.119500  0.636000  1
  C  C232  1  0.016500  0.951900  0.136000  1
  C  C233  1  0.622000  0.144000  0.609800  1
  C  C234  1  0.965800  0.987800  0.109800  1
  C  C235  1  0.652800  0.215800  0.594600  1
  C  C236  1  0.878800  0.941800  0.094600  1
  C  C237  1  0.598900  0.244300  0.569800  1
  C  C238  1  0.825500  0.970900  0.069800  1
  C  C239  1  0.514200  0.200300  0.562500  1
  C  C240  1  0.862200  0.048300  0.062500  1
  C  C241  1  0.481700  0.128000  0.577100  1
  C  C242  1  0.949100  0.095400  0.077100  1
  C  C243  1  0.535900  0.097500  0.600600  1
  C  C244  1  0.003100  0.064700  0.100600  1
  C  C245  1  0.733600  0.917700  0.713500  1
  C  C246  1  0.295800  0.979900  0.213500  1
  C  C247  1  0.792700  0.907000  0.731100  1
  C  C248  1  0.324100  0.938400  0.231100  1
  C  C249  1  0.864100  0.894100  0.749800  1
  C  C250  1  0.355700  0.885700  0.249800  1
  C  C251  1  0.941200  0.946100  0.742700  1
  C  C252  1  0.296600  0.801500  0.242700  1
  C  C253  1  0.952600  0.011000  0.718600  1
  C  C254  1  0.207600  0.766000  0.218600  1
  C  C255  1  0.092200  0.045900  0.732900  1
  C  C256  1  0.187000  0.640700  0.232900  1
  C  C257  1  0.086200  0.983300  0.755500  1
  C  C258  1  0.272200  0.669300  0.255500  1
  C  C259  1  0.010500  0.930800  0.761500  1
  C  C260  1  0.330700  0.751000  0.261500  1
  C  C261  1  0.002100  0.866100  0.785600  1
  C  C262  1  0.419500  0.783500  0.285600  1
  C  C263  1  0.927900  0.818400  0.791500  1
  C  C264  1  0.473100  0.863600  0.291500  1
  C  C265  1  0.859200  0.832900  0.774900  1
  C  C266  1  0.442000  0.915700  0.274900  1
  C  C267  1  0.636300  0.318200  0.553300  1
  C  C268  1  0.735100  0.917000  0.053300  1
  C  C269  1  0.677600  0.377500  0.541300  1
  C  C270  1  0.663800  0.863700  0.041300  1
  C  C271  1  0.729600  0.448400  0.527400  1
  C  C272  1  0.579000  0.797800  0.027400  1
  C  C273  1  0.693200  0.492800  0.500600  1
  C  C274  1  0.507800  0.807400  0.000600  1
  C  C275  1  0.605000  0.463500  0.482300  1
  C  C276  1  0.518800  0.877300  0.982300  1
  C  C277  1  0.619900  0.575900  0.450000  1
  C  C278  1  0.374100  0.830100  0.950000  1
  C  C279  1  0.704400  0.608100  0.464500  1
  C  C280  1  0.356400  0.760100  0.964500  1
  C  C281  1  0.744500  0.565700  0.490000  1
  C  C282  1  0.424300  0.745500  0.990000  1
  C  C283  1  0.831800  0.591200  0.503200  1
  C  C284  1  0.412000  0.671400  0.003200  1
  C  C285  1  0.864500  0.546200  0.526300  1
  C  C286  1  0.480100  0.661800  0.026300  1
  C  C287  1  0.814600  0.475500  0.538700  1
  C  C288  1  0.563200  0.724100  0.038700  1
  C  C289  1  0.413100  0.972500  0.602400  1
  C  C290  1  0.129900  0.189300  0.102400  1
  C  C291  1  0.388100  0.992600  0.650100  1
  C  C292  1  0.157500  0.262000  0.150100  1
  C  C293  1  0.297500  0.927000  0.640300  1
  C  C294  1  0.213300  0.342800  0.140300  1
  C  C295  1  0.268900  0.943400  0.686900  1
  C  C296  1  0.243500  0.418000  0.186900  1
  C  C297  1  0.179200  0.873200  0.678400  1
  C  C298  1  0.305200  0.499200  0.178400  1
  C  C299  1  0.111800  0.870600  0.630600  1
  C  C300  1  0.260000  0.518800  0.130600  1
  C  C301  1  0.602800  0.671400  0.215800  1
  C  C302  1  0.044400  0.613000  0.715800  1
  C  C303  1  0.574400  0.700100  0.256300  1
  C  C304  1  0.056200  0.681900  0.756300  1
  C  C305  1  0.536600  0.610800  0.163400  1
  C  C306  1  0.052600  0.626800  0.663400  1
  C  C307  1  0.728400  0.733000  0.190600  1
  C  C308  1  0.957600  0.462200  0.690600  1
  C  C309  1  0.762400  0.810300  0.174700  1
  C  C310  1  0.864400  0.412300  0.674700  1
  C  C311  1  0.796900  0.721200  0.225700  1
  C  C312  1  0.004500  0.428800  0.725700  1
  C  C313  1  0.773800  0.638200  0.331600  1
  C  C314  1  0.193400  0.557800  0.831600  1
  C  C315  1  0.835400  0.610700  0.326500  1
  C  C316  1  0.215800  0.491100  0.826500  1
  C  C317  1  0.690200  0.566400  0.323600  1
  C  C318  1  0.257200  0.633400  0.823600  1
  C  C319  1  0.876100  0.774000  0.400700  1
  C  C320  1  0.126700  0.524600  0.900700  1
  C  C321  1  0.826000  0.794500  0.428900  1
  C  C322  1  0.134400  0.602900  0.928900  1
  C  C323  1  0.957800  0.805900  0.448900  1
  C  C324  1  0.143000  0.491100  0.948900  1
  C  C325  1  0.789200  0.376100  0.398100  1
  C  C326  1  0.522000  0.608900  0.898100  1
  C  C327  1  0.721300  0.387700  0.386800  1
  C  C328  1  0.499100  0.665500  0.886800  1
  C  C329  1  0.362400  0.230400  0.457200  1
  C  C330  1  0.726800  0.094800  0.957200  1
  C  C331  1  0.299500  0.157700  0.462200  1
  C  C332  1  0.804500  0.162700  0.962200  1
  C  C333  1  0.721300  0.908900  0.496200  1
  C  C334  1  0.087300  0.774900  0.996200  1
  C  C335  1  0.684700  0.855500  0.441600  1
  C  C336  1  0.086100  0.756900  0.941600  1
  F  F337  1  0.332800  0.249700  0.100100  1
  F  F338  1  0.350400  0.767300  0.600100  1
  F  F339  1  0.416490  0.289510  0.051000  1
  F  F340  1  0.261490  0.634510  0.551000  1
  F  F341  1  0.439900  0.376700  0.127800  1
  F  F342  1  0.251100  0.687900  0.627800  1
  F  F343  1  0.467300  0.272100  0.133600  1
  F  F344  1  0.361500  0.666300  0.633600  1
  F  F345  1  0.155100  0.904000  0.506100  1
  F  F346  1  0.102100  0.351000  0.006100  1
  F  F347  1  0.160000  0.990600  0.458200  1
  F  F348  1  0.967600  0.298200  0.958200  1
  F  F349  1  0.262000  0.033700  0.544300  1
  F  F350  1  0.010600  0.282300  0.044300  1
  F  F351  1  0.257900  0.950200  0.475500  1
  F  F352  1  0.025300  0.217600  0.975500  1
  F  F353  1  0.303000  0.267100  0.698100  1
  F  F354  1  0.931000  0.395100  0.198100  1
  F  F355  1  0.277100  0.149500  0.719600  1
  F  F356  1  0.070100  0.442500  0.219600  1
  F  F357  1  0.379500  0.268800  0.781900  1
  F  F358  1  0.013100  0.402400  0.281900  1
  F  F359  1  0.240400  0.233400  0.758600  1
  F  F360  1  0.025200  0.518200  0.258600  1
  F  F361  1  0.455600  0.609100  0.412900  1
  F  F362  1  0.303800  0.957300  0.912900  1
  F  F363  1  0.400400  0.606000  0.323200  1
  F  F364  1  0.217200  0.922800  0.823200  1
  F  F365  1  0.474600  0.726900  0.391500  1
  F  F366  1  0.164600  0.916900  0.891500  1
  F  F367  1  0.537200  0.665700  0.368700  1
  F  F368  1  0.203000  0.831500  0.868700  1
  H  H369  1  0.944893  0.223579  0.724084  1
  H  H370  1  0.000505  0.779191  0.224084  1
  H  H371  1  0.149619  0.214106  0.807917  1
  H  H372  1  0.093811  0.658298  0.307917  1
  H  H373  1  0.148304  0.267379  0.891553  1
  H  H374  1  0.124174  0.743249  0.391553  1
  H  H375  1  0.038601  0.294029  0.891538  1
  H  H376  1  0.097509  0.852937  0.391538  1
  H  H377  1  0.851146  0.318429  0.906083  1
  H  H378  1  0.087654  0.054937  0.406083  1
  H  H379  1  0.775785  0.367631  0.940448  1
  H  H380  1  0.072817  0.164663  0.440448  1
  H  H381  1  0.758144  0.347291  0.755151  1
  H  H382  1  0.907860  0.997007  0.255151  1
  H  H383  1  0.555567  0.470284  0.848037  1
  H  H384  1  0.877753  0.292470  0.348037  1
  H  H385  1  0.495934  0.476028  0.758658  1
  H  H386  1  0.782630  0.262724  0.258658  1
  H  H387  1  0.634041  0.393753  0.704528  1
  H  H388  1  0.810775  0.070487  0.204528  1
  H  H389  1  0.479975  0.423480  0.528527  1
  H  H390  1  0.605047  0.048552  0.028527  1
  H  H391  1  0.366221  0.540308  0.462917  1
  H  H392  1  0.422609  0.096696  0.962917  1
  H  H393  1  0.349426  0.576391  0.543307  1
  H  H394  1  0.466916  0.193881  0.043307  1
  H  H395  1  0.406463  0.540885  0.621370  1
  H  H396  1  0.580485  0.214907  0.121370  1
  H  H397  1  0.650745  0.481066  0.932643  1
  H  H398  1  0.951577  0.281898  0.432643  1
  H  H399  1  0.723318  0.460178  0.960986  1
  H  H400  1  0.000808  0.237668  0.460986  1
  H  H401  1  0.606879  0.317676  0.933209  1
  H  H402  1  0.115533  0.326330  0.433209  1
  H  H403  1  0.619581  0.380206  0.985861  1
  H  H404  1  0.105655  0.366280  0.485861  1
  H  H405  1  0.499789  0.339135  0.878244  1
  H  H406  1  0.039109  0.378455  0.378244  1
  H  H407  1  0.510468  0.396761  0.932585  1
  H  H408  1  0.035824  0.422117  0.432585  1
  H  H409  1  0.455263  0.227322  0.914857  1
  H  H410  1  0.187535  0.459594  0.414857  1
  H  H411  1  0.465854  0.284870  0.969078  1
  H  H412  1  0.184208  0.503224  0.469078  1
  H  H413  1  0.347182  0.248288  0.862732  1
  H  H414  1  0.114444  0.515550  0.362732  1
  H  H415  1  0.356201  0.301492  0.918171  1
  H  H416  1  0.116679  0.561970  0.418171  1
  H  H417  1  0.237823  0.173502  0.889673  1
  H  H418  1  0.216171  0.651850  0.389673  1
  H  H419  1  0.295114  0.131121  0.892459  1
  H  H420  1  0.261338  0.597345  0.392459  1
  H  H421  1  0.304181  0.184603  0.948188  1
  H  H422  1  0.263585  0.644007  0.448188  1
  H  H423  1  0.492867  0.334799  0.371452  1
  H  H424  1  0.536653  0.878585  0.871452  1
  H  H425  1  0.427549  0.486764  0.309765  1
  H  H426  1  0.323001  0.882216  0.809765  1
  H  H427  1  0.435144  0.444335  0.226557  1
  H  H428  1  0.282222  0.791413  0.726557  1
  H  H429  1  0.471933  0.342419  0.214734  1
  H  H430  1  0.372315  0.742801  0.714734  1
  H  H431  1  0.479934  0.125031  0.179681  1
  H  H432  1  0.554650  0.699747  0.679681  1
  H  H433  1  0.508397  0.024729  0.147900  1
  H  H434  1  0.623171  0.639503  0.647900  1
  H  H435  1  0.637086  0.170642  0.338036  1
  H  H436  1  0.667394  0.700950  0.838036  1
  H  H437  1  0.696805  0.894278  0.247353  1
  H  H438  1  0.853075  0.550548  0.747353  1
  H  H439  1  0.790311  0.924426  0.337767  1
  H  H440  1  0.913341  0.547456  0.837767  1
  H  H441  1  0.747469  0.107985  0.389862  1
  H  H442  1  0.781877  0.642393  0.889862  1
  H  H443  1  0.934261  0.107596  0.570283  1
  H  H444  1  0.962687  0.636022  0.070283  1
  H  H445  1  0.143284  0.097778  0.640750  1
  H  H446  1  0.042972  0.497466  0.140750  1
  H  H447  1  0.131778  0.034244  0.555162  1
  H  H448  1  0.020918  0.423384  0.055162  1
  H  H449  1  0.020556  0.010263  0.474957  1
  H  H450  1  0.964694  0.454401  0.974957  1
  H  H451  1  0.641968  0.921146  0.162726  1
  H  H452  1  0.741580  0.520758  0.662726  1
  H  H453  1  0.579821  0.952780  0.132665  1
  H  H454  1  0.679885  0.552844  0.632665  1
  H  H455  1  0.515099  0.803278  0.118461  1
  H  H456  1  0.815183  0.603362  0.618461  1
  H  H457  1  0.521183  0.820632  0.181065  1
  H  H458  1  0.860433  0.659882  0.681065  1
  H  H459  1  0.432485  0.879919  0.157116  1
  H  H460  1  0.777197  0.724631  0.657116  1
  H  H461  1  0.424094  0.858064  0.094284  1
  H  H462  1  0.736220  0.670190  0.594284  1
  H  H463  1  0.359137  0.741464  0.151691  1
  H  H464  1  0.910227  0.792554  0.651691  1
  H  H465  1  0.356188  0.716356  0.090612  1
  H  H466  1  0.874256  0.734424  0.590612  1
  H  H467  1  0.269336  0.796686  0.117666  1
  H  H468  1  0.820980  0.848330  0.617666  1
  H  H469  1  0.263952  0.766824  0.056508  1
  H  H470  1  0.789684  0.792556  0.556508  1
  H  H471  1  0.142255  0.673681  0.068212  1
  H  H472  1  0.894531  0.925957  0.568212  1
  H  H473  1  0.194304  0.629587  0.058275  1
  H  H474  1  0.928688  0.863971  0.558275  1
  H  H475  1  0.199692  0.659469  0.119473  1
  H  H476  1  0.960004  0.919781  0.619473  1
  H  H477  1  0.604861  0.991537  0.477408  1
  H  H478  1  0.985871  0.872547  0.977408  1
  H  H479  1  0.746961  0.088693  0.520190  1
  H  H480  1  0.931497  0.773229  0.020190  1
  H  H481  1  0.698995  0.258896  0.462345  1
  H  H482  1  0.703449  0.763350  0.962345  1
  H  H483  1  0.403567  0.183259  0.355242  1
  H  H484  1  0.671983  0.951675  0.855242  1
  H  H485  1  0.212633  0.955762  0.328965  1
  H  H486  1  0.873203  0.116332  0.828965  1
  H  H487  1  0.310451  0.918221  0.373368  1
  H  H488  1  0.955147  0.062917  0.873368  1
  H  H489  1  0.963919  0.237007  0.612572  1
  H  H490  1  0.875565  0.648653  0.112572  1
  H  H491  1  0.200370  0.318906  0.714220  1
  H  H492  1  0.895314  0.513850  0.214220  1
  H  H493  1  0.248002  0.441085  0.692457  1
  H  H494  1  0.751372  0.444455  0.192457  1
  H  H495  1  0.216543  0.526857  0.630028  1
  H  H496  1  0.603171  0.413485  0.130028  1
  H  H497  1  0.117155  0.540763  0.564062  1
  H  H498  1  0.523299  0.446907  0.064062  1
  H  H499  1  0.975214  0.439005  0.524493  1
  H  H500  1  0.585488  0.549279  0.024493  1
  H  H501  1  0.305343  0.279438  0.360421  1
  H  H502  1  0.580983  0.055078  0.860421  1
  H  H503  1  0.302086  0.486822  0.366890  1
  H  H504  1  0.380068  0.064804  0.866890  1
  H  H505  1  0.162160  0.421134  0.305910  1
  H  H506  1  0.384776  0.143750  0.805910  1
  H  H507  1  0.031392  0.287265  0.240407  1
  H  H508  1  0.453142  0.209015  0.740407  1
  H  H509  1  0.971203  0.149278  0.200189  1
  H  H510  1  0.550911  0.228986  0.700189  1
  H  H511  1  0.043602  0.078419  0.224683  1
  H  H512  1  0.646264  0.181081  0.724683  1
  H  H513  1  0.494021  0.908153  0.421710  1
  H  H514  1  0.013557  0.927689  0.921710  1
  H  H515  1  0.397105  0.883479  0.388872  1
  H  H516  1  0.005393  0.991767  0.888872  1
  H  H517  1  0.379126  0.914443  0.470053  1
  H  H518  1  0.055610  0.090927  0.970053  1
  H  H519  1  0.479044  0.958287  0.505669  1
  H  H520  1  0.047382  0.026625  0.005669  1
  H  H521  1  0.384449  0.785717  0.451548  1
  H  H522  1  0.165831  0.067099  0.951548  1
  H  H523  1  0.389901  0.819196  0.512097  1
  H  H524  1  0.192901  0.122196  0.012097  1
  H  H525  1  0.534546  0.838515  0.485409  1
  H  H526  1  0.146894  0.950863  0.985409  1
  H  H527  1  0.545420  0.881841  0.545279  1
  H  H528  1  0.163438  0.999859  0.045279  1
  H  H529  1  0.472201  0.751724  0.559933  1
  H  H530  1  0.308209  0.087732  0.059933  1
  H  H531  1  0.456271  0.706683  0.499184  1
  H  H532  1  0.292501  0.042913  0.999184  1
  H  H533  1  0.561960  0.701564  0.563914  1
  H  H534  1  0.362350  0.001954  0.063914  1
  H  H535  1  0.599201  0.754414  0.525109  1
  H  H536  1  0.270695  0.925908  0.025109  1
  H  H537  1  0.615169  0.799562  0.586003  1
  H  H538  1  0.286441  0.970834  0.086003  1
  H  H539  1  0.473740  0.896042  0.653356  1
  H  H540  1  0.257314  0.179616  0.153356  1
  H  H541  1  0.566968  0.851816  0.694596  1
  H  H542  1  0.342780  0.127628  0.194596  1
  H  H543  1  0.761457  0.048238  0.683867  1
  H  H544  1  0.135629  0.922410  0.183867  1
  H  H545  1  0.711598  0.246288  0.601210  1
  H  H546  1  0.854922  0.889612  0.101210  1
  H  H547  1  0.477237  0.220379  0.547122  1
  H  H548  1  0.826743  0.069885  0.047122  1
  H  H549  1  0.423015  0.098861  0.571284  1
  H  H550  1  0.972423  0.148269  0.071284  1
  H  H551  1  0.906369  0.020783  0.705176  1
  H  H552  1  0.184393  0.798807  0.205176  1
  H  H553  1  0.144604  0.081502  0.730256  1
  H  H554  1  0.148754  0.585652  0.230256  1
  H  H555  1  0.133634  0.975012  0.767436  1
  H  H556  1  0.292424  0.633802  0.267436  1
  H  H557  1  0.048173  0.855759  0.797580  1
  H  H558  1  0.441821  0.749407  0.297580  1
  H  H559  1  0.922482  0.774382  0.807256  1
  H  H560  1  0.532874  0.884774  0.307256  1
  H  H561  1  0.808991  0.800233  0.780992  1
  H  H562  1  0.480759  0.972001  0.280992  1
  H  H563  1  0.569609  0.413326  0.488013  1
  H  H564  1  0.574687  0.918404  0.988013  1
  H  H565  1  0.594226  0.605359  0.433723  1
  H  H566  1  0.328364  0.839497  0.933723  1
  H  H567  1  0.737049  0.658635  0.457916  1
  H  H568  1  0.299281  0.720867  0.957916  1
  H  H569  1  0.867291  0.639808  0.495853  1
  H  H570  1  0.356045  0.628562  0.995853  1
  H  H571  1  0.922783  0.563061  0.534222  1
  H  H572  1  0.471161  0.611439  0.034222  1
  H  H573  1  0.839550  0.445705  0.555247  1
  H  H574  1  0.609542  0.715697  0.055247  1
  H  H575  1  0.398078  0.914133  0.594259  1
  H  H576  1  0.180126  0.196181  0.094259  1
  H  H577  1  0.380138  0.980199  0.568783  1
  H  H578  1  0.088584  0.188645  0.068783  1
  H  H579  1  0.391476  0.046708  0.653258  1
  H  H580  1  0.106550  0.261782  0.153258  1
  H  H581  1  0.428244  0.995591  0.685277  1
  H  H582  1  0.189686  0.257033  0.185277  1
  H  H583  1  0.257714  0.924295  0.604969  1
  H  H584  1  0.180674  0.347255  0.104969  1
  H  H585  1  0.294351  0.872921  0.636490  1
  H  H586  1  0.263569  0.342139  0.136490  1
  H  H587  1  0.268012  0.995469  0.688969  1
  H  H588  1  0.193500  0.420957  0.188969  1
  H  H589  1  0.310669  0.949711  0.722584  1
  H  H590  1  0.272873  0.411915  0.222584  1
  H  H591  1  0.177830  0.820065  0.671885  1
  H  H592  1  0.351820  0.494055  0.171885  1
  H  H593  1  0.167750  0.881817  0.712379  1
  H  H594  1  0.330562  0.544629  0.212379  1
  H  H595  1  0.056097  0.826025  0.626214  1
  H  H596  1  0.300189  0.570117  0.126214  1
  H  H597  1  0.112386  0.922940  0.637212  1
  H  H598  1  0.214272  0.524826  0.137212  1
  H  H599  1  0.122456  0.861243  0.596755  1
  H  H600  1  0.235512  0.474299  0.096755  1
  H  H601  1  0.625305  0.638195  0.234418  1
  H  H602  1  0.096223  0.609113  0.734418  1
  H  H603  1  0.522482  0.654213  0.255907  1
  H  H604  1  0.101694  0.733425  0.755907  1
  H  H605  1  0.619179  0.721697  0.293446  1
  H  H606  1  0.071749  0.674267  0.793446  1
  H  H607  1  0.562977  0.743452  0.246583  1
  H  H608  1  0.003131  0.683606  0.746583  1
  H  H609  1  0.489976  0.569120  0.170900  1
  H  H610  1  0.101780  0.680924  0.670900  1
  H  H611  1  0.514722  0.638272  0.139150  1
  H  H612  1  0.000878  0.624428  0.639150  1
  H  H613  1  0.560753  0.584491  0.145162  1
  H  H614  1  0.060671  0.584409  0.645162  1
  H  H615  1  0.692733  0.685976  0.156117  1
  H  H616  1  0.970141  0.463384  0.656117  1
  H  H617  1  0.799942  0.810842  0.155564  1
  H  H618  1  0.844722  0.355622  0.655564  1
  H  H619  1  0.715175  0.814289  0.150076  1
  H  H620  1  0.835787  0.434901  0.650076  1
  H  H621  1  0.794667  0.857014  0.208113  1
  H  H622  1  0.851099  0.413446  0.708113  1
  H  H623  1  0.831724  0.718485  0.205127  1
  H  H624  1  0.986642  0.373403  0.705127  1
  H  H625  1  0.832477  0.767281  0.259380  1
  H  H626  1  0.992099  0.426903  0.759380  1
  H  H627  1  0.771477  0.669963  0.235692  1
  H  H628  1  0.065729  0.464215  0.735692  1
  H  H629  1  0.766350  0.670795  0.305153  1
  H  H630  1  0.134358  0.538803  0.805153  1
  H  H631  1  0.813609  0.575788  0.288865  1
  H  H632  1  0.213077  0.475256  0.788865  1
  H  H633  1  0.890670  0.658741  0.334217  1
  H  H634  1  0.175476  0.443547  0.834217  1
  H  H635  1  0.841885  0.579585  0.353192  1
  H  H636  1  0.273607  0.511307  0.853192  1
  H  H637  1  0.662533  0.532154  0.285143  1
  H  H638  1  0.252989  0.622610  0.785143  1
  H  H639  1  0.699766  0.533908  0.348580  1
  H  H640  1  0.314672  0.648814  0.848580  1
  H  H641  1  0.653607  0.585920  0.331915  1
  H  H642  1  0.245995  0.678308  0.831915  1
  H  H643  1  0.880686  0.795366  0.368016  1
  H  H644  1  0.072650  0.487330  0.868016  1
  H  H645  1  0.765788  0.765132  0.404264  1
  H  H646  1  0.139132  0.638476  0.904264  1
  H  H647  1  0.847377  0.853637  0.437688  1
  H  H648  1  0.084051  0.590311  0.937688  1
  H  H649  1  0.832214  0.777787  0.463239  1
  H  H650  1  0.185452  0.631025  0.963239  1
  H  H651  1  0.994855  0.864208  0.453513  1
  H  H652  1  0.089305  0.458658  0.953513  1
  H  H653  1  0.946072  0.799380  0.482568  1
  H  H654  1  0.183188  0.536496  0.982568  1
  H  H655  1  0.986051  0.775265  0.442246  1
  H  H656  1  0.166981  0.456195  0.942246  1
  H  H657  1  0.674471  0.341748  0.391241  1
  H  H658  1  0.549493  0.716770  0.891241  1
  H  H659  1  0.703355  0.390884  0.348585  1
  H  H660  1  0.457701  0.645230  0.848585  1
  H  H661  1  0.737091  0.438941  0.412334  1
  H  H662  1  0.473393  0.675243  0.912334  1
  H  H663  1  0.244461  0.155689  0.449076  1
  H  H664  1  0.793387  0.204615  0.949076  1
  H  H665  1  0.315391  0.157574  0.501183  1
  H  H666  1  0.843609  0.185792  0.001183  1
  H  H667  1  0.295282  0.109819  0.439935  1
  H  H668  1  0.830116  0.144653  0.939935  1
  H  H669  1  0.642948  0.866588  0.417320  1
  H  H670  1  0.050732  0.774372  0.917320  1
  H  H671  1  0.656507  0.798421  0.442612  1
  H  H672  1  0.144191  0.786105  0.942612  1
  H  H673  1  0.729618  0.864915  0.427297  1
  H  H674  1  0.062382  0.697679  0.927297  1
  H  H675  1  0.792060  0.718668  0.261672  1
  H  H676  1  0.043004  0.469612  0.761672  1
  H  H677  1  0.791309  0.669872  0.207419  1
  H  H678  1  0.037547  0.416110  0.707419  1
  H  H679  1  0.852309  0.767191  0.231108  1
  H  H680  1  0.963917  0.378799  0.731108  1
  N  N681  1  0.047000  0.213500  0.759700  1
  N  N682  1  0.046200  0.712700  0.259700  1
  N  N683  1  0.670500  0.415300  0.877200  1
  N  N684  1  0.961900  0.206700  0.377200  1
  N  N685  1  0.424800  0.478700  0.488300  1
  N  N686  1  0.509600  0.063500  0.988300  1
  N  N687  1  0.459600  0.415300  0.348300  1
  N  N688  1  0.433000  0.888700  0.848300  1
  N  N689  1  0.613460  0.979640  0.215100  1
  N  N690  1  0.735460  0.601640  0.715100  1
  N  N691  1  0.040100  0.108300  0.612600  1
  N  N692  1  0.004300  0.572500  0.112600  1
  N  N693  1  0.477400  0.006700  0.417700  1
  N  N694  1  0.911000  0.940300  0.917700  1
  N  N695  1  0.077500  0.268000  0.665300  1
  N  N696  1  0.897300  0.587800  0.165300  1
  N  N697  1  0.314700  0.387900  0.369400  1
  N  N698  1  0.481500  0.054700  0.869400  1
  N  N699  1  0.505200  0.024400  0.615000  1
  N  N700  1  0.090600  0.109800  0.115000  1
  N  N701  1  0.024960  0.059040  0.713800  1
  N  N702  1  0.154760  0.688840  0.213800  1
  N  N703  1  0.569500  0.503700  0.457400  1
  N  N704  1  0.453700  0.887900  0.957400  1
  N  N705  1  0.844500  0.362500  0.423000  1
  N  N706  1  0.560500  0.578500  0.923000  1
  N  N707  1  0.420400  0.290300  0.456300  1
  N  N708  1  0.666000  0.035900  0.956300  1
  N  N709  1  0.753900  0.951900  0.540000  1
  N  N710  1  0.088100  0.786100  0.040000  1
  O  O711  1  0.558300  0.244400  0.409300  1
  O  O712  1  0.664900  0.851000  0.909300  1
  O  O713  1  0.759670  0.160630  0.643900  1
  O  O714  1  0.983270  0.884230  0.143900  1
  O  O715  1  0.676400  0.737300  0.217300  1
  O  O716  1  0.980000  0.540900  0.717300  1
  O  O717  1  0.814000  0.688200  0.388400  1
  O  O718  1  0.200200  0.574400  0.888400  1
  Pd  Pd719  1  0.045560  0.160910  0.686630  1
  Pd  Pd720  1  0.025720  0.641070  0.186630  1
  Pd  Pd721  1  0.441350  0.447190  0.416800  1
  Pd  Pd722  1  0.469610  0.975450  0.916800  1
