# generated using pymatgen
data_CuH10C13NO5
_symmetry_space_group_name_H-M   'P 1'
_cell_length_a   20.12920000
_cell_length_b   21.75280000
_cell_length_c   22.52860000
_cell_angle_alpha   107.99140000
_cell_angle_beta   99.93150000
_cell_angle_gamma   108.12840000
_symmetry_Int_Tables_number   1
_chemical_formula_structural   CuH10C13NO5
_chemical_formula_sum   'Cu12 H120 C156 N12 O60'
_cell_volume   8513.75394934
_cell_formula_units_Z   12
loop_
 _symmetry_equiv_pos_site_id
 _symmetry_equiv_pos_as_xyz
  1  'x, y, z'
loop_
 _atom_site_type_symbol
 _atom_site_label
 _atom_site_symmetry_multiplicity
 _atom_site_fract_x
 _atom_site_fract_y
 _atom_site_fract_z
 _atom_site_occupancy
  Cu  Cu1  1  0.465670  0.081730  0.276800  1.0
  Cu  Cu2  1  0.534330  0.918270  0.723200  1.0
  Cu  Cu3  1  0.480920  0.153920  0.400490  1.0
  Cu  Cu4  1  0.519080  0.846080  0.599510  1.0
  Cu  Cu5  1  0.828060  0.077060  0.158980  1.0
  Cu  Cu6  1  0.171940  0.922940  0.841020  1.0
  Cu  Cu7  1  0.607510  0.307150  0.063330  1.0
  Cu  Cu8  1  0.392490  0.692850  0.936670  1.0
  Cu  Cu9  1  0.954760  0.143580  0.250250  1.0
  Cu  Cu10  1  0.045240  0.856420  0.749750  1.0
  Cu  Cu11  1  0.669670  0.445330  0.118370  1.0
  Cu  Cu12  1  0.330330  0.554670  0.881630  1.0
  H  H13  1  0.379800  0.876700  0.283800  1.0
  H  H14  1  0.620200  0.123300  0.716200  1.0
  H  H15  1  0.240800  0.025100  0.187400  1.0
  H  H16  1  0.759200  0.974900  0.812600  1.0
  H  H17  1  0.685400  0.099300  0.285700  1.0
  H  H18  1  0.314600  0.900700  0.714300  1.0
  H  H19  1  0.092300  0.953900  0.008400  1.0
  H  H20  1  0.907700  0.046100  0.991600  1.0
  H  H21  1  0.614800  0.473900  0.301100  1.0
  H  H22  1  0.385200  0.526100  0.698900  1.0
  H  H23  1  0.543800  0.262200  0.222100  1.0
  H  H24  1  0.456200  0.737800  0.777900  1.0
  H  H25  1  0.545300  0.361800  0.406200  1.0
  H  H26  1  0.454700  0.638200  0.593800  1.0
  H  H27  1  0.359400  0.721000  0.122600  1.0
  H  H28  1  0.640600  0.279000  0.877400  1.0
  H  H29  1  0.906100  0.917000  0.059200  1.0
  H  H30  1  0.093900  0.083000  0.940800  1.0
  H  H31  1  0.434100  0.989100  0.475400  1.0
  H  H32  1  0.565900  0.010900  0.524600  1.0
  H  H33  1  0.897900  0.842600  0.870400  1.0
  H  H34  1  0.102100  0.157400  0.129600  1.0
  H  H35  1  0.802900  0.864900  0.132100  1.0
  H  H36  1  0.197100  0.135100  0.867900  1.0
  H  H37  1  0.882600  0.176700  0.417900  1.0
  H  H38  1  0.117400  0.823300  0.582100  1.0
  H  H39  1  0.258000  0.147100  0.368100  1.0
  H  H40  1  0.742000  0.852900  0.631900  1.0
  H  H41  1  0.711100  0.191100  0.477900  1.0
  H  H42  1  0.288900  0.808900  0.522100  1.0
  H  H43  1  0.610000  0.717500  0.028100  1.0
  H  H44  1  0.390000  0.282500  0.971900  1.0
  H  H45  1  0.353500  0.779400  0.408300  1.0
  H  H46  1  0.646500  0.220600  0.591700  1.0
  H  H47  1  0.397200  0.887300  0.494000  1.0
  H  H48  1  0.602800  0.112700  0.506000  1.0
  H  H49  1  0.838700  0.854000  0.950200  1.0
  H  H50  1  0.161300  0.146000  0.049800  1.0
  H  H51  1  0.784700  0.256600  0.139700  1.0
  H  H52  1  0.215300  0.743400  0.860300  1.0
  H  H53  1  0.518300  0.507500  0.943700  1.0
  H  H54  1  0.481700  0.492500  0.056300  1.0
  H  H55  1  0.068800  0.067600  0.224600  1.0
  H  H56  1  0.931200  0.932400  0.775400  1.0
  H  H57  1  0.247600  0.620900  0.219800  1.0
  H  H58  1  0.752400  0.379100  0.780200  1.0
  H  H59  1  0.237300  0.513800  0.036100  1.0
  H  H60  1  0.762700  0.486200  0.963900  1.0
  H  H61  1  0.140100  0.141400  0.331200  1.0
  H  H62  1  0.859900  0.858600  0.668800  1.0
  H  H63  1  0.729200  0.603600  0.048600  1.0
  H  H64  1  0.270800  0.396400  0.951400  1.0
  H  H65  1  0.797600  0.281200  0.566300  1.0
  H  H66  1  0.202400  0.718800  0.433700  1.0
  H  H67  1  0.853000  0.276700  0.621300  1.0
  H  H68  1  0.147000  0.723300  0.378700  1.0
  H  H69  1  0.779800  0.211900  0.579200  1.0
  H  H70  1  0.220200  0.788100  0.420800  1.0
  H  H71  1  0.989100  0.351600  0.264000  1.0
  H  H72  1  0.010900  0.648400  0.736000  1.0
  H  H73  1  0.929600  0.758800  0.155300  1.0
  H  H74  1  0.070400  0.241200  0.844700  1.0
  H  H75  1  0.883900  0.464800  0.215100  1.0
  H  H76  1  0.116100  0.535200  0.784900  1.0
  H  H77  1  0.625900  0.501600  0.989100  1.0
  H  H78  1  0.374100  0.498400  0.010900  1.0
  H  H79  1  0.011500  0.967800  0.246300  1.0
  H  H80  1  0.988500  0.032200  0.753700  1.0
  H  H81  1  0.200700  0.520000  0.130200  1.0
  H  H82  1  0.799300  0.480000  0.869800  1.0
  H  H83  1  0.550900  0.447700  0.476600  1.0
  H  H84  1  0.449100  0.552300  0.523400  1.0
  H  H85  1  0.598800  0.527800  0.516100  1.0
  H  H86  1  0.401200  0.472200  0.483900  1.0
  H  H87  1  0.636500  0.474500  0.497700  1.0
  H  H88  1  0.363500  0.525500  0.502300  1.0
  H  H89  1  0.995000  0.548600  0.244200  1.0
  H  H90  1  0.005000  0.451400  0.755800  1.0
  H  H91  1  0.059200  0.590700  0.309700  1.0
  H  H92  1  0.940800  0.409300  0.690300  1.0
  H  H93  1  0.978000  0.563800  0.311400  1.0
  H  H94  1  0.022000  0.436200  0.688600  1.0
  H  H95  1  0.000700  0.503900  0.381500  1.0
  H  H96  1  0.999300  0.496100  0.618500  1.0
  H  H97  1  0.083500  0.523800  0.385100  1.0
  H  H98  1  0.916500  0.476200  0.614900  1.0
  H  H99  1  0.030900  0.444800  0.360200  1.0
  H  H100  1  0.969100  0.555200  0.639800  1.0
  H  H101  1  0.873800  0.145200  0.536100  1.0
  H  H102  1  0.126200  0.854800  0.463900  1.0
  H  H103  1  0.929000  0.217400  0.590500  1.0
  H  H104  1  0.071000  0.782600  0.409500  1.0
  H  H105  1  0.935100  0.195800  0.519200  1.0
  H  H106  1  0.064900  0.804200  0.480800  1.0
  H  H107  1  0.025200  0.860500  0.225200  1.0
  H  H108  1  0.974800  0.139500  0.774800  1.0
  H  H109  1  0.529800  0.526100  0.363000  1.0
  H  H110  1  0.470200  0.473900  0.637000  1.0
  H  H111  1  0.542600  0.563500  0.438100  1.0
  H  H112  1  0.457400  0.436500  0.561900  1.0
  H  H113  1  0.488200  0.485000  0.400500  1.0
  H  H114  1  0.511800  0.515000  0.599500  1.0
  H  H115  1  0.708300  0.544200  0.449600  1.0
  H  H116  1  0.291700  0.455800  0.550400  1.0
  H  H117  1  0.670300  0.598000  0.457700  1.0
  H  H118  1  0.329700  0.402000  0.542300  1.0
  H  H119  1  0.672900  0.555700  0.388300  1.0
  H  H120  1  0.327100  0.444300  0.611700  1.0
  H  H121  1  0.889300  0.324700  0.516900  1.0
  H  H122  1  0.110700  0.675300  0.483100  1.0
  H  H123  1  0.945200  0.289300  0.504100  1.0
  H  H124  1  0.054800  0.710700  0.495900  1.0
  H  H125  1  0.946500  0.328200  0.575900  1.0
  H  H126  1  0.053500  0.671800  0.424100  1.0
  H  H127  1  0.090100  0.438200  0.269400  1.0
  H  H128  1  0.909900  0.561800  0.730600  1.0
  H  H129  1  0.127700  0.520000  0.293600  1.0
  H  H130  1  0.872300  0.480000  0.706400  1.0
  H  H131  1  0.076600  0.475400  0.221700  1.0
  H  H132  1  0.923400  0.524600  0.778300  1.0
  C  C133  1  0.383500  0.878900  0.326100  1.0
  C  C134  1  0.616500  0.121100  0.673900  1.0
  C  C135  1  0.147600  0.039600  0.195900  1.0
  C  C136  1  0.852400  0.960400  0.804100  1.0
  C  C137  1  0.361800  0.818200  0.337000  1.0
  C  C138  1  0.638200  0.181800  0.663000  1.0
  C  C139  1  0.824500  0.119700  0.290000  1.0
  C  C140  1  0.175500  0.880300  0.710000  1.0
  C  C141  1  0.898500  0.995200  0.200900  1.0
  C  C142  1  0.101500  0.004800  0.799100  1.0
  C  C143  1  0.005700  0.942100  0.044200  1.0
  C  C144  1  0.994300  0.057900  0.955800  1.0
  C  C145  1  0.039500  0.893200  0.879800  1.0
  C  C146  1  0.960500  0.106800  0.120200  1.0
  C  C147  1  0.220300  0.047500  0.216800  1.0
  C  C148  1  0.779700  0.952500  0.783200  1.0
  C  C149  1  0.340200  0.098700  0.302350  1.0
  C  C150  1  0.659800  0.901300  0.697650  1.0
  C  C151  1  0.540700  0.301300  0.314900  1.0
  C  C152  1  0.459300  0.698700  0.685100  1.0
  C  C153  1  0.606100  0.132200  0.364670  1.0
  C  C154  1  0.393900  0.867800  0.635330  1.0
  C  C155  1  0.323800  0.618000  0.008900  1.0
  C  C156  1  0.676200  0.382000  0.991100  1.0
  C  C157  1  0.512900  0.233400  0.323100  1.0
  C  C158  1  0.487100  0.766600  0.676900  1.0
  C  C159  1  0.435500  0.009600  0.364900  1.0
  C  C160  1  0.564500  0.990400  0.635100  1.0
  C  C161  1  0.686300  0.143700  0.379260  1.0
  C  C162  1  0.313700  0.856300  0.620740  1.0
  C  C163  1  0.603200  0.371400  0.191800  1.0
  C  C164  1  0.396800  0.628600  0.808200  1.0
  C  C165  1  0.715400  0.122100  0.328700  1.0
  C  C166  1  0.284600  0.877900  0.671300  1.0
  C  C167  1  0.261900  0.088600  0.281000  1.0
  C  C168  1  0.738100  0.911400  0.719000  1.0
  C  C169  1  0.788700  0.134900  0.342900  1.0
  C  C170  1  0.211300  0.865100  0.657100  1.0
  C  C171  1  0.041500  0.934500  0.996400  1.0
  C  C172  1  0.958500  0.065500  0.003600  1.0
  C  C173  1  0.410800  0.943200  0.377400  1.0
  C  C174  1  0.589200  0.056800  0.622600  1.0
  C  C175  1  0.001800  0.898600  0.931800  1.0
  C  C176  1  0.998200  0.101400  0.068200  1.0
  C  C177  1  0.583600  0.368100  0.252500  1.0
  C  C178  1  0.416400  0.631900  0.747500  1.0
  C  C179  1  0.596600  0.431000  0.305300  1.0
  C  C180  1  0.403400  0.569000  0.694700  1.0
  C  C181  1  0.582200  0.429400  0.363800  1.0
  C  C182  1  0.417800  0.570600  0.636200  1.0
  C  C183  1  0.804600  0.188800  0.459200  1.0
  C  C184  1  0.195400  0.811200  0.540800  1.0
  C  C185  1  0.554200  0.303500  0.257300  1.0
  C  C186  1  0.445800  0.696500  0.742700  1.0
  C  C187  1  0.554700  0.364200  0.367800  1.0
  C  C188  1  0.445300  0.635800  0.632200  1.0
  C  C189  1  0.328500  0.679900  0.124000  1.0
  C  C190  1  0.671500  0.320100  0.876000  1.0
  C  C191  1  0.302200  0.617600  0.068800  1.0
  C  C192  1  0.697800  0.382400  0.931200  1.0
  C  C193  1  0.929800  0.912000  0.027000  1.0
  C  C194  1  0.070200  0.088000  0.973000  1.0
  C  C195  1  0.415900  0.945900  0.440500  1.0
  C  C196  1  0.584100  0.054100  0.559500  1.0
  C  C197  1  0.925000  0.867700  0.914100  1.0
  C  C198  1  0.075000  0.132300  0.085900  1.0
  C  C199  1  0.886900  0.224500  0.203100  1.0
  C  C200  1  0.113100  0.775500  0.796900  1.0
  C  C201  1  0.847600  0.864400  0.150900  1.0
  C  C202  1  0.152400  0.135600  0.849100  1.0
  C  C203  1  0.755800  0.366600  0.139900  1.0
  C  C204  1  0.244200  0.633400  0.860100  1.0
  C  C205  1  0.833000  0.168300  0.408600  1.0
  C  C206  1  0.167000  0.831700  0.591400  1.0
  C  C207  1  0.679600  0.670700  0.043500  1.0
  C  C208  1  0.320400  0.329300  0.956500  1.0
  C  C209  1  0.231000  0.121400  0.324400  1.0
  C  C210  1  0.769000  0.878600  0.675600  1.0
  C  C211  1  0.731200  0.176900  0.444400  1.0
  C  C212  1  0.268800  0.823100  0.555600  1.0
  C  C213  1  0.613600  0.674200  0.019300  1.0
  C  C214  1  0.386400  0.325800  0.980700  1.0
  C  C215  1  0.367400  0.820500  0.400700  1.0
  C  C216  1  0.632600  0.179500  0.599300  1.0
  C  C217  1  0.596300  0.496000  0.418800  1.0
  C  C218  1  0.403700  0.504000  0.581200  1.0
  C  C219  1  0.394000  0.884900  0.451700  1.0
  C  C220  1  0.606000  0.115100  0.548300  1.0
  C  C221  1  0.309600  0.682300  0.181500  1.0
  C  C222  1  0.690400  0.317700  0.818500  1.0
  C  C223  1  0.889500  0.874600  0.961900  1.0
  C  C224  1  0.110500  0.125400  0.038100  1.0
  C  C225  1  0.480000  0.616800  0.955000  1.0
  C  C226  1  0.520000  0.383200  0.045000  1.0
  C  C227  1  0.824500  0.297200  0.168200  1.0
  C  C228  1  0.175500  0.702800  0.831800  1.0
  C  C229  1  0.905000  0.926500  0.190800  1.0
  C  C230  1  0.095000  0.073500  0.809200  1.0
  C  C231  1  0.558800  0.548600  0.969800  1.0
  C  C232  1  0.441200  0.451400  0.030200  1.0
  C  C233  1  0.553000  0.613300  0.982000  1.0
  C  C234  1  0.447000  0.386700  0.018000  1.0
  C  C235  1  0.117400  0.073300  0.238600  1.0
  C  C236  1  0.882600  0.926700  0.761400  1.0
  C  C237  1  0.886100  0.292600  0.204900  1.0
  C  C238  1  0.113900  0.707400  0.795100  1.0
  C  C239  1  0.823900  0.361600  0.174900  1.0
  C  C240  1  0.176100  0.638400  0.825100  1.0
  C  C241  1  0.261000  0.620200  0.182200  1.0
  C  C242  1  0.739000  0.379800  0.817800  1.0
  C  C243  1  0.254800  0.556400  0.071600  1.0
  C  C244  1  0.745200  0.443600  0.928400  1.0
  C  C245  1  0.159500  0.116200  0.302800  1.0
  C  C246  1  0.840500  0.883800  0.697200  1.0
  C  C247  1  0.856000  0.224500  0.529600  1.0
  C  C248  1  0.144000  0.775500  0.470400  1.0
  C  C249  1  0.856100  0.800700  0.138300  1.0
  C  C250  1  0.143900  0.199300  0.861700  1.0
  C  C251  1  0.684800  0.605900  0.032100  1.0
  C  C252  1  0.315200  0.394100  0.967900  1.0
  C  C253  1  0.818100  0.251000  0.578600  1.0
  C  C254  1  0.181900  0.749000  0.421400  1.0
  C  C255  1  0.947400  0.354700  0.242100  1.0
  C  C256  1  0.052600  0.645300  0.757900  1.0
  C  C257  1  0.923400  0.801000  0.165300  1.0
  C  C258  1  0.076600  0.199000  0.834700  1.0
  C  C259  1  0.949400  0.419700  0.248000  1.0
  C  C260  1  0.050600  0.580300  0.752000  1.0
  C  C261  1  0.884900  0.421600  0.212700  1.0
  C  C262  1  0.115100  0.578400  0.787300  1.0
  C  C263  1  0.623300  0.545000  0.995800  1.0
  C  C264  1  0.376700  0.455000  0.004200  1.0
  C  C265  1  0.972500  0.925900  0.219100  1.0
  C  C266  1  0.027500  0.074100  0.780900  1.0
  C  C267  1  0.233900  0.560100  0.129200  1.0
  C  C268  1  0.766100  0.439900  0.870800  1.0
  C  C269  1  0.016300  0.486800  0.289200  1.0
  C  C270  1  0.983700  0.513200  0.710800  1.0
  C  C271  1  0.595600  0.485500  0.483400  1.0
  C  C272  1  0.404400  0.514500  0.516600  1.0
  C  C273  1  0.011700  0.553300  0.288600  1.0
  C  C274  1  0.988300  0.446700  0.711400  1.0
  C  C275  1  0.034600  0.490200  0.361000  1.0
  C  C276  1  0.965400  0.509800  0.639000  1.0
  C  C277  1  0.901900  0.193400  0.545000  1.0
  C  C278  1  0.098100  0.806600  0.455000  1.0
  C  C279  1  0.981000  0.861600  0.206200  1.0
  C  C280  1  0.019000  0.138400  0.793800  1.0
  C  C281  1  0.533300  0.519900  0.403700  1.0
  C  C282  1  0.466700  0.480100  0.596300  1.0
  C  C283  1  0.668600  0.553800  0.429600  1.0
  C  C284  1  0.331400  0.446200  0.570400  1.0
  C  C285  1  0.915700  0.299700  0.531900  1.0
  C  C286  1  0.084300  0.700300  0.468100  1.0
  C  C287  1  0.084400  0.479300  0.266200  1.0
  C  C288  1  0.915600  0.520700  0.733800  1.0
  N  N289  1  0.331400  0.749200  0.286500  1.0
  N  N290  1  0.668600  0.250800  0.713500  1.0
  N  N291  1  0.042200  0.982200  0.112930  1.0
  N  N292  1  0.957800  0.017800  0.887070  1.0
  N  N293  1  0.110900  0.996200  0.128130  1.0
  N  N294  1  0.889100  0.003800  0.871870  1.0
  N  N295  1  0.340000  0.749300  0.232800  1.0
  N  N296  1  0.660000  0.250700  0.767200  1.0
  N  N297  1  0.799100  0.733900  0.098800  1.0
  N  N298  1  0.200900  0.266100  0.901200  1.0
  N  N299  1  0.738200  0.736300  0.082000  1.0
  N  N300  1  0.261800  0.263700  0.918000  1.0
  O  O301  1  0.364640  0.071640  0.258210  1.0
  O  O302  1  0.635360  0.928360  0.741790  1.0
  O  O303  1  0.459200  0.031200  0.177660  1.0
  O  O304  1  0.540800  0.968800  0.822340  1.0
  O  O305  1  0.583450  0.156970  0.411130  1.0
  O  O306  1  0.416550  0.843030  0.588870  1.0
  O  O307  1  0.733390  0.012800  0.074810  1.0
  O  O308  1  0.266610  0.987200  0.925190  1.0
  O  O309  1  0.568090  0.097400  0.305220  1.0
  O  O310  1  0.431910  0.902600  0.694780  1.0
  O  O311  1  0.052300  0.206000  0.330830  1.0
  O  O312  1  0.947700  0.794000  0.669170  1.0
  O  O313  1  0.375570  0.134580  0.362150  1.0
  O  O314  1  0.624430  0.865420  0.637850  1.0
  O  O315  1  0.499700  0.221100  0.499830  1.0
  O  O316  1  0.500300  0.778900  0.500170  1.0
  O  O317  1  0.108710  0.923190  0.898880  1.0
  O  O318  1  0.891290  0.076810  0.101120  1.0
  O  O319  1  0.999840  0.861590  0.820610  1.0
  O  O320  1  0.000160  0.138410  0.179390  1.0
  O  O321  1  0.834140  0.169560  0.161950  1.0
  O  O322  1  0.165860  0.830440  0.838050  1.0
  O  O323  1  0.784920  0.090200  0.231880  1.0
  O  O324  1  0.215080  0.909800  0.768120  1.0
  O  O325  1  0.451520  0.066540  0.412510  1.0
  O  O326  1  0.548480  0.933460  0.587490  1.0
  O  O327  1  0.439750  0.003940  0.308120  1.0
  O  O328  1  0.560250  0.996060  0.691880  1.0
  O  O329  1  0.840190  0.992940  0.166790  1.0
  O  O330  1  0.159810  0.007060  0.833210  1.0
  O  O331  1  0.510200  0.236880  0.379430  1.0
  O  O332  1  0.489800  0.763120  0.620570  1.0
  O  O333  1  0.950740  0.049040  0.240570  1.0
  O  O334  1  0.049260  0.950960  0.759430  1.0
  O  O335  1  0.494660  0.177570  0.273680  1.0
  O  O336  1  0.505340  0.822430  0.726320  1.0
  O  O337  1  0.705810  0.311010  0.100660  1.0
  O  O338  1  0.294190  0.688990  0.899340  1.0
  O  O339  1  0.301580  0.559700  0.961460  1.0
  O  O340  1  0.698420  0.440300  0.038540  1.0
  O  O341  1  0.481330  0.677310  0.965790  1.0
  O  O342  1  0.518670  0.322690  0.034210  1.0
  O  O343  1  0.426470  0.559480  0.924480  1.0
  O  O344  1  0.573530  0.440520  0.075520  1.0
  O  O345  1  0.587500  0.314130  0.146380  1.0
  O  O346  1  0.412500  0.685870  0.853620  1.0
  O  O347  1  0.893430  0.140100  0.308430  1.0
  O  O348  1  0.106570  0.859900  0.691570  1.0
  O  O349  1  0.755390  0.427880  0.153650  1.0
  O  O350  1  0.244610  0.572120  0.846350  1.0
  O  O351  1  0.361890  0.676510  0.010720  1.0
  O  O352  1  0.638110  0.323490  0.989280  1.0
  O  O353  1  0.633000  0.431010  0.190640  1.0
  O  O354  1  0.367000  0.568990  0.809360  1.0
  O  O355  1  0.939300  0.226300  0.243500  1.0
  O  O356  1  0.060700  0.773700  0.756500  1.0
  O  O357  1  0.726800  0.557590  0.170140  1.0
  O  O358  1  0.273200  0.442410  0.829860  1.0
  O  O359  1  0.555560  0.196810  0.013240  1.0
  O  O360  1  0.444440  0.803190  0.986760  1.0
