# generated using pymatgen
data_P2PdC43S3IN2O11F9
_symmetry_space_group_name_H-M   'P 1'
_cell_length_a   9.50100000
_cell_length_b   13.55705560
_cell_length_c   49.07200000
_cell_angle_alpha   93.20292851
_cell_angle_beta   90.00000000
_cell_angle_gamma   110.51226891
_symmetry_Int_Tables_number   1
_chemical_formula_structural   P2PdC43S3IN2O11F9
_chemical_formula_sum   'P8 Pd4 C172 S12 I4 N8 O44 F36'
_cell_volume   5909.45130808
_cell_formula_units_Z   4
loop_
 _symmetry_equiv_pos_site_id
 _symmetry_equiv_pos_as_xyz
  1  'x, y, z'
loop_
 _atom_site_type_symbol
 _atom_site_label
 _atom_site_symmetry_multiplicity
 _atom_site_fract_x
 _atom_site_fract_y
 _atom_site_fract_z
 _atom_site_occupancy
  C  C1  1  0.733100  0.846200  0.352800  1
  C  C2  1  0.886900  0.153800  0.147200  1
  C  C3  1  0.266900  0.153800  0.647200  1
  C  C4  1  0.113100  0.846200  0.852800  1
  C  C5  1  0.882000  0.112000  0.432900  1
  C  C6  1  0.770000  0.888000  0.067100  1
  C  C7  1  0.118000  0.888000  0.567100  1
  C  C8  1  0.230000  0.112000  0.932900  1
  C  C9  1  0.831000  0.198000  0.328000  1
  C  C10  1  0.633000  0.802000  0.172000  1
  C  C11  1  0.169000  0.802000  0.672000  1
  C  C12  1  0.367000  0.198000  0.828000  1
  C  C13  1  0.376000  0.604000  0.526000  1
  C  C14  1  0.772000  0.396000  0.974000  1
  C  C15  1  0.624000  0.396000  0.474000  1
  C  C16  1  0.228000  0.604000  0.026000  1
  C  C17  1  0.522000  0.654000  0.530000  1
  C  C18  1  0.868000  0.346000  0.970000  1
  C  C19  1  0.478000  0.346000  0.470000  1
  C  C20  1  0.132000  0.654000  0.030000  1
  C  C21  1  0.587000  0.720000  0.553000  1
  C  C22  1  0.867000  0.280000  0.947000  1
  C  C23  1  0.413000  0.280000  0.447000  1
  C  C24  1  0.133000  0.720000  0.053000  1
  C  C25  1  0.188000  0.260000  0.739800  1
  C  C26  1  0.928000  0.740000  0.760200  1
  C  C27  1  0.812000  0.740000  0.260200  1
  C  C28  1  0.072000  0.260000  0.239800  1
  C  C29  1  0.307000  0.222000  0.728600  1
  C  C30  1  0.085000  0.778000  0.771400  1
  C  C31  1  0.693000  0.778000  0.271400  1
  C  C32  1  0.915000  0.222000  0.228600  1
  C  C33  1  0.336000  0.116000  0.731700  1
  C  C34  1  0.220000  0.884000  0.768300  1
  C  C35  1  0.664000  0.884000  0.268300  1
  C  C36  1  0.780000  0.116000  0.231700  1
  C  C37  1  0.396700  0.959400  0.392400  1.0
  C  C38  1  0.437300  0.040600  0.107600  1.0
  C  C39  1  0.603300  0.040600  0.607600  1.0
  C  C40  1  0.562700  0.959400  0.892400  1.0
  C  C41  1  0.441200  0.062400  0.381500  1.0
  C  C42  1  0.378800  0.937600  0.118500  1.0
  C  C43  1  0.558800  0.937600  0.618500  1.0
  C  C44  1  0.621200  0.062400  0.881500  1.0
  C  C45  1  0.328900  0.099800  0.374300  1.0
  C  C46  1  0.229100  0.900200  0.125700  1.0
  C  C47  1  0.671100  0.900200  0.625700  1.0
  C  C48  1  0.770900  0.099800  0.874300  1.0
  C  C49  1  0.190900  0.037800  0.377800  1.0
  C  C50  1  0.153100  0.962200  0.122200  1.0
  C  C51  1  0.809100  0.962200  0.622200  1.0
  C  C52  1  0.846900  0.037800  0.877800  1.0
  C  C53  1  0.150700  0.939400  0.388500  1.0
  C  C54  1  0.211300  0.060600  0.111500  1.0
  C  C55  1  0.849300  0.060600  0.611500  1.0
  C  C56  1  0.788700  0.939400  0.888500  1.0
  C  C57  1  0.378800  0.205600  0.361000  1.0
  C  C58  1  0.173200  0.794400  0.139000  1.0
  C  C59  1  0.621200  0.794400  0.639000  1.0
  C  C60  1  0.826800  0.205600  0.861000  1.0
  C  C61  1  0.515300  0.284600  0.367100  1.0
  C  C62  1  0.230700  0.715400  0.132900  1.0
  C  C63  1  0.484700  0.715400  0.632900  1.0
  C  C64  1  0.769300  0.284600  0.867100  1.0
  C  C65  1  0.550200  0.374400  0.353000  1.0
  C  C66  1  0.175800  0.625600  0.147000  1.0
  C  C67  1  0.449800  0.625600  0.647000  1.0
  C  C68  1  0.824200  0.374400  0.853000  1.0
  C  C69  1  0.458600  0.385200  0.333200  1.0
  C  C70  1  0.073400  0.614800  0.166800  1.0
  C  C71  1  0.541400  0.614800  0.666800  1.0
  C  C72  1  0.926600  0.385200  0.833200  1.0
  C  C73  1  0.321200  0.312400  0.327200  1.0
  C  C74  1  0.008800  0.687600  0.172800  1.0
  C  C75  1  0.678800  0.687600  0.672800  1.0
  C  C76  1  0.991200  0.312400  0.827200  1.0
  C  C77  1  0.281000  0.218000  0.341600  1.0
  C  C78  1  0.063000  0.782000  0.158400  1.0
  C  C79  1  0.719000  0.782000  0.658400  1.0
  C  C80  1  0.937000  0.218000  0.841600  1.0
  C  C81  1  0.269000  0.716000  0.349900  1.0
  C  C82  1  0.553000  0.284000  0.150100  1.0
  C  C83  1  0.731000  0.284000  0.650100  1.0
  C  C84  1  0.447000  0.716000  0.849900  1.0
  C  C85  1  0.257600  0.693200  0.322500  1.0
  C  C86  1  0.564400  0.306800  0.177500  1.0
  C  C87  1  0.742400  0.306800  0.677500  1.0
  C  C88  1  0.435600  0.693200  0.822500  1.0
  C  C89  1  0.113900  0.661800  0.310500  1.0
  C  C90  1  0.452100  0.338200  0.189500  1.0
  C  C91  1  0.886100  0.338200  0.689500  1.0
  C  C92  1  0.547900  0.661800  0.810500  1.0
  C  C93  1  0.999600  0.657200  0.326700  1.0
  C  C94  1  0.342400  0.342800  0.173300  1.0
  C  C95  1  0.000400  0.342800  0.673300  1.0
  C  C96  1  0.657600  0.657200  0.826700  1.0
  C  C97  1  0.021000  0.678000  0.353700  1.0
  C  C98  1  0.343000  0.322000  0.146300  1.0
  C  C99  1  0.979000  0.322000  0.646300  1.0
  C  C100  1  0.657000  0.678000  0.853700  1.0
  C  C101  1  0.082800  0.623600  0.280400  1.0
  C  C102  1  0.459200  0.376400  0.219600  1.0
  C  C103  1  0.917200  0.376400  0.719600  1.0
  C  C104  1  0.540800  0.623600  0.780400  1.0
  C  C105  1  0.193500  0.665000  0.261100  1.0
  C  C106  1  0.528500  0.335000  0.238900  1.0
  C  C107  1  0.806500  0.335000  0.738900  1.0
  C  C108  1  0.471500  0.665000  0.761100  1.0
  C  C109  1  0.164600  0.625200  0.234600  1.0
  C  C110  1  0.539400  0.374800  0.265400  1.0
  C  C111  1  0.835400  0.374800  0.765400  1.0
  C  C112  1  0.460600  0.625200  0.734600  1.0
  C  C113  1  0.488200  0.456400  0.271900  1.0
  C  C114  1  0.031800  0.543600  0.228100  1.0
  C  C115  1  0.511800  0.543600  0.728100  1.0
  C  C116  1  0.968200  0.456400  0.771900  1.0
  C  C117  1  0.412000  0.486000  0.254600  1.0
  C  C118  1  0.926000  0.514000  0.245400  1.0
  C  C119  1  0.588000  0.514000  0.745400  1.0
  C  C120  1  0.074000  0.486000  0.754600  1.0
  C  C121  1  0.959000  0.546000  0.273300  1.0
  C  C122  1  0.413000  0.454000  0.226700  1.0
  C  C123  1  0.041000  0.454000  0.726700  1.0
  C  C124  1  0.587000  0.546000  0.773300  1.0
  C  C125  1  0.220000  0.942000  0.456300  1.0
  C  C126  1  0.278000  0.058000  0.043700  1.0
  C  C127  1  0.780000  0.058000  0.543700  1.0
  C  C128  1  0.722000  0.942000  0.956300  1.0
  C  C129  1  0.215000  0.988000  0.482100  1.0
  C  C130  1  0.227000  0.012000  0.017900  1.0
  C  C131  1  0.785000  0.012000  0.517900  1.0
  C  C132  1  0.773000  0.988000  0.982100  1.0
  C  C133  1  0.375000  0.810000  0.471700  1.0
  C  C134  1  0.565000  0.190000  0.028300  1.0
  C  C135  1  0.625000  0.190000  0.528300  1.0
  C  C136  1  0.435000  0.810000  0.971700  1.0
  C  C137  1  0.532000  0.864000  0.456500  1.0
  C  C138  1  0.668000  0.136000  0.043500  1.0
  C  C139  1  0.468000  0.136000  0.543500  1.0
  C  C140  1  0.332000  0.864000  0.956500  1.0
  C  C141  1  0.054000  0.742000  0.473700  1.0
  C  C142  1  0.312000  0.258000  0.026300  1.0
  C  C143  1  0.946000  0.258000  0.526300  1.0
  C  C144  1  0.688000  0.742000  0.973700  1.0
  C  C145  1  0.925000  0.760000  0.462600  1.0
  C  C146  1  0.165000  0.240000  0.037400  1.0
  C  C147  1  0.075000  0.240000  0.537400  1.0
  C  C148  1  0.835000  0.760000  0.962600  1.0
  C  C149  1  0.237000  0.546000  0.442500  1.0
  C  C150  1  0.691000  0.454000  0.057500  1.0
  C  C151  1  0.763000  0.454000  0.557500  1.0
  C  C152  1  0.309000  0.546000  0.942500  1.0
  C  C153  1  0.417000  0.578000  0.433000  1.0
  C  C154  1  0.839000  0.422000  0.067000  1.0
  C  C155  1  0.583000  0.422000  0.567000  1.0
  C  C156  1  0.161000  0.578000  0.933000  1.0
  C  C157  1  0.938700  0.513400  0.423400  1.0
  C  C158  1  0.425300  0.486600  0.076600  1.0
  C  C159  1  0.061300  0.486600  0.576600  1.0
  C  C160  1  0.574700  0.513400  0.923400  1.0
  C  C161  1  0.835700  0.513400  0.405800  1.0
  C  C162  1  0.322300  0.486600  0.094200  1.0
  C  C163  1  0.164300  0.486600  0.594200  1.0
  C  C164  1  0.677700  0.513400  0.905800  1.0
  C  C165  1  0.182000  0.508000  0.386700  1.0
  C  C166  1  0.674000  0.492000  0.113300  1.0
  C  C167  1  0.818000  0.492000  0.613300  1.0
  C  C168  1  0.326000  0.508000  0.886700  1.0
  C  C169  1  0.152000  0.390000  0.389400  1.0
  C  C170  1  0.762000  0.610000  0.110600  1.0
  C  C171  1  0.848000  0.610000  0.610600  1.0
  C  C172  1  0.238000  0.390000  0.889400  1.0
  F  F173  1  0.620900  0.845800  0.335800  1
  F  F174  1  0.775100  0.154200  0.164200  1
  F  F175  1  0.379100  0.154200  0.664200  1
  F  F176  1  0.224900  0.845800  0.835800  1
  F  F177  1  0.797800  0.947600  0.364900  1
  F  F178  1  0.850200  0.052400  0.135100  1
  F  F179  1  0.202200  0.052400  0.635100  1
  F  F180  1  0.149800  0.947600  0.864900  1
  F  F181  1  0.838500  0.837000  0.337000  1
  F  F182  1  0.001500  0.163000  0.163000  1
  F  F183  1  0.161500  0.163000  0.663000  1
  F  F184  1  0.998500  0.837000  0.837000  1
  F  F185  1  0.985700  0.153400  0.417200  1
  F  F186  1  0.832300  0.846600  0.082800  1
  F  F187  1  0.014300  0.846600  0.582800  1
  F  F188  1  0.167700  0.153400  0.917200  1
  F  F189  1  0.923000  0.068000  0.451000  1
  F  F190  1  0.855000  0.932000  0.049000  1
  F  F191  1  0.077000  0.932000  0.549000  1
  F  F192  1  0.145000  0.068000  0.951000  1
  F  F193  1  0.783900  0.033800  0.416800  1
  F  F194  1  0.750100  0.966200  0.083200  1
  F  F195  1  0.216100  0.966200  0.583200  1
  F  F196  1  0.249900  0.033800  0.916800  1
  F  F197  1  0.891000  0.136000  0.314300  1
  F  F198  1  0.755000  0.864000  0.185700  1
  F  F199  1  0.109000  0.864000  0.685700  1
  F  F200  1  0.245000  0.136000  0.814300  1
  F  F201  1  0.702500  0.159000  0.331300  1
  F  F202  1  0.543500  0.841000  0.168700  1
  F  F203  1  0.297500  0.841000  0.668700  1
  F  F204  1  0.456500  0.159000  0.831300  1
  F  F205  1  0.904000  0.206000  0.347700  1
  F  F206  1  0.698000  0.794000  0.152300  1
  F  F207  1  0.096000  0.794000  0.652300  1
  F  F208  1  0.302000  0.206000  0.847700  1
  I  I209  1  0.523780  0.523760  0.312690  1.0
  I  I210  1  0.000020  0.476240  0.187310  1.0
  I  I211  1  0.476220  0.476240  0.687310  1.0
  I  I212  1  0.999980  0.523760  0.812690  1.0
  N  N213  1  0.253100  0.902200  0.396000  1.0
  N  N214  1  0.350900  0.097800  0.104000  1.0
  N  N215  1  0.746900  0.097800  0.604000  1.0
  N  N216  1  0.649100  0.902200  0.896000  1.0
  N  N217  1  0.154000  0.708000  0.366000  1.0
  N  N218  1  0.446000  0.292000  0.134000  1.0
  N  N219  1  0.846000  0.292000  0.634000  1.0
  N  N220  1  0.554000  0.708000  0.866000  1.0
  O  O221  1  0.555800  0.779600  0.390900  1
  O  O222  1  0.776200  0.220400  0.109100  1
  O  O223  1  0.444200  0.220400  0.609100  1
  O  O224  1  0.223800  0.779600  0.890900  1
  O  O225  1  0.631500  0.655000  0.362400  1
  O  O226  1  0.976500  0.345000  0.137600  1
  O  O227  1  0.368500  0.345000  0.637600  1
  O  O228  1  0.023500  0.655000  0.862400  1
  O  O229  1  0.808000  0.772000  0.394500  1
  O  O230  1  0.036000  0.228000  0.105500  1
  O  O231  1  0.192000  0.228000  0.605500  1
  O  O232  1  0.964000  0.772000  0.894500  1
  O  O233  1  0.896000  0.280000  0.460000  1
  O  O234  1  0.616000  0.720000  0.040000  1
  O  O235  1  0.104000  0.720000  0.540000  1
  O  O236  1  0.384000  0.280000  0.960000  1
  O  O237  1  0.748500  0.243000  0.418300  1
  O  O238  1  0.505500  0.757000  0.081700  1
  O  O239  1  0.251500  0.757000  0.581700  1
  O  O240  1  0.494500  0.243000  0.918300  1
  O  O241  1  0.640200  0.138400  0.458700  1
  O  O242  1  0.501800  0.861600  0.041300  1
  O  O243  1  0.359800  0.861600  0.541300  1
  O  O244  1  0.498200  0.138400  0.958700  1
  O  O245  1  0.795000  0.286000  0.286300  1
  O  O246  1  0.509000  0.714000  0.213700  1
  O  O247  1  0.205000  0.714000  0.713700  1
  O  O248  1  0.491000  0.286000  0.786300  1
  O  O249  1  0.825000  0.388000  0.325800  1
  O  O250  1  0.437000  0.612000  0.174200  1
  O  O251  1  0.175000  0.612000  0.674200  1
  O  O252  1  0.563000  0.388000  0.825800  1
  O  O253  1  0.053000  0.354000  0.306000  1
  O  O254  1  0.699000  0.646000  0.194000  1
  O  O255  1  0.947000  0.646000  0.694000  1
  O  O256  1  0.301000  0.354000  0.806000  1
  O  O257  1  0.598000  0.682000  0.513000  1
  O  O258  1  0.916000  0.318000  0.987000  1
  O  O259  1  0.402000  0.318000  0.487000  1
  O  O260  1  0.084000  0.682000  0.013000  1
  O  O261  1  0.410100  0.286200  0.716500  1
  O  O262  1  0.123900  0.713800  0.783500  1
  O  O263  1  0.589900  0.713800  0.283500  1
  O  O264  1  0.876100  0.286200  0.216500  1
  P  P265  1  0.214700  0.808200  0.453100  1.0
  P  P266  1  0.406500  0.191800  0.046900  1.0
  P  P267  1  0.785300  0.191800  0.546900  1.0
  P  P268  1  0.593500  0.808200  0.953100  1.0
  P  P269  1  0.137200  0.576200  0.417000  1.0
  P  P270  1  0.561000  0.423800  0.083000  1.0
  P  P271  1  0.862800  0.423800  0.583000  1.0
  P  P272  1  0.439000  0.576200  0.917000  1.0
  Pd  Pd273  1  0.193110  0.748820  0.408290  1.0
  Pd  Pd274  1  0.444290  0.251180  0.091710  1.0
  Pd  Pd275  1  0.806890  0.251180  0.591710  1.0
  Pd  Pd276  1  0.555710  0.748820  0.908290  1.0
  S  S277  1  0.675900  0.754800  0.378100  1
  S  S278  1  0.921100  0.245200  0.121900  1
  S  S279  1  0.324100  0.245200  0.621900  1
  S  S280  1  0.078900  0.754800  0.878100  1
  S  S281  1  0.782400  0.200800  0.442300  1
  S  S282  1  0.581600  0.799200  0.057700  1
  S  S283  1  0.217600  0.799200  0.557700  1
  S  S284  1  0.418400  0.200800  0.942300  1
  S  S285  1  0.892000  0.324000  0.311000  1
  S  S286  1  0.568000  0.676000  0.189000  1
  S  S287  1  0.108000  0.676000  0.689000  1
  S  S288  1  0.432000  0.324000  0.811000  1
