# generated using pymatgen
data_Ni2H25C71(N3F5)4
_symmetry_space_group_name_H-M   'P 1'
_cell_length_a   16.06500000
_cell_length_b   20.75800000
_cell_length_c   21.05900000
_cell_angle_alpha   103.63000000
_cell_angle_beta   94.83000000
_cell_angle_gamma   108.69000000
_symmetry_Int_Tables_number   1
_chemical_formula_structural   Ni2H25C71(N3F5)4
_chemical_formula_sum   'Ni8 H100 C284 N48 F80'
_cell_volume   6366.98042557
_cell_formula_units_Z   4
loop_
 _symmetry_equiv_pos_site_id
 _symmetry_equiv_pos_as_xyz
  1  'x, y, z'
loop_
 _atom_site_type_symbol
 _atom_site_label
 _atom_site_symmetry_multiplicity
 _atom_site_fract_x
 _atom_site_fract_y
 _atom_site_fract_z
 _atom_site_occupancy
  Ni  Ni1  1  0.980910  0.609440  0.379530  1
  Ni  Ni2  1  0.019090  0.390560  0.620470  1
  Ni  Ni3  1  0.483490  0.451210  0.281500  1
  Ni  Ni4  1  0.516510  0.548790  0.718500  1
  Ni  Ni5  1  0.034300  0.882100  0.150980  1
  Ni  Ni6  1  0.965700  0.117900  0.849020  1
  Ni  Ni7  1  0.529890  0.014140  0.216360  1
  Ni  Ni8  1  0.470110  0.985860  0.783640  1
  H  H9  1  0.905600  0.372200  0.209200  1
  H  H10  1  0.094400  0.627800  0.790800  1
  H  H11  1  0.070100  0.434400  0.232600  1
  H  H12  1  0.929900  0.565600  0.767400  1
  H  H13  1  0.248800  0.567900  0.326000  1
  H  H14  1  0.751200  0.432100  0.674000  1
  H  H15  1  0.310900  0.676400  0.421300  1
  H  H16  1  0.689100  0.323600  0.578700  1
  H  H17  1  0.127400  0.828900  0.566700  1
  H  H18  1  0.872600  0.171100  0.433300  1
  H  H19  1  0.965700  0.809900  0.556000  1
  H  H20  1  0.034300  0.190100  0.444000  1
  H  H21  1  0.581900  0.678600  0.431600  1
  H  H22  1  0.418100  0.321400  0.568400  1
  H  H23  1  0.528900  0.601600  0.316300  1
  H  H24  1  0.471100  0.398400  0.683700  1
  H  H25  1  0.598500  0.578500  0.111400  1
  H  H26  1  0.401500  0.421500  0.888600  1
  H  H27  1  0.432700  0.514100  0.076200  1
  H  H28  1  0.567300  0.485900  0.923800  1
  H  H29  1  0.241900  0.418100  0.108800  1
  H  H30  1  0.758100  0.581900  0.891200  1
  H  H31  1  0.160200  0.358400  0.186700  1
  H  H32  1  0.839800  0.641600  0.813300  1
  H  H33  1  0.294700  0.368800  0.442400  1
  H  H34  1  0.705300  0.631200  0.557600  1
  H  H35  1  0.449700  0.409700  0.501700  1
  H  H36  1  0.550300  0.590300  0.498300  1
  H  H37  1  0.841500  0.468300  0.519400  1
  H  H38  1  0.158500  0.531700  0.480600  1
  H  H39  1  0.919800  0.474100  0.423800  1
  H  H40  1  0.080200  0.525900  0.576200  1
  H  H41  1  0.838800  0.577000  0.310400  1
  H  H42  1  0.161200  0.423000  0.689600  1
  H  H43  1  0.635900  0.461200  0.279500  1
  H  H44  1  0.364100  0.538800  0.720500  1
  H  H45  1  0.136700  0.095600  0.355100  1
  H  H46  1  0.863300  0.904400  0.644900  1
  H  H47  1  0.971800  0.036300  0.338000  1
  H  H48  1  0.028200  0.963700  0.662000  1
  H  H49  1  0.783500  0.924300  0.240400  1
  H  H50  1  0.216500  0.075700  0.759600  1
  H  H51  1  0.708400  0.832500  0.134700  1
  H  H52  1  0.291600  0.167500  0.865300  1
  H  H53  1  0.860000  0.694400  0.943900  1
  H  H54  1  0.140000  0.305600  0.056100  1
  H  H55  1  0.017600  0.702700  0.942700  1
  H  H56  1  0.982400  0.297300  0.057300  1
  H  H57  1  0.407900  0.801800  0.043400  1
  H  H58  1  0.592100  0.198200  0.956600  1
  H  H59  1  0.475200  0.863000  0.161300  1
  H  H60  1  0.524800  0.137000  0.838700  1
  H  H61  1  0.422900  0.872900  0.377300  1
  H  H62  1  0.577100  0.127100  0.622700  1
  H  H63  1  0.588000  0.936000  0.410200  1
  H  H64  1  0.412000  0.064000  0.589800  1
  H  H65  1  0.779100  0.033500  0.372900  1
  H  H66  1  0.220900  0.966500  0.627100  1
  H  H67  1  0.855700  0.091600  0.292400  1
  H  H68  1  0.144300  0.908400  0.707600  1
  H  H69  1  0.701000  0.113800  0.054200  1
  H  H70  1  0.299000  0.886200  0.945800  1
  H  H71  1  0.544400  0.092900  0.011500  1
  H  H72  1  0.455600  0.907100  0.988500  1
  H  H73  1  0.157800  0.039600  0.027000  1
  H  H74  1  0.842200  0.960400  0.973000  1
  H  H75  1  0.092100  0.021200  0.126800  1
  H  H76  1  0.907900  0.978800  0.873200  1
  H  H77  1  0.180600  0.900800  0.205300  1
  H  H78  1  0.819400  0.099200  0.794700  1
  H  H79  1  0.383400  0.010700  0.235400  1
  H  H80  1  0.616600  0.989300  0.764600  1
  H  H81  1  0.237800  0.106500  0.622700  1.0
  H  H82  1  0.762200  0.893500  0.377300  1.0
  H  H83  1  0.242800  0.180700  0.610400  1.0
  H  H84  1  0.757200  0.819300  0.389600  1.0
  H  H85  1  0.248800  0.118800  0.551200  1.0
  H  H86  1  0.751200  0.881200  0.448800  1.0
  H  H87  1  0.106900  0.135700  0.549900  1.0
  H  H88  1  0.893100  0.864300  0.450100  1.0
  H  H89  1  0.096500  0.102500  0.611200  1.0
  H  H90  1  0.903500  0.897500  0.388800  1.0
  H  H91  1  0.102600  0.995600  0.543400  1.0
  H  H92  1  0.897400  0.004400  0.456600  1.0
  H  H93  1  0.110800  0.029000  0.481900  1.0
  H  H94  1  0.889200  0.971000  0.518100  1.0
  H  H95  1  0.960300  0.013400  0.547600  1.0
  H  H96  1  0.039700  0.986600  0.452400  1.0
  H  H97  1  0.968100  0.032200  0.478600  1.0
  H  H98  1  0.031900  0.967800  0.521400  1.0
  H  H99  1  0.943500  0.918100  0.421800  1.0
  H  H100  1  0.056500  0.081900  0.578200  1.0
  H  H101  1  0.963300  0.896700  0.488200  1.0
  H  H102  1  0.036700  0.103300  0.511800  1.0
  H  H103  1  0.830000  0.910000  0.519300  1.0
  H  H104  1  0.170000  0.090000  0.480700  1.0
  H  H105  1  0.808800  0.852200  0.449000  1.0
  H  H106  1  0.191200  0.147800  0.551000  1.0
  H  H107  1  0.810000  0.930300  0.452300  1.0
  H  H108  1  0.190000  0.069700  0.547700  1.0
  C  C109  1  0.899600  0.458600  0.285400  1
  C  C110  1  0.100400  0.541400  0.714600  1
  C  C111  1  0.937600  0.416200  0.241300  1
  C  C112  1  0.062400  0.583800  0.758700  1
  C  C113  1  0.027400  0.450300  0.253700  1
  C  C114  1  0.972600  0.549700  0.746300  1
  C  C115  1  0.045600  0.515100  0.304800  1
  C  C116  1  0.954400  0.484900  0.695200  1
  C  C117  1  0.120600  0.571200  0.342500  1
  C  C118  1  0.879400  0.428800  0.657500  1
  C  C119  1  0.215700  0.591600  0.351400  1
  C  C120  1  0.784300  0.408400  0.648600  1
  C  C121  1  0.249500  0.651300  0.403200  1
  C  C122  1  0.750500  0.348700  0.596800  1
  C  C123  1  0.175500  0.669700  0.425700  1
  C  C124  1  0.824500  0.330300  0.574300  1
  C  C125  1  0.171900  0.725500  0.476200  1
  C  C126  1  0.828100  0.274500  0.523800  1
  C  C127  1  0.091400  0.735500  0.486100  1
  C  C128  1  0.908600  0.264500  0.513900  1
  C  C129  1  0.080900  0.791400  0.535300  1
  C  C130  1  0.919100  0.208600  0.464700  1
  C  C131  1  0.992500  0.781400  0.529100  1
  C  C132  1  0.007500  0.218600  0.470900  1
  C  C133  1  0.947700  0.720200  0.474900  1
  C  C134  1  0.052300  0.279800  0.525100  1
  C  C135  1  0.856700  0.692000  0.446800  1
  C  C136  1  0.143300  0.308000  0.553200  1
  C  C137  1  0.822800  0.641500  0.381900  1
  C  C138  1  0.177200  0.358500  0.618100  1
  C  C139  1  0.783900  0.709900  0.469400  1
  C  C140  1  0.216100  0.290100  0.530600  1
  C  C141  1  0.785000  0.753200  0.532100  1
  C  C142  1  0.215000  0.246800  0.467900  1
  C  C143  1  0.708700  0.674000  0.419400  1
  C  C144  1  0.291300  0.326000  0.580600  1
  C  C145  1  0.617500  0.661200  0.403200  1
  C  C146  1  0.382500  0.338800  0.596800  1
  C  C147  1  0.588800  0.619400  0.339200  1
  C  C148  1  0.411200  0.380600  0.660800  1
  C  C149  1  0.662800  0.606700  0.311800  1
  C  C150  1  0.337200  0.393300  0.688200  1
  C  C151  1  0.666100  0.584500  0.243300  1
  C  C152  1  0.333900  0.415500  0.756700  1
  C  C153  1  0.585400  0.543900  0.199000  1
  C  C154  1  0.414600  0.456100  0.801000  1
  C  C155  1  0.559800  0.552500  0.135500  1
  C  C156  1  0.440200  0.447500  0.864500  1
  C  C157  1  0.469100  0.516400  0.115300  1
  C  C158  1  0.530900  0.483600  0.884700  1
  C  C159  1  0.442400  0.483600  0.165700  1
  C  C160  1  0.557600  0.516400  0.834300  1
  C  C161  1  0.359600  0.442900  0.179000  1
  C  C162  1  0.640400  0.557100  0.821000  1
  C  C163  1  0.267200  0.414900  0.149800  1
  C  C164  1  0.732800  0.585100  0.850200  1
  C  C165  1  0.222700  0.382600  0.192900  1
  C  C166  1  0.777300  0.617400  0.807100  1
  C  C167  1  0.286600  0.391600  0.249100  1
  C  C168  1  0.713400  0.608400  0.750900  1
  C  C169  1  0.278300  0.374800  0.308600  1
  C  C170  1  0.721700  0.625200  0.691400  1
  C  C171  1  0.350300  0.391400  0.358200  1
  C  C172  1  0.649700  0.608600  0.641800  1
  C  C173  1  0.347200  0.385300  0.424400  1
  C  C174  1  0.652800  0.614700  0.575600  1
  C  C175  1  0.431800  0.407100  0.456800  1
  C  C176  1  0.568200  0.592900  0.543200  1
  C  C177  1  0.489600  0.425500  0.410800  1
  C  C178  1  0.510400  0.574500  0.589200  1
  C  C179  1  0.582200  0.442500  0.418700  1
  C  C180  1  0.417800  0.557500  0.581300  1
  C  C181  1  0.631300  0.450200  0.364600  1
  C  C182  1  0.368700  0.549800  0.635400  1
  C  C183  1  0.643300  0.447800  0.474000  1
  C  C184  1  0.356700  0.552200  0.526000  1
  C  C185  1  0.624100  0.441300  0.537100  1
  C  C186  1  0.375900  0.558700  0.462900  1
  C  C187  1  0.726800  0.456000  0.454700  1
  C  C188  1  0.273200  0.544000  0.545300  1
  C  C189  1  0.815500  0.464600  0.475900  1
  C  C190  1  0.184500  0.535400  0.524100  1
  C  C191  1  0.858000  0.466700  0.422300  1
  C  C192  1  0.142000  0.533300  0.577700  1
  C  C193  1  0.798500  0.456600  0.364800  1
  C  C194  1  0.201500  0.543400  0.635200  1
  C  C195  1  0.811300  0.437500  0.298300  1
  C  C196  1  0.188700  0.562500  0.701700  1
  C  C197  1  0.256900  0.775700  0.519800  1
  C  C198  1  0.743100  0.224300  0.480200  1
  C  C199  1  0.322100  0.822000  0.496600  1
  C  C200  1  0.677900  0.178000  0.503400  1
  C  C201  1  0.401200  0.867400  0.534800  1
  C  C202  1  0.598800  0.132600  0.465200  1
  C  C203  1  0.418800  0.867400  0.599400  1
  C  C204  1  0.581200  0.132600  0.400600  1
  C  C205  1  0.358000  0.823600  0.625200  1
  C  C206  1  0.642000  0.176400  0.374800  1
  C  C207  1  0.276900  0.777200  0.585200  1
  C  C208  1  0.723100  0.222800  0.414800  1
  C  C209  1  0.747000  0.611700  0.215100  1
  C  C210  1  0.253000  0.388300  0.784900  1
  C  C211  1  0.762500  0.571200  0.157500  1
  C  C212  1  0.237500  0.428800  0.842500  1
  C  C213  1  0.834700  0.594400  0.127100  1
  C  C214  1  0.165300  0.405600  0.872900  1
  C  C215  1  0.896800  0.662800  0.154900  1
  C  C216  1  0.103200  0.337200  0.845100  1
  C  C217  1  0.882600  0.705000  0.209900  1
  C  C218  1  0.117400  0.295000  0.790100  1
  C  C219  1  0.809400  0.680400  0.239000  1
  C  C220  1  0.190600  0.319600  0.761000  1
  C  C221  1  0.186700  0.338800  0.320200  1
  C  C222  1  0.813300  0.661200  0.679800  1
  C  C223  1  0.137900  0.376700  0.353000  1
  C  C224  1  0.862100  0.623300  0.647000  1
  C  C225  1  0.052300  0.344200  0.360900  1
  C  C226  1  0.947700  0.655800  0.639100  1
  C  C227  1  0.012400  0.272300  0.335600  1
  C  C228  1  0.987600  0.727700  0.664400  1
  C  C229  1  0.057600  0.233800  0.304700  1
  C  C230  1  0.942400  0.766200  0.695300  1
  C  C231  1  0.144300  0.266000  0.296400  1
  C  C232  1  0.855700  0.734000  0.703600  1
  C  C233  1  0.740600  0.386000  0.244000  1
  C  C234  1  0.259400  0.614000  0.756000  1
  C  C235  1  0.673100  0.327200  0.251400  1
  C  C236  1  0.326900  0.672800  0.748600  1
  C  C237  1  0.610800  0.277800  0.199800  1
  C  C238  1  0.389200  0.722200  0.800200  1
  C  C239  1  0.611900  0.285400  0.136700  1
  C  C240  1  0.388100  0.714600  0.863300  1
  C  C241  1  0.676100  0.342100  0.126400  1
  C  C242  1  0.323900  0.657900  0.873600  1
  C  C243  1  0.739400  0.390700  0.178500  1
  C  C244  1  0.260600  0.609300  0.821500  1
  C  C245  1  0.131900  0.020500  0.263500  1
  C  C246  1  0.868100  0.979500  0.736500  1
  C  C247  1  0.100900  0.056500  0.319100  1
  C  C248  1  0.899100  0.943500  0.680900  1
  C  C249  1  0.010700  0.023700  0.310000  1
  C  C250  1  0.989300  0.976300  0.690000  1
  C  C251  1  0.985500  0.966400  0.250300  1
  C  C252  1  0.014500  0.033600  0.749700  1
  C  C253  1  0.906200  0.918000  0.210600  1
  C  C254  1  0.093800  0.082000  0.789400  1
  C  C255  1  0.811500  0.903100  0.207900  1
  C  C256  1  0.188500  0.096900  0.792100  1
  C  C257  1  0.770900  0.853200  0.150300  1
  C  C258  1  0.229100  0.146800  0.849700  1
  C  C259  1  0.839300  0.836600  0.116300  1
  C  C260  1  0.160700  0.163400  0.883700  1
  C  C261  1  0.832900  0.788000  0.055800  1
  C  C262  1  0.167100  0.212000  0.944200  1
  C  C263  1  0.908700  0.775700  0.036000  1
  C  C264  1  0.091300  0.224300  0.964000  1
  C  C265  1  0.910100  0.725200  0.976700  1
  C  C266  1  0.089900  0.274800  0.023300  1
  C  C267  1  0.996600  0.729700  0.976200  1
  C  C268  1  0.003400  0.270300  0.023800  1
  C  C269  1  0.049900  0.782100  0.034800  1
  C  C270  1  0.950100  0.217900  0.965200  1
  C  C271  1  0.140700  0.801800  0.057200  1
  C  C272  1  0.859300  0.198200  0.942800  1
  C  C273  1  0.183800  0.842800  0.123700  1
  C  C274  1  0.816200  0.157200  0.876300  1
  C  C275  1  0.207500  0.783800  0.024500  1
  C  C276  1  0.792500  0.216200  0.975500  1
  C  C277  1  0.194300  0.746500  0.956700  1
  C  C278  1  0.805700  0.253500  0.043300  1
  C  C279  1  0.287000  0.809800  0.069800  1
  C  C280  1  0.713000  0.190200  0.930200  1
  C  C281  1  0.377600  0.817100  0.077400  1
  C  C282  1  0.622400  0.182900  0.922600  1
  C  C283  1  0.414200  0.850400  0.142800  1
  C  C284  1  0.585800  0.149600  0.857200  1
  C  C285  1  0.346500  0.863400  0.179600  1
  C  C286  1  0.653500  0.136600  0.820400  1
  C  C287  1  0.349200  0.877800  0.248000  1
  C  C288  1  0.650800  0.122200  0.752000  1
  C  C289  1  0.432800  0.912400  0.292200  1
  C  C290  1  0.567200  0.087600  0.707800  1
  C  C291  1  0.460600  0.900300  0.353600  1
  C  C292  1  0.539400  0.099700  0.646400  1
  C  C293  1  0.551000  0.935200  0.372200  1
  C  C294  1  0.449000  0.064800  0.627800  1
  C  C295  1  0.577400  0.970000  0.322900  1
  C  C296  1  0.422600  0.030000  0.677100  1
  C  C297  1  0.658400  0.010800  0.307600  1
  C  C298  1  0.341600  0.989200  0.692400  1
  C  C299  1  0.751400  0.037300  0.332900  1
  C  C300  1  0.248600  0.962700  0.667100  1
  C  C301  1  0.793100  0.069300  0.288900  1
  C  C302  1  0.206900  0.930700  0.711100  1
  C  C303  1  0.726100  0.063300  0.236500  1
  C  C304  1  0.273900  0.936700  0.763500  1
  C  C305  1  0.730000  0.085100  0.178600  1
  C  C306  1  0.270000  0.914900  0.821400  1
  C  C307  1  0.654900  0.080300  0.137500  1
  C  C308  1  0.345100  0.919700  0.862500  1
  C  C309  1  0.651400  0.097500  0.075300  1
  C  C310  1  0.348600  0.902500  0.924700  1
  C  C311  1  0.566200  0.086500  0.052100  1
  C  C312  1  0.433800  0.913500  0.947900  1
  C  C313  1  0.514100  0.063300  0.099800  1
  C  C314  1  0.485900  0.936700  0.900200  1
  C  C315  1  0.422900  0.050700  0.100000  1
  C  C316  1  0.577100  0.949300  0.900000  1
  C  C317  1  0.380700  0.035500  0.155600  1
  C  C318  1  0.619300  0.964500  0.844400  1
  C  C319  1  0.357800  0.056400  0.054500  1
  C  C320  1  0.642200  0.943600  0.945500  1
  C  C321  1  0.372300  0.077100  0.994600  1
  C  C322  1  0.627700  0.922900  0.005400  1
  C  C323  1  0.277800  0.044800  0.080600  1
  C  C324  1  0.722200  0.955200  0.919400  1
  C  C325  1  0.188200  0.038000  0.067000  1
  C  C326  1  0.811800  0.962000  0.933000  1
  C  C327  1  0.152700  0.028600  0.123000  1
  C  C328  1  0.847300  0.971400  0.877000  1
  C  C329  1  0.217300  0.031200  0.173400  1
  C  C330  1  0.782700  0.968800  0.826600  1
  C  C331  1  0.214500  0.046500  0.243300  1
  C  C332  1  0.785500  0.953500  0.756700  1
  C  C333  1  0.744400  0.746800  0.014000  1
  C  C334  1  0.255600  0.253200  0.986000  1
  C  C335  1  0.680100  0.696300  0.033000  1
  C  C336  1  0.319900  0.303700  0.967000  1
  C  C337  1  0.596600  0.659200  0.996300  1
  C  C338  1  0.403400  0.340800  0.003700  1
  C  C339  1  0.574000  0.671600  0.937400  1
  C  C340  1  0.426000  0.328400  0.062600  1
  C  C341  1  0.635200  0.720700  0.916000  1
  C  C342  1  0.364800  0.279300  0.084000  1
  C  C343  1  0.718600  0.758000  0.953900  1
  C  C344  1  0.281400  0.242000  0.046100  1
  C  C345  1  0.269400  0.850600  0.278200  1
  C  C346  1  0.730600  0.149400  0.721800  1
  C  C347  1  0.255100  0.895800  0.336900  1
  C  C348  1  0.744900  0.104200  0.663100  1
  C  C349  1  0.181100  0.871500  0.364600  1
  C  C350  1  0.818900  0.128500  0.635400  1
  C  C351  1  0.116700  0.808000  0.338500  1
  C  C352  1  0.883300  0.192000  0.661500  1
  C  C353  1  0.129300  0.761300  0.282400  1
  C  C354  1  0.870700  0.238700  0.717600  1
  C  C355  1  0.205700  0.785100  0.253800  1
  C  C356  1  0.794300  0.214900  0.746200  1
  C  C357  1  0.819200  0.115500  0.160600  1
  C  C358  1  0.180800  0.884500  0.839400  1
  C  C359  1  0.858600  0.071600  0.124300  1
  C  C360  1  0.141400  0.928400  0.875700  1
  C  C361  1  0.942800  0.097900  0.109300  1
  C  C362  1  0.057200  0.902100  0.890700  1
  C  C363  1  0.990100  0.170500  0.131900  1
  C  C364  1  0.009900  0.829500  0.868100  1
  C  C365  1  0.952200  0.214300  0.165500  1
  C  C366  1  0.047800  0.785700  0.834500  1
  C  C367  1  0.868000  0.187400  0.180100  1
  C  C368  1  0.132000  0.812600  0.819900  1
  C  C369  1  0.290000  0.103500  0.292300  1
  C  C370  1  0.710000  0.896500  0.707700  1
  C  C371  1  0.341600  0.163400  0.275400  1
  C  C372  1  0.658400  0.836600  0.724600  1
  C  C373  1  0.409300  0.218200  0.321800  1
  C  C374  1  0.590700  0.781800  0.678200  1
  C  C375  1  0.426500  0.215800  0.386100  1
  C  C376  1  0.573500  0.784200  0.613900  1
  C  C377  1  0.375900  0.159700  0.404800  1
  C  C378  1  0.624100  0.840300  0.595200  1
  C  C379  1  0.308200  0.104700  0.358600  1
  C  C380  1  0.691800  0.895300  0.641400  1
  C  C381  1  0.221400  0.129400  0.590400  1.0
  C  C382  1  0.778600  0.870600  0.409600  1.0
  C  C383  1  0.123800  0.102700  0.570800  1.0
  C  C384  1  0.876200  0.897300  0.429200  1.0
  C  C385  1  0.085200  0.029000  0.523000  1.0
  C  C386  1  0.914800  0.971000  0.477000  1.0
  C  C387  1  0.983900  0.003500  0.506000  1.0
  C  C388  1  0.016100  0.996500  0.494000  1.0
  C  C389  1  0.936000  0.925800  0.469000  1.0
  C  C390  1  0.064000  0.074200  0.531000  1.0
  C  C391  1  0.838000  0.903000  0.473000  1.0
  C  C392  1  0.162000  0.097000  0.527000  1.0
  N  N393  1  0.966500  0.519600  0.321100  1
  N  N394  1  0.033500  0.480400  0.678900  1
  N  N395  1  0.098500  0.619100  0.387800  1
  N  N396  1  0.901500  0.380900  0.612200  1
  N  N397  1  0.008000  0.691900  0.449100  1
  N  N398  1  0.992000  0.308100  0.550900  1
  N  N399  1  0.865800  0.605700  0.349800  1
  N  N400  1  0.134200  0.394300  0.650200  1
  N  N401  1  0.784600  0.787000  0.584300  1
  N  N402  1  0.215400  0.213000  0.415700  1
  N  N403  1  0.734500  0.637600  0.364900  1
  N  N404  1  0.265500  0.362400  0.635100  1
  N  N405  1  0.512200  0.498700  0.214600  1
  N  N406  1  0.487800  0.501300  0.785400  1
  N  N407  1  0.370000  0.429100  0.239100  1
  N  N408  1  0.630000  0.570900  0.760900  1
  N  N409  1  0.439200  0.417900  0.351100  1
  N  N410  1  0.560800  0.582100  0.648900  1
  N  N411  1  0.599300  0.455200  0.308170  1
  N  N412  1  0.400700  0.544800  0.691830  1
  N  N413  1  0.604300  0.433200  0.586500  1
  N  N414  1  0.395700  0.566800  0.413500  1
  N  N415  1  0.717200  0.453500  0.387300  1
  N  N416  1  0.282800  0.546500  0.612700  1
  N  N417  1  0.059700  0.963100  0.224700  1
  N  N418  1  0.940300  0.036900  0.775300  1
  N  N419  1  0.919800  0.877700  0.154100  1
  N  N420  1  0.080200  0.122300  0.845900  1
  N  N421  1  0.995700  0.810300  0.070900  1
  N  N422  1  0.004300  0.189700  0.929100  1
  N  N423  1  0.148100  0.877300  0.165900  1
  N  N424  1  0.851900  0.122700  0.834100  1
  N  N425  1  0.182100  0.716500  0.900900  1
  N  N426  1  0.817900  0.283500  0.099100  1
  N  N427  1  0.269400  0.840400  0.130800  1
  N  N428  1  0.730600  0.159600  0.869200  1
  N  N429  1  0.505500  0.957500  0.276100  1
  N  N430  1  0.494500  0.042500  0.723900  1
  N  N431  1  0.644700  0.027500  0.249600  1
  N  N432  1  0.355300  0.972500  0.750400  1
  N  N433  1  0.568200  0.058300  0.150700  1
  N  N434  1  0.431800  0.941700  0.849300  1
  N  N435  1  0.416000  0.019700  0.204800  1
  N  N436  1  0.584000  0.980300  0.795200  1
  N  N437  1  0.386200  0.097200  0.949600  1
  N  N438  1  0.613800  0.902800  0.050400  1
  N  N439  1  0.295000  0.037700  0.143900  1
  N  N440  1  0.705000  0.962300  0.856100  1
  F  F441  1  0.306600  0.821700  0.432870  1
  F  F442  1  0.693400  0.178300  0.567130  1
  F  F443  1  0.462300  0.910600  0.510080  1
  F  F444  1  0.537700  0.089400  0.489920  1
  F  F445  1  0.498000  0.910920  0.637140  1
  F  F446  1  0.502000  0.089080  0.362860  1
  F  F447  1  0.374900  0.823960  0.688800  1
  F  F448  1  0.625100  0.176040  0.311200  1
  F  F449  1  0.218500  0.733740  0.611730  1
  F  F450  1  0.781500  0.266260  0.388270  1
  F  F451  1  0.704800  0.505100  0.127330  1
  F  F452  1  0.295200  0.494900  0.872670  1
  F  F453  1  0.845900  0.553600  0.072300  1
  F  F454  1  0.154100  0.446400  0.927700  1
  F  F455  1  0.966900  0.685300  0.127200  1
  F  F456  1  0.033100  0.314700  0.872800  1
  F  F457  1  0.940000  0.772000  0.236400  1
  F  F458  1  0.060000  0.228000  0.763600  1
  F  F459  1  0.797500  0.725980  0.290940  1
  F  F460  1  0.202500  0.274020  0.709060  1
  F  F461  1  0.176900  0.446870  0.377510  1
  F  F462  1  0.823100  0.553130  0.622490  1
  F  F463  1  0.007100  0.383800  0.391800  1
  F  F464  1  0.992900  0.616200  0.608200  1
  F  F465  1  0.926400  0.241000  0.339200  1
  F  F466  1  0.073600  0.759000  0.660800  1
  F  F467  1  0.018800  0.162000  0.280900  1
  F  F468  1  0.981200  0.838000  0.719100  1
  F  F469  1  0.187200  0.226180  0.264600  1
  F  F470  1  0.812800  0.773820  0.735400  1
  F  F471  1  0.670000  0.316990  0.312410  1
  F  F472  1  0.330000  0.683010  0.687590  1
  F  F473  1  0.548400  0.221100  0.209190  1
  F  F474  1  0.451600  0.778900  0.790810  1
  F  F475  1  0.550400  0.237670  0.085540  1
  F  F476  1  0.449600  0.762330  0.914460  1
  F  F477  1  0.677500  0.348910  0.064020  1
  F  F478  1  0.322500  0.651090  0.935980  1
  F  F479  1  0.802900  0.443050  0.164820  1
  F  F480  1  0.197100  0.556950  0.835180  1
  F  F481  1  0.701000  0.681800  0.090290  1
  F  F482  1  0.299000  0.318200  0.909710  1
  F  F483  1  0.535800  0.610200  0.016600  1
  F  F484  1  0.464200  0.389800  0.983400  1
  F  F485  1  0.492600  0.634460  0.900360  1
  F  F486  1  0.507400  0.365540  0.099640  1
  F  F487  1  0.612700  0.732300  0.857740  1
  F  F488  1  0.387300  0.267700  0.142260  1
  F  F489  1  0.776400  0.806560  0.931910  1
  F  F490  1  0.223600  0.193440  0.068090  1
  F  F491  1  0.316700  0.957100  0.367300  1
  F  F492  1  0.683300  0.042900  0.632700  1
  F  F493  1  0.171900  0.914000  0.420700  1
  F  F494  1  0.828100  0.086000  0.579300  1
  F  F495  1  0.044800  0.786600  0.363700  1
  F  F496  1  0.955200  0.213400  0.636300  1
  F  F497  1  0.070100  0.696800  0.255900  1
  F  F498  1  0.929900  0.303200  0.744100  1
  F  F499  1  0.216000  0.739490  0.200500  1
  F  F500  1  0.784000  0.260510  0.799500  1
  F  F501  1  0.814900  0.001780  0.102700  1
  F  F502  1  0.185100  0.998220  0.897300  1
  F  F503  1  0.978800  0.054450  0.074340  1
  F  F504  1  0.021200  0.945550  0.925660  1
  F  F505  1  0.074600  0.195500  0.122000  1
  F  F506  1  0.925400  0.804500  0.878000  1
  F  F507  1  0.997900  0.285120  0.185980  1
  F  F508  1  0.002100  0.714880  0.814020  1
  F  F509  1  0.833700  0.232500  0.215990  1
  F  F510  1  0.166300  0.767500  0.784010  1
  F  F511  1  0.326400  0.171640  0.215100  1
  F  F512  1  0.673600  0.828360  0.784900  1
  F  F513  1  0.457800  0.274600  0.303300  1
  F  F514  1  0.542200  0.725400  0.696700  1
  F  F515  1  0.492400  0.268200  0.430400  1
  F  F516  1  0.507600  0.731800  0.569600  1
  F  F517  1  0.388600  0.156600  0.467500  1
  F  F518  1  0.611400  0.843400  0.532500  1
  F  F519  1  0.258600  0.052700  0.381300  1
  F  F520  1  0.741400  0.947300  0.618700  1
