# generated using pymatgen
data_Ni2H19C69N12Cl3F20
_symmetry_space_group_name_H-M   'P 1'
_cell_length_a   13.25200000
_cell_length_b   17.93800000
_cell_length_c   26.08300000
_cell_angle_alpha   105.99000000
_cell_angle_beta   90.00000000
_cell_angle_gamma   90.00000000
_symmetry_Int_Tables_number   1
_chemical_formula_structural   Ni2H19C69N12Cl3F20
_chemical_formula_sum   'Ni8 H76 C276 N48 Cl12 F80'
_cell_volume   5960.41299707
_cell_formula_units_Z   4
loop_
 _symmetry_equiv_pos_site_id
 _symmetry_equiv_pos_as_xyz
  1  'x, y, z'
loop_
 _atom_site_type_symbol
 _atom_site_label
 _atom_site_symmetry_multiplicity
 _atom_site_fract_x
 _atom_site_fract_y
 _atom_site_fract_z
 _atom_site_occupancy
  Ni  Ni1  1  0.077950  0.652530  0.598830  1
  Ni  Ni2  1  0.577950  0.347470  0.901170  1
  Ni  Ni3  1  0.922050  0.347470  0.401170  1
  Ni  Ni4  1  0.422050  0.652530  0.098830  1
  Ni  Ni5  1  0.655010  0.728900  0.507790  1
  Ni  Ni6  1  0.155010  0.271100  0.992210  1
  Ni  Ni7  1  0.344990  0.271100  0.492210  1
  Ni  Ni8  1  0.844990  0.728900  0.007790  1
  H  H9  1  0.928500  0.727500  0.604400  1
  H  H10  1  0.428500  0.272500  0.895600  1
  H  H11  1  0.071500  0.272500  0.395600  1
  H  H12  1  0.571500  0.727500  0.104400  1
  H  H13  1  0.831300  0.749200  0.520200  1
  H  H14  1  0.331300  0.250800  0.979800  1
  H  H15  1  0.168700  0.250800  0.479800  1
  H  H16  1  0.668700  0.749200  0.020200  1
  H  H17  1  0.113700  0.914900  0.492200  1
  H  H18  1  0.613700  0.085100  0.007800  1
  H  H19  1  0.886300  0.085100  0.507800  1
  H  H20  1  0.386300  0.914900  0.992200  1
  H  H21  1  0.762100  0.718000  0.690000  1
  H  H22  1  0.262100  0.282000  0.810000  1
  H  H23  1  0.237900  0.282000  0.310000  1
  H  H24  1  0.737900  0.718000  0.190000  1
  H  H25  1  0.632200  0.618000  0.655900  1
  H  H26  1  0.132200  0.382000  0.844100  1
  H  H27  1  0.367800  0.382000  0.344100  1
  H  H28  1  0.867800  0.618000  0.155900  1
  H  H29  1  0.445100  0.756300  0.356800  1
  H  H30  1  0.945100  0.243700  0.143200  1
  H  H31  1  0.554900  0.243700  0.643200  1
  H  H32  1  0.054900  0.756300  0.856800  1
  H  H33  1  0.347300  0.567900  0.489300  1
  H  H34  1  0.847300  0.432100  0.010700  1
  H  H35  1  0.652700  0.432100  0.510700  1
  H  H36  1  0.152700  0.567900  0.989300  1
  H  H37  1  0.037100  0.536200  0.410100  1
  H  H38  1  0.537100  0.463800  0.089900  1
  H  H39  1  0.962900  0.463800  0.589900  1
  H  H40  1  0.462900  0.536200  0.910100  1
  H  H41  1  0.269000  0.406700  0.546400  1
  H  H42  1  0.769000  0.593300  0.953600  1
  H  H43  1  0.731000  0.593300  0.453600  1
  H  H44  1  0.231000  0.406700  0.046400  1
  H  H45  1  0.784800  0.986700  0.701500  1
  H  H46  1  0.284800  0.013300  0.798500  1
  H  H47  1  0.215200  0.013300  0.298500  1
  H  H48  1  0.715200  0.986700  0.201500  1
  H  H49  1  0.200300  0.745500  0.783900  1
  H  H50  1  0.700300  0.254500  0.716100  1
  H  H51  1  0.799700  0.254500  0.216100  1
  H  H52  1  0.299700  0.745500  0.283900  1
  H  H53  1  0.971300  0.667700  0.417300  1
  H  H54  1  0.471300  0.332300  0.082700  1
  H  H55  1  0.028700  0.332300  0.582700  1
  H  H56  1  0.528700  0.667700  0.917300  1
  H  H57  1  0.595900  0.834800  0.354500  1
  H  H58  1  0.095900  0.165200  0.145500  1
  H  H59  1  0.404100  0.165200  0.645500  1
  H  H60  1  0.904100  0.834800  0.854500  1
  H  H61  1  0.183400  0.421600  0.466100  1
  H  H62  1  0.683400  0.578400  0.033900  1
  H  H63  1  0.816600  0.578400  0.533900  1
  H  H64  1  0.316600  0.421600  0.966100  1
  H  H65  1  0.014800  0.960100  0.426400  1
  H  H66  1  0.514800  0.039900  0.073600  1
  H  H67  1  0.985200  0.039900  0.573600  1
  H  H68  1  0.485200  0.960100  0.926400  1
  H  H69  1  0.284500  0.618800  0.748300  1
  H  H70  1  0.784500  0.381200  0.751700  1
  H  H71  1  0.715500  0.381200  0.251700  1
  H  H72  1  0.215500  0.618800  0.248300  1
  H  H73  1  0.903600  0.998100  0.775200  1
  H  H74  1  0.403600  0.001900  0.724800  1
  H  H75  1  0.096400  0.001900  0.224800  1
  H  H76  1  0.596400  0.998100  0.275200  1
  H  H77  1  0.441200  0.552800  0.566700  1
  H  H78  1  0.941200  0.447200  0.933300  1
  H  H79  1  0.558800  0.447200  0.433300  1
  H  H80  1  0.058800  0.552800  0.066700  1
  H  H81  1  0.480200  0.797300  0.719100  1
  H  H82  1  0.980200  0.202700  0.780900  1
  H  H83  1  0.519800  0.202700  0.280900  1
  H  H84  1  0.019800  0.797300  0.219100  1
  C  C85  1  0.124300  0.719800  0.710050  1
  C  C86  1  0.624300  0.280200  0.789950  1
  C  C87  1  0.875700  0.280200  0.289950  1
  C  C88  1  0.375700  0.719800  0.210050  1
  C  C89  1  0.051800  0.778200  0.712990  1
  C  C90  1  0.551800  0.221800  0.787010  1
  C  C91  1  0.948200  0.221800  0.287010  1
  C  C92  1  0.448200  0.778200  0.212990  1
  C  C93  1  0.545500  0.633500  0.551570  1
  C  C94  1  0.045500  0.366500  0.948430  1
  C  C95  1  0.454500  0.366500  0.448430  1
  C  C96  1  0.954500  0.633500  0.051570  1
  C  C97  1  0.298600  0.485200  0.664000  1
  C  C98  1  0.798600  0.514800  0.836000  1
  C  C99  1  0.701400  0.514800  0.336000  1
  C  C100  1  0.201400  0.485200  0.164000  1
  C  C101  1  0.019400  0.698200  0.498880  1
  C  C102  1  0.519400  0.301800  0.001120  1
  C  C103  1  0.980600  0.301800  0.501120  1
  C  C104  1  0.480600  0.698200  0.998880  1
  C  C105  1  0.204900  0.608500  0.676920  1
  C  C106  1  0.704900  0.391500  0.823080  1
  C  C107  1  0.795100  0.391500  0.323080  1
  C  C108  1  0.295100  0.608500  0.176920  1
  C  C109  1  0.206600  0.516200  0.588100  1
  C  C110  1  0.706600  0.483800  0.911900  1
  C  C111  1  0.793400  0.483800  0.411900  1
  C  C112  1  0.293400  0.516200  0.088100  1
  C  C113  1  0.052400  0.894200  0.477600  1
  C  C114  1  0.552400  0.105800  0.022400  1
  C  C115  1  0.947600  0.105800  0.522400  1
  C  C116  1  0.447600  0.894200  0.977600  1
  C  C117  1  0.975700  0.772900  0.672750  1
  C  C118  1  0.475700  0.227100  0.827250  1
  C  C119  1  0.024300  0.227100  0.327250  1
  C  C120  1  0.524300  0.772900  0.172750  1
  C  C121  1  0.625400  0.660300  0.588580  1
  C  C122  1  0.125400  0.339700  0.911420  1
  C  C123  1  0.374600  0.339700  0.411420  1
  C  C124  1  0.874600  0.660300  0.088580  1
  C  C125  1  0.003100  0.831500  0.488950  1
  C  C126  1  0.503100  0.168500  0.011050  1
  C  C127  1  0.996900  0.168500  0.511050  1
  C  C128  1  0.496900  0.831500  0.988950  1
  C  C129  1  0.727000  0.709600  0.658050  1
  C  C130  1  0.227000  0.290400  0.841950  1
  C  C131  1  0.273000  0.290400  0.341950  1
  C  C132  1  0.773000  0.709600  0.158050  1
  C  C133  1  0.946400  0.882600  0.738770  1
  C  C134  1  0.446400  0.117400  0.761230  1
  C  C135  1  0.053600  0.117400  0.261230  1
  C  C136  1  0.553600  0.882600  0.238770  1
  C  C137  1  0.098300  0.867300  0.603800  1
  C  C138  1  0.598300  0.132700  0.896200  1
  C  C139  1  0.901700  0.132700  0.396200  1
  C  C140  1  0.401700  0.867300  0.103800  1
  C  C141  1  0.830600  0.869700  0.671140  1
  C  C142  1  0.330600  0.130300  0.828860  1
  C  C143  1  0.169400  0.130300  0.328860  1
  C  C144  1  0.669400  0.869700  0.171140  1
  C  C145  1  0.656000  0.653800  0.638870  1
  C  C146  1  0.156000  0.346200  0.861130  1
  C  C147  1  0.344000  0.346200  0.361130  1
  C  C148  1  0.844000  0.653800  0.138870  1
  C  C149  1  0.500800  0.761700  0.379200  1
  C  C150  1  0.000800  0.238300  0.120800  1
  C  C151  1  0.499200  0.238300  0.620800  1
  C  C152  1  0.999200  0.761700  0.879200  1
  C  C153  1  0.407600  0.592200  0.502400  1
  C  C154  1  0.907600  0.407800  0.997600  1
  C  C155  1  0.592400  0.407800  0.497600  1
  C  C156  1  0.092400  0.592200  0.002400  1
  C  C157  1  0.577800  0.980900  0.565900  1
  C  C158  1  0.077800  0.019100  0.934100  1
  C  C159  1  0.422200  0.019100  0.434100  1
  C  C160  1  0.922200  0.980900  0.065900  1
  C  C161  1  0.098900  0.883000  0.796300  1
  C  C162  1  0.598900  0.117000  0.703700  1
  C  C163  1  0.901100  0.117000  0.203700  1
  C  C164  1  0.401100  0.883000  0.296300  1
  C  C165  1  0.070400  0.577600  0.491880  1
  C  C166  1  0.570400  0.422400  0.008120  1
  C  C167  1  0.929600  0.422400  0.508120  1
  C  C168  1  0.429600  0.577600  0.991880  1
  C  C169  1  0.036200  0.577800  0.440660  1
  C  C170  1  0.536200  0.422200  0.059340  1
  C  C171  1  0.963800  0.422200  0.559340  1
  C  C172  1  0.463800  0.577800  0.940660  1
  C  C173  1  0.166900  0.887900  0.644710  1
  C  C174  1  0.666900  0.112100  0.855290  1
  C  C175  1  0.833100  0.112100  0.355290  1
  C  C176  1  0.333100  0.887900  0.144710  1
  C  C177  1  0.235900  0.537900  0.641000  1
  C  C178  1  0.735900  0.462100  0.859000  1
  C  C179  1  0.764100  0.462100  0.359000  1
  C  C180  1  0.264100  0.537900  0.141000  1
  C  C181  1  0.598100  0.884700  0.612700  1
  C  C182  1  0.098100  0.115300  0.887300  1
  C  C183  1  0.401900  0.115300  0.387300  1
  C  C184  1  0.901900  0.884700  0.112700  1
  C  C185  1  0.395700  0.504400  0.682100  1
  C  C186  1  0.895700  0.495600  0.817900  1
  C  C187  1  0.604300  0.495600  0.317900  1
  C  C188  1  0.104300  0.504400  0.182100  1
  C  C189  1  0.679000  0.979500  0.557600  1
  C  C190  1  0.179000  0.020500  0.942400  1
  C  C191  1  0.321000  0.020500  0.442400  1
  C  C192  1  0.821000  0.979500  0.057600  1
  C  C193  1  0.702700  0.883500  0.606300  1
  C  C194  1  0.202700  0.116500  0.893700  1
  C  C195  1  0.297300  0.116500  0.393700  1
  C  C196  1  0.797300  0.883500  0.106300  1
  C  C197  1  0.514600  0.725900  0.421960  1
  C  C198  1  0.014600  0.274100  0.078040  1
  C  C199  1  0.485400  0.274100  0.578040  1
  C  C200  1  0.985400  0.725900  0.921960  1
  C  C201  1  0.229100  0.448400  0.544400  1
  C  C202  1  0.729100  0.551600  0.955600  1
  C  C203  1  0.770900  0.551600  0.455600  1
  C  C204  1  0.270900  0.448400  0.044400  1
  C  C205  1  0.651700  0.795400  0.418620  1
  C  C206  1  0.151700  0.204600  0.081380  1
  C  C207  1  0.348300  0.204600  0.581380  1
  C  C208  1  0.848300  0.795400  0.918620  1
  C  C209  1  0.445100  0.675800  0.437200  1
  C  C210  1  0.945100  0.324200  0.062800  1
  C  C211  1  0.554900  0.324200  0.562800  1
  C  C212  1  0.054900  0.675800  0.937200  1
  C  C213  1  0.037900  0.778200  0.516000  1
  C  C214  1  0.537900  0.221800  0.984000  1
  C  C215  1  0.962100  0.221800  0.484000  1
  C  C216  1  0.462100  0.778200  0.016000  1
  C  C217  1  0.281300  0.792600  0.595100  1
  C  C218  1  0.781300  0.207400  0.904900  1
  C  C219  1  0.718700  0.207400  0.404900  1
  C  C220  1  0.218700  0.792600  0.095100  1
  C  C221  1  0.031500  0.848800  0.753700  1
  C  C222  1  0.531500  0.151200  0.746300  1
  C  C223  1  0.968500  0.151200  0.246300  1
  C  C224  1  0.468500  0.848800  0.253700  1
  C  C225  1  0.826600  0.947400  0.706040  1
  C  C226  1  0.326600  0.052600  0.793960  1
  C  C227  1  0.173400  0.052600  0.293960  1
  C  C228  1  0.673400  0.947400  0.206040  1
  C  C229  1  0.171300  0.614600  0.347980  1
  C  C230  1  0.671300  0.385400  0.152020  1
  C  C231  1  0.828700  0.385400  0.652020  1
  C  C232  1  0.328700  0.614600  0.847980  1
  C  C233  1  0.210600  0.772100  0.555300  1
  C  C234  1  0.710600  0.227900  0.944700  1
  C  C235  1  0.789400  0.227900  0.444700  1
  C  C236  1  0.289400  0.772100  0.055300  1
  C  C237  1  0.190700  0.711000  0.750390  1
  C  C238  1  0.690700  0.289000  0.749610  1
  C  C239  1  0.809300  0.289000  0.249610  1
  C  C240  1  0.309300  0.711000  0.250390  1
  C  C241  1  0.740800  0.932000  0.577700  1
  C  C242  1  0.240800  0.068000  0.922300  1
  C  C243  1  0.259200  0.068000  0.422300  1
  C  C244  1  0.759200  0.932000  0.077700  1
  C  C245  1  0.257900  0.851300  0.641500  1
  C  C246  1  0.757900  0.148700  0.858500  1
  C  C247  1  0.742100  0.148700  0.358500  1
  C  C248  1  0.242100  0.851300  0.141500  1
  C  C249  1  0.815500  0.796900  0.465840  1
  C  C250  1  0.315500  0.203100  0.034160  1
  C  C251  1  0.184500  0.203100  0.534160  1
  C  C252  1  0.684500  0.796900  0.965840  1
  C  C253  1  0.128900  0.529000  0.514930  1
  C  C254  1  0.628900  0.471000  0.985070  1
  C  C255  1  0.871100  0.471000  0.485070  1
  C  C256  1  0.371100  0.529000  0.014930  1
  C  C257  1  0.737400  0.753200  0.619540  1
  C  C258  1  0.237400  0.246800  0.880460  1
  C  C259  1  0.262600  0.246800  0.380460  1
  C  C260  1  0.762600  0.753200  0.119540  1
  C  C261  1  0.241700  0.558700  0.349170  1
  C  C262  1  0.741700  0.441300  0.150830  1
  C  C263  1  0.758300  0.441300  0.650830  1
  C  C264  1  0.258300  0.558700  0.849170  1
  C  C265  1  0.768600  0.924900  0.381400  1
  C  C266  1  0.268600  0.075100  0.118600  1
  C  C267  1  0.231400  0.075100  0.618600  1
  C  C268  1  0.731400  0.924900  0.881400  1
  C  C269  1  0.463800  0.645700  0.480660  1
  C  C270  1  0.963800  0.354300  0.019340  1
  C  C271  1  0.536200  0.354300  0.519340  1
  C  C272  1  0.036200  0.645700  0.980660  1
  C  C273  1  0.001200  0.651100  0.444480  1
  C  C274  1  0.501200  0.348900  0.055520  1
  C  C275  1  0.998800  0.348900  0.555520  1
  C  C276  1  0.498800  0.651100  0.944480  1
  C  C277  1  0.749400  0.823200  0.430200  1
  C  C278  1  0.249400  0.176800  0.069800  1
  C  C279  1  0.250600  0.176800  0.569800  1
  C  C280  1  0.750600  0.823200  0.930200  1
  C  C281  1  0.329300  0.579500  0.378510  1
  C  C282  1  0.829300  0.420500  0.121490  1
  C  C283  1  0.670700  0.420500  0.621490  1
  C  C284  1  0.170700  0.579500  0.878510  1
  C  C285  1  0.907400  0.878000  0.431300  1
  C  C286  1  0.407400  0.122000  0.068700  1
  C  C287  1  0.092600  0.122000  0.568700  1
  C  C288  1  0.592600  0.878000  0.931300  1
  C  C289  1  0.349500  0.655600  0.406340  1
  C  C290  1  0.849500  0.344400  0.093660  1
  C  C291  1  0.650500  0.344400  0.593660  1
  C  C292  1  0.150500  0.655600  0.906340  1
  C  C293  1  0.278000  0.710400  0.404010  1
  C  C294  1  0.778000  0.289600  0.095990  1
  C  C295  1  0.722000  0.289600  0.595990  1
  C  C296  1  0.222000  0.710400  0.904010  1
  C  C297  1  0.807400  0.876100  0.410500  1
  C  C298  1  0.307400  0.123900  0.089500  1
  C  C299  1  0.192600  0.123900  0.589500  1
  C  C300  1  0.692600  0.876100  0.910500  1
  C  C301  1  0.584300  0.804700  0.377800  1
  C  C302  1  0.084300  0.195300  0.122200  1
  C  C303  1  0.415700  0.195300  0.622200  1
  C  C304  1  0.915700  0.804700  0.877800  1
  C  C305  1  0.449900  0.460200  0.708800  1
  C  C306  1  0.949900  0.539800  0.791200  1
  C  C307  1  0.550100  0.539800  0.291200  1
  C  C308  1  0.050100  0.460200  0.208800  1
  C  C309  1  0.181800  0.456500  0.499900  1
  C  C310  1  0.681800  0.543500  0.000100  1
  C  C311  1  0.818200  0.543500  0.500100  1
  C  C312  1  0.318200  0.456500  0.999900  1
  C  C313  1  0.766700  0.833100  0.630430  1
  C  C314  1  0.266700  0.166900  0.869570  1
  C  C315  1  0.233300  0.166900  0.369570  1
  C  C316  1  0.733300  0.833100  0.130430  1
  C  C317  1  0.116600  0.806600  0.557900  1
  C  C318  1  0.616600  0.193400  0.942100  1
  C  C319  1  0.883400  0.193400  0.442100  1
  C  C320  1  0.383400  0.806600  0.057900  1
  C  C321  1  0.190000  0.692400  0.375900  1
  C  C322  1  0.690000  0.307600  0.124100  1
  C  C323  1  0.810000  0.307600  0.624100  1
  C  C324  1  0.310000  0.692400  0.875900  1
  C  C325  1  0.996200  0.920700  0.441400  1
  C  C326  1  0.496200  0.079300  0.058600  1
  C  C327  1  0.003800  0.079300  0.558600  1
  C  C328  1  0.503800  0.920700  0.941400  1
  C  C329  1  0.238200  0.641100  0.730200  1
  C  C330  1  0.738200  0.358900  0.769800  1
  C  C331  1  0.761800  0.358900  0.269800  1
  C  C332  1  0.261800  0.641100  0.230200  1
  C  C333  1  0.893800  0.954100  0.746800  1
  C  C334  1  0.393800  0.045900  0.753200  1
  C  C335  1  0.106200  0.045900  0.253200  1
  C  C336  1  0.606200  0.954100  0.246800  1
  C  C337  1  0.258500  0.418100  0.671400  1
  C  C338  1  0.758500  0.581900  0.828600  1
  C  C339  1  0.741500  0.581900  0.328600  1
  C  C340  1  0.241500  0.418100  0.171400  1
  C  C341  1  0.458900  0.584400  0.545300  1
  C  C342  1  0.958900  0.415600  0.954700  1
  C  C343  1  0.541100  0.415600  0.454700  1
  C  C344  1  0.041100  0.584400  0.045300  1
  C  C345  1  0.311800  0.373100  0.697400  1
  C  C346  1  0.811800  0.626900  0.802600  1
  C  C347  1  0.688200  0.626900  0.302600  1
  C  C348  1  0.188200  0.373100  0.197400  1
  C  C349  1  0.406700  0.394600  0.716300  1
  C  C350  1  0.906700  0.605400  0.783700  1
  C  C351  1  0.593300  0.605400  0.283700  1
  C  C352  1  0.093300  0.394600  0.216300  1
  C  C353  1  0.536000  0.932100  0.593200  1
  C  C354  1  0.036000  0.067900  0.906800  1
  C  C355  1  0.464000  0.067900  0.406800  1
  C  C356  1  0.964000  0.932100  0.093200  1
  C  C357  1  0.500200  0.810900  0.756800  1
  C  C358  1  0.000200  0.189100  0.743200  1
  C  C359  1  0.499800  0.189100  0.243200  1
  C  C360  1  0.999800  0.810900  0.256800  1
  N  N361  1  0.545400  0.669500  0.511990  1
  N  N362  1  0.045400  0.330500  0.988010  1
  N  N363  1  0.454600  0.330500  0.488010  1
  N  N364  1  0.954600  0.669500  0.011990  1
  N  N365  1  0.051400  0.647800  0.527240  1
  N  N366  1  0.551400  0.352200  0.972760  1
  N  N367  1  0.948600  0.352200  0.472760  1
  N  N368  1  0.448600  0.647800  0.027240  1
  N  N369  1  0.680000  0.717500  0.576010  1
  N  N370  1  0.180000  0.282500  0.923990  1
  N  N371  1  0.320000  0.282500  0.423990  1
  N  N372  1  0.820000  0.717500  0.076010  1
  N  N373  1  0.977800  0.725300  0.625350  1
  N  N374  1  0.477800  0.274700  0.874650  1
  N  N375  1  0.022200  0.274700  0.374650  1
  N  N376  1  0.522200  0.725300  0.125350  1
  N  N377  1  0.907300  0.831700  0.692620  1
  N  N378  1  0.407300  0.168300  0.807380  1
  N  N379  1  0.092700  0.168300  0.307380  1
  N  N380  1  0.592700  0.831700  0.192620  1
  N  N381  1  0.146800  0.563400  0.567900  1
  N  N382  1  0.646800  0.436600  0.932100  1
  N  N383  1  0.853200  0.436600  0.432100  1
  N  N384  1  0.353200  0.563400  0.067900  1
  N  N385  1  0.786000  0.760100  0.499730  1
  N  N386  1  0.286000  0.239900  0.000270  1
  N  N387  1  0.214000  0.239900  0.500270  1
  N  N388  1  0.714000  0.760100  0.999730  1
  N  N389  1  0.607000  0.747400  0.445230  1
  N  N390  1  0.107000  0.252600  0.054770  1
  N  N391  1  0.393000  0.252600  0.554770  1
  N  N392  1  0.893000  0.747400  0.945230  1
  N  N393  1  0.134700  0.658400  0.665150  1
  N  N394  1  0.634700  0.341600  0.834850  1
  N  N395  1  0.865300  0.341600  0.334850  1
  N  N396  1  0.365300  0.658400  0.165150  1
  N  N397  1  0.912800  0.822700  0.459740  1
  N  N398  1  0.412800  0.177300  0.040260  1
  N  N399  1  0.087200  0.177300  0.540260  1
  N  N400  1  0.587200  0.822700  0.959740  1
  N  N401  1  0.155300  0.908700  0.829740  1
  N  N402  1  0.655300  0.091300  0.670260  1
  N  N403  1  0.844700  0.091300  0.170260  1
  N  N404  1  0.344700  0.908700  0.329740  1
  N  N405  1  0.732900  0.964600  0.358000  1
  N  N406  1  0.232900  0.035400  0.142000  1
  N  N407  1  0.267100  0.035400  0.642000  1
  N  N408  1  0.767100  0.964600  0.858000  1
  Cl  Cl409  1  0.605090  0.872090  0.765340  1
  Cl  Cl410  1  0.105090  0.127910  0.734660  1
  Cl  Cl411  1  0.394910  0.127910  0.234660  1
  Cl  Cl412  1  0.894910  0.872090  0.265340  1
  Cl  Cl413  1  0.532030  0.725150  0.773410  1
  Cl  Cl414  1  0.032030  0.274850  0.726590  1
  Cl  Cl415  1  0.467970  0.274850  0.226590  1
  Cl  Cl416  1  0.967970  0.725150  0.273410  1
  Cl  Cl417  1  0.397890  0.857440  0.795810  1
  Cl  Cl418  1  0.897890  0.142560  0.704190  1
  Cl  Cl419  1  0.602110  0.142560  0.204190  1
  Cl  Cl420  1  0.102110  0.857440  0.295810  1
  F  F421  1  0.009000  0.903930  0.610130  1
  F  F422  1  0.509000  0.096070  0.889870  1
  F  F423  1  0.991000  0.096070  0.389870  1
  F  F424  1  0.491000  0.903930  0.110130  1
  F  F425  1  0.554000  0.840140  0.639990  1
  F  F426  1  0.054000  0.159860  0.860010  1
  F  F427  1  0.446000  0.159860  0.360010  1
  F  F428  1  0.946000  0.840140  0.139990  1
  F  F429  1  0.143300  0.943420  0.689670  1
  F  F430  1  0.643300  0.056580  0.810330  1
  F  F431  1  0.856700  0.056580  0.310330  1
  F  F432  1  0.356700  0.943420  0.189670  1
  F  F433  1  0.120000  0.746230  0.375620  1
  F  F434  1  0.620000  0.253770  0.124380  1
  F  F435  1  0.880000  0.253770  0.624380  1
  F  F436  1  0.380000  0.746230  0.875620  1
  F  F437  1  0.396600  0.523840  0.378480  1
  F  F438  1  0.896600  0.476160  0.121520  1
  F  F439  1  0.603400  0.476160  0.621520  1
  F  F440  1  0.103400  0.523840  0.878480  1
  F  F441  1  0.440000  0.568970  0.675980  1
  F  F442  1  0.940000  0.431030  0.824020  1
  F  F443  1  0.560000  0.431030  0.324020  1
  F  F444  1  0.060000  0.568970  0.175980  1
  F  F445  1  0.223400  0.485230  0.322340  1
  F  F446  1  0.723400  0.514770  0.177660  1
  F  F447  1  0.776600  0.514770  0.677660  1
  F  F448  1  0.276600  0.485230  0.822340  1
  F  F449  1  0.235800  0.714860  0.511690  1
  F  F450  1  0.735800  0.285140  0.988310  1
  F  F451  1  0.764200  0.285140  0.488310  1
  F  F452  1  0.264200  0.714860  0.011690  1
  F  F453  1  0.519200  0.031890  0.550940  1
  F  F454  1  0.019200  0.968110  0.949060  1
  F  F455  1  0.480800  0.968110  0.449060  1
  F  F456  1  0.980800  0.031890  0.050940  1
  F  F457  1  0.370600  0.757670  0.591090  1
  F  F458  1  0.870600  0.242330  0.908910  1
  F  F459  1  0.629400  0.242330  0.408910  1
  F  F460  1  0.129400  0.757670  0.091090  1
  F  F461  1  0.324600  0.870000  0.680790  1
  F  F462  1  0.824600  0.130000  0.819210  1
  F  F463  1  0.675400  0.130000  0.319210  1
  F  F464  1  0.175400  0.870000  0.180790  1
  F  F465  1  0.085400  0.595450  0.320830  1
  F  F466  1  0.585400  0.404550  0.179170  1
  F  F467  1  0.914600  0.404550  0.679170  1
  F  F468  1  0.414600  0.595450  0.820830  1
  F  F469  1  0.291100  0.785190  0.430960  1
  F  F470  1  0.791100  0.214810  0.069040  1
  F  F471  1  0.708900  0.214810  0.569040  1
  F  F472  1  0.208900  0.785190  0.930960  1
  F  F473  1  0.840300  0.933290  0.568740  1
  F  F474  1  0.340300  0.066710  0.931260  1
  F  F475  1  0.159700  0.066710  0.431260  1
  F  F476  1  0.659700  0.933290  0.068740  1
  F  F477  1  0.164200  0.396630  0.655430  1
  F  F478  1  0.664200  0.603370  0.844570  1
  F  F479  1  0.835800  0.603370  0.344570  1
  F  F480  1  0.335800  0.396630  0.155430  1
  F  F481  1  0.542400  0.481700  0.727560  1
  F  F482  1  0.042400  0.518300  0.772440  1
  F  F483  1  0.457600  0.518300  0.272440  1
  F  F484  1  0.957600  0.481700  0.227560  1
  F  F485  1  0.436400  0.933300  0.601400  1
  F  F486  1  0.936400  0.066700  0.898600  1
  F  F487  1  0.563600  0.066700  0.398600  1
  F  F488  1  0.063600  0.933300  0.101400  1
  F  F489  1  0.268400  0.309300  0.705880  1
  F  F490  1  0.768400  0.690700  0.794120  1
  F  F491  1  0.731600  0.690700  0.294120  1
  F  F492  1  0.231600  0.309300  0.205880  1
  F  F493  1  0.456400  0.352600  0.743110  1
  F  F494  1  0.956400  0.647400  0.756890  1
  F  F495  1  0.543600  0.647400  0.256890  1
  F  F496  1  0.043600  0.352600  0.243110  1
  F  F497  1  0.721100  0.026570  0.531140  1
  F  F498  1  0.221100  0.973430  0.968860  1
  F  F499  1  0.278900  0.973430  0.468860  1
  F  F500  1  0.778900  0.026570  0.031140  1
