# generated using pymatgen
data_InH27C15(S2O)3
_symmetry_space_group_name_H-M   'P 1'
_cell_length_a   9.93240000
_cell_length_b   19.73280000
_cell_length_c   23.64480000
_cell_angle_alpha   90.00000000
_cell_angle_beta   90.00000000
_cell_angle_gamma   90.00000000
_symmetry_Int_Tables_number   1
_chemical_formula_structural   InH27C15(S2O)3
_chemical_formula_sum   'In8 H216 C120 S48 O24'
_cell_volume   4634.24041420
_cell_formula_units_Z   8
loop_
 _symmetry_equiv_pos_site_id
 _symmetry_equiv_pos_as_xyz
  1  'x, y, z'
loop_
 _atom_site_type_symbol
 _atom_site_label
 _atom_site_symmetry_multiplicity
 _atom_site_fract_x
 _atom_site_fract_y
 _atom_site_fract_z
 _atom_site_occupancy
  In  In1  1  0.899530  0.059210  0.271600  1
  In  In2  1  0.600470  0.559210  0.728400  1
  In  In3  1  0.399530  0.940790  0.228400  1
  In  In4  1  0.100470  0.440790  0.771600  1
  In  In5  1  0.100470  0.940790  0.728400  1
  In  In6  1  0.399530  0.440790  0.271600  1
  In  In7  1  0.600470  0.059210  0.771600  1
  In  In8  1  0.899530  0.559210  0.228400  1
  H  H9  1  0.688100  0.011900  0.466600  1
  H  H10  1  0.811900  0.511900  0.533400  1
  H  H11  1  0.188100  0.988100  0.033400  1
  H  H12  1  0.311900  0.488100  0.966600  1
  H  H13  1  0.311900  0.988100  0.533400  1
  H  H14  1  0.188100  0.488100  0.466600  1
  H  H15  1  0.811900  0.011900  0.966600  1
  H  H16  1  0.688100  0.511900  0.033400  1
  H  H17  1  0.614500  0.083700  0.458000  1
  H  H18  1  0.885500  0.583700  0.542000  1
  H  H19  1  0.114500  0.916300  0.042000  1
  H  H20  1  0.385500  0.416300  0.958000  1
  H  H21  1  0.385500  0.916300  0.542000  1
  H  H22  1  0.114500  0.416300  0.458000  1
  H  H23  1  0.885500  0.083700  0.958000  1
  H  H24  1  0.614500  0.583700  0.042000  1
  H  H25  1  0.730600  0.125300  0.541200  1
  H  H26  1  0.769400  0.625300  0.458800  1
  H  H27  1  0.230600  0.874700  0.958800  1
  H  H28  1  0.269400  0.374700  0.041200  1
  H  H29  1  0.269400  0.874700  0.458800  1
  H  H30  1  0.230600  0.374700  0.541200  1
  H  H31  1  0.769400  0.125300  0.041200  1
  H  H32  1  0.730600  0.625300  0.958800  1
  H  H33  1  0.828700  0.048500  0.601900  1
  H  H34  1  0.671300  0.548500  0.398100  1
  H  H35  1  0.328700  0.951500  0.898100  1
  H  H36  1  0.171300  0.451500  0.101900  1
  H  H37  1  0.171300  0.951500  0.398100  1
  H  H38  1  0.328700  0.451500  0.601900  1
  H  H39  1  0.671300  0.048500  0.101900  1
  H  H40  1  0.828700  0.548500  0.898100  1
  H  H41  1  0.905600  0.049600  0.542400  1
  H  H42  1  0.594400  0.549600  0.457600  1
  H  H43  1  0.405600  0.950400  0.957600  1
  H  H44  1  0.094400  0.450400  0.042400  1
  H  H45  1  0.094400  0.950400  0.457600  1
  H  H46  1  0.405600  0.450400  0.542400  1
  H  H47  1  0.594400  0.049600  0.042400  1
  H  H48  1  0.905600  0.549600  0.957600  1
  H  H49  1  0.804500  0.988900  0.557000  1
  H  H50  1  0.695500  0.488900  0.443000  1
  H  H51  1  0.304500  0.011100  0.943000  1
  H  H52  1  0.195500  0.511100  0.057000  1
  H  H53  1  0.195500  0.011100  0.443000  1
  H  H54  1  0.304500  0.511100  0.557000  1
  H  H55  1  0.695500  0.988900  0.057000  1
  H  H56  1  0.804500  0.488900  0.943000  1
  H  H57  1  0.556100  0.013500  0.562700  1
  H  H58  1  0.943900  0.513500  0.437300  1
  H  H59  1  0.056100  0.986500  0.937300  1
  H  H60  1  0.443900  0.486500  0.062700  1
  H  H61  1  0.443900  0.986500  0.437300  1
  H  H62  1  0.056100  0.486500  0.562700  1
  H  H63  1  0.943900  0.013500  0.062700  1
  H  H64  1  0.556100  0.513500  0.937300  1
  H  H65  1  0.505100  0.087500  0.545300  1
  H  H66  1  0.994900  0.587500  0.454700  1
  H  H67  1  0.005100  0.912500  0.954700  1
  H  H68  1  0.494900  0.412500  0.045300  1
  H  H69  1  0.494900  0.912500  0.454700  1
  H  H70  1  0.005100  0.412500  0.545300  1
  H  H71  1  0.994900  0.087500  0.045300  1
  H  H72  1  0.505100  0.587500  0.954700  1
  H  H73  1  0.580000  0.076100  0.604500  1
  H  H74  1  0.920000  0.576100  0.395500  1
  H  H75  1  0.080000  0.923900  0.895500  1
  H  H76  1  0.420000  0.423900  0.104500  1
  H  H77  1  0.420000  0.923900  0.395500  1
  H  H78  1  0.080000  0.423900  0.604500  1
  H  H79  1  0.920000  0.076100  0.104500  1
  H  H80  1  0.580000  0.576100  0.895500  1
  H  H81  1  0.757900  0.845400  0.171600  1
  H  H82  1  0.742100  0.345400  0.828400  1
  H  H83  1  0.257900  0.154600  0.328400  1
  H  H84  1  0.242100  0.654600  0.671600  1
  H  H85  1  0.242100  0.154600  0.828400  1
  H  H86  1  0.257900  0.654600  0.171600  1
  H  H87  1  0.742100  0.845400  0.671600  1
  H  H88  1  0.757900  0.345400  0.328400  1
  H  H89  1  0.832100  0.774000  0.180100  1
  H  H90  1  0.667900  0.274000  0.819900  1
  H  H91  1  0.332100  0.226000  0.319900  1
  H  H92  1  0.167900  0.726000  0.680100  1
  H  H93  1  0.167900  0.226000  0.819900  1
  H  H94  1  0.332100  0.726000  0.180100  1
  H  H95  1  0.667900  0.774000  0.680100  1
  H  H96  1  0.832100  0.274000  0.319900  1
  H  H97  1  0.945600  0.884400  0.117100  1
  H  H98  1  0.554400  0.384400  0.882900  1
  H  H99  1  0.445600  0.115600  0.382900  1
  H  H100  1  0.054400  0.615600  0.617100  1
  H  H101  1  0.054400  0.115600  0.882900  1
  H  H102  1  0.445600  0.615600  0.117100  1
  H  H103  1  0.554400  0.884400  0.617100  1
  H  H104  1  0.945600  0.384400  0.382900  1
  H  H105  1  0.886100  0.825600  0.035000  1
  H  H106  1  0.613900  0.325600  0.965000  1
  H  H107  1  0.386100  0.174400  0.465000  1
  H  H108  1  0.113900  0.674400  0.535000  1
  H  H109  1  0.113900  0.174400  0.965000  1
  H  H110  1  0.386100  0.674400  0.035000  1
  H  H111  1  0.613900  0.825600  0.535000  1
  H  H112  1  0.886100  0.325600  0.465000  1
  H  H113  1  0.753100  0.837400  0.072000  1
  H  H114  1  0.746900  0.337400  0.928000  1
  H  H115  1  0.253100  0.162600  0.428000  1
  H  H116  1  0.246900  0.662600  0.572000  1
  H  H117  1  0.246900  0.162600  0.928000  1
  H  H118  1  0.253100  0.662600  0.072000  1
  H  H119  1  0.746900  0.837400  0.572000  1
  H  H120  1  0.753100  0.337400  0.428000  1
  H  H121  1  0.824500  0.764700  0.071500  1
  H  H122  1  0.675500  0.264700  0.928500  1
  H  H123  1  0.324500  0.235300  0.428500  1
  H  H124  1  0.175500  0.735300  0.571500  1
  H  H125  1  0.175500  0.235300  0.928500  1
  H  H126  1  0.324500  0.735300  0.071500  1
  H  H127  1  0.675500  0.764700  0.571500  1
  H  H128  1  0.824500  0.264700  0.428500  1
  H  H129  1  0.042500  0.748100  0.121800  1
  H  H130  1  0.457500  0.248100  0.878200  1
  H  H131  1  0.542500  0.251900  0.378200  1
  H  H132  1  0.957500  0.751900  0.621800  1
  H  H133  1  0.957500  0.251900  0.878200  1
  H  H134  1  0.542500  0.751900  0.121800  1
  H  H135  1  0.457500  0.748100  0.621800  1
  H  H136  1  0.042500  0.248100  0.378200  1
  H  H137  1  0.110200  0.809700  0.155400  1
  H  H138  1  0.389800  0.309700  0.844600  1
  H  H139  1  0.610200  0.190300  0.344600  1
  H  H140  1  0.889800  0.690300  0.655400  1
  H  H141  1  0.889800  0.190300  0.844600  1
  H  H142  1  0.610200  0.690300  0.155400  1
  H  H143  1  0.389800  0.809700  0.655400  1
  H  H144  1  0.110200  0.309700  0.344600  1
  H  H145  1  0.111900  0.808800  0.087700  1
  H  H146  1  0.388100  0.308800  0.912300  1
  H  H147  1  0.611900  0.191200  0.412300  1
  H  H148  1  0.888100  0.691200  0.587700  1
  H  H149  1  0.888100  0.191200  0.912300  1
  H  H150  1  0.611900  0.691200  0.087700  1
  H  H151  1  0.388100  0.808800  0.587700  1
  H  H152  1  0.111900  0.308800  0.412300  1
  H  H153  1  0.845900  0.299300  0.174400  1
  H  H154  1  0.654100  0.799300  0.825600  1
  H  H155  1  0.345900  0.700700  0.325600  1
  H  H156  1  0.154100  0.200700  0.674400  1
  H  H157  1  0.154100  0.700700  0.825600  1
  H  H158  1  0.345900  0.200700  0.174400  1
  H  H159  1  0.654100  0.299300  0.674400  1
  H  H160  1  0.845900  0.799300  0.325600  1
  H  H161  1  0.794700  0.245500  0.128100  1
  H  H162  1  0.705300  0.745500  0.871900  1
  H  H163  1  0.294700  0.754500  0.371900  1
  H  H164  1  0.205300  0.254500  0.628100  1
  H  H165  1  0.205300  0.754500  0.871900  1
  H  H166  1  0.294700  0.254500  0.128100  1
  H  H167  1  0.705300  0.245500  0.628100  1
  H  H168  1  0.794700  0.745500  0.371900  1
  H  H169  1  0.013200  0.338500  0.110100  1
  H  H170  1  0.486800  0.838500  0.889900  1
  H  H171  1  0.513200  0.661500  0.389900  1
  H  H172  1  0.986800  0.161500  0.610100  1
  H  H173  1  0.986800  0.661500  0.889900  1
  H  H174  1  0.513200  0.161500  0.110100  1
  H  H175  1  0.486800  0.338500  0.610100  1
  H  H176  1  0.013200  0.838500  0.389900  1
  H  H177  1  0.042300  0.240100  0.055400  1
  H  H178  1  0.457700  0.740100  0.944600  1
  H  H179  1  0.542300  0.759900  0.444600  1
  H  H180  1  0.957700  0.259900  0.555400  1
  H  H181  1  0.957700  0.759900  0.944600  1
  H  H182  1  0.542300  0.259900  0.055400  1
  H  H183  1  0.457700  0.240100  0.555400  1
  H  H184  1  0.042300  0.740100  0.444600  1
  H  H185  1  0.009600  0.302900  0.014800  1
  H  H186  1  0.490400  0.802900  0.985200  1
  H  H187  1  0.509600  0.697100  0.485200  1
  H  H188  1  0.990400  0.197100  0.514800  1
  H  H189  1  0.990400  0.697100  0.985200  1
  H  H190  1  0.509600  0.197100  0.014800  1
  H  H191  1  0.490400  0.302900  0.514800  1
  H  H192  1  0.009600  0.802900  0.485200  1
  H  H193  1  0.894600  0.248800  0.029200  1
  H  H194  1  0.605400  0.748800  0.970800  1
  H  H195  1  0.394600  0.751200  0.470800  1
  H  H196  1  0.105400  0.251200  0.529200  1
  H  H197  1  0.105400  0.751200  0.970800  1
  H  H198  1  0.394600  0.251200  0.029200  1
  H  H199  1  0.605400  0.248800  0.529200  1
  H  H200  1  0.894600  0.748800  0.470800  1
  H  H201  1  0.745100  0.345500  0.066500  1
  H  H202  1  0.754900  0.845500  0.933500  1
  H  H203  1  0.245100  0.654500  0.433500  1
  H  H204  1  0.254900  0.154500  0.566500  1
  H  H205  1  0.254900  0.654500  0.933500  1
  H  H206  1  0.245100  0.154500  0.066500  1
  H  H207  1  0.754900  0.345500  0.566500  1
  H  H208  1  0.745100  0.845500  0.433500  1
  H  H209  1  0.863000  0.396700  0.049200  1
  H  H210  1  0.637000  0.896700  0.950800  1
  H  H211  1  0.363000  0.603300  0.450800  1
  H  H212  1  0.137000  0.103300  0.549200  1
  H  H213  1  0.137000  0.603300  0.950800  1
  H  H214  1  0.363000  0.103300  0.049200  1
  H  H215  1  0.637000  0.396700  0.549200  1
  H  H216  1  0.863000  0.896700  0.450800  1
  H  H217  1  0.807000  0.395900  0.112700  1
  H  H218  1  0.693000  0.895900  0.887300  1
  H  H219  1  0.307000  0.604100  0.387300  1
  H  H220  1  0.193000  0.104100  0.612700  1
  H  H221  1  0.193000  0.604100  0.887300  1
  H  H222  1  0.307000  0.104100  0.112700  1
  H  H223  1  0.693000  0.395900  0.612700  1
  H  H224  1  0.807000  0.895900  0.387300  1
  C  C225  1  0.827100  0.077400  0.391580  1
  C  C226  1  0.672900  0.577400  0.608420  1
  C  C227  1  0.327100  0.922600  0.108420  1
  C  C228  1  0.172900  0.422600  0.891580  1
  C  C229  1  0.172900  0.922600  0.608420  1
  C  C230  1  0.327100  0.422600  0.391580  1
  C  C231  1  0.672900  0.077400  0.891580  1
  C  C232  1  0.827100  0.577400  0.108420  1
  C  C233  1  0.695900  0.061300  0.473300  1
  C  C234  1  0.804100  0.561300  0.526700  1
  C  C235  1  0.195900  0.938700  0.026700  1
  C  C236  1  0.304100  0.438700  0.973300  1
  C  C237  1  0.304100  0.938700  0.526700  1
  C  C238  1  0.195900  0.438700  0.473300  1
  C  C239  1  0.804100  0.061300  0.973300  1
  C  C240  1  0.695900  0.561300  0.026700  1
  C  C241  1  0.710200  0.075900  0.536700  1
  C  C242  1  0.789800  0.575900  0.463300  1
  C  C243  1  0.210200  0.924100  0.963300  1
  C  C244  1  0.289800  0.424100  0.036700  1
  C  C245  1  0.289800  0.924100  0.463300  1
  C  C246  1  0.210200  0.424100  0.536700  1
  C  C247  1  0.789800  0.075900  0.036700  1
  C  C248  1  0.710200  0.575900  0.963300  1
  C  C249  1  0.821500  0.037600  0.561500  1
  C  C250  1  0.678500  0.537600  0.438500  1
  C  C251  1  0.321500  0.962400  0.938500  1
  C  C252  1  0.178500  0.462400  0.061500  1
  C  C253  1  0.178500  0.962400  0.438500  1
  C  C254  1  0.321500  0.462400  0.561500  1
  C  C255  1  0.678500  0.037600  0.061500  1
  C  C256  1  0.821500  0.537600  0.938500  1
  C  C257  1  0.576000  0.062000  0.564800  1
  C  C258  1  0.924000  0.562000  0.435200  1
  C  C259  1  0.076000  0.938000  0.935200  1
  C  C260  1  0.424000  0.438000  0.064800  1
  C  C261  1  0.424000  0.938000  0.435200  1
  C  C262  1  0.076000  0.438000  0.564800  1
  C  C263  1  0.924000  0.062000  0.064800  1
  C  C264  1  0.576000  0.562000  0.935200  1
  C  C265  1  0.911500  0.915700  0.234950  1
  C  C266  1  0.588500  0.415700  0.765050  1
  C  C267  1  0.411500  0.084300  0.265050  1
  C  C268  1  0.088500  0.584300  0.734950  1
  C  C269  1  0.088500  0.084300  0.765050  1
  C  C270  1  0.411500  0.584300  0.234950  1
  C  C271  1  0.588500  0.915700  0.734950  1
  C  C272  1  0.911500  0.415700  0.265050  1
  C  C273  1  0.847000  0.823200  0.174670  1
  C  C274  1  0.653000  0.323200  0.825330  1
  C  C275  1  0.347000  0.176800  0.325330  1
  C  C276  1  0.153000  0.676800  0.674670  1
  C  C277  1  0.153000  0.176800  0.825330  1
  C  C278  1  0.347000  0.676800  0.174670  1
  C  C279  1  0.653000  0.823200  0.674670  1
  C  C280  1  0.847000  0.323200  0.325330  1
  C  C281  1  0.926200  0.834800  0.120460  1
  C  C282  1  0.573800  0.334800  0.879540  1
  C  C283  1  0.426200  0.165200  0.379540  1
  C  C284  1  0.073800  0.665200  0.620460  1
  C  C285  1  0.073800  0.165200  0.879540  1
  C  C286  1  0.426200  0.665200  0.120460  1
  C  C287  1  0.573800  0.834800  0.620460  1
  C  C288  1  0.926200  0.334800  0.379540  1
  C  C289  1  0.839800  0.813800  0.070200  1
  C  C290  1  0.660200  0.313800  0.929800  1
  C  C291  1  0.339800  0.186200  0.429800  1
  C  C292  1  0.160200  0.686200  0.570200  1
  C  C293  1  0.160200  0.186200  0.929800  1
  C  C294  1  0.339800  0.686200  0.070200  1
  C  C295  1  0.660200  0.813800  0.570200  1
  C  C296  1  0.839800  0.313800  0.429800  1
  C  C297  1  0.059500  0.797000  0.121400  1
  C  C298  1  0.440500  0.297000  0.878600  1
  C  C299  1  0.559500  0.203000  0.378600  1
  C  C300  1  0.940500  0.703000  0.621400  1
  C  C301  1  0.940500  0.203000  0.878600  1
  C  C302  1  0.559500  0.703000  0.121400  1
  C  C303  1  0.440500  0.797000  0.621400  1
  C  C304  1  0.059500  0.297000  0.378600  1
  C  C305  1  0.949300  0.174700  0.195760  1
  C  C306  1  0.550700  0.674700  0.804240  1
  C  C307  1  0.449300  0.825300  0.304240  1
  C  C308  1  0.050700  0.325300  0.695760  1
  C  C309  1  0.050700  0.825300  0.804240  1
  C  C310  1  0.449300  0.325300  0.195760  1
  C  C311  1  0.550700  0.174700  0.695760  1
  C  C312  1  0.949300  0.674700  0.304240  1
  C  C313  1  0.874100  0.270800  0.142060  1
  C  C314  1  0.625900  0.770800  0.857940  1
  C  C315  1  0.374100  0.729200  0.357940  1
  C  C316  1  0.125900  0.229200  0.642060  1
  C  C317  1  0.125900  0.729200  0.857940  1
  C  C318  1  0.374100  0.229200  0.142060  1
  C  C319  1  0.625900  0.270800  0.642060  1
  C  C320  1  0.874100  0.770800  0.357940  1
  C  C321  1  0.931700  0.314800  0.095180  1
  C  C322  1  0.568300  0.814800  0.904820  1
  C  C323  1  0.431700  0.685200  0.404820  1
  C  C324  1  0.068300  0.185200  0.595180  1
  C  C325  1  0.068300  0.685200  0.904820  1
  C  C326  1  0.431700  0.185200  0.095180  1
  C  C327  1  0.568300  0.314800  0.595180  1
  C  C328  1  0.931700  0.814800  0.404820  1
  C  C329  1  0.973200  0.272900  0.044100  1
  C  C330  1  0.526800  0.772900  0.955900  1
  C  C331  1  0.473200  0.727100  0.455900  1
  C  C332  1  0.026800  0.227100  0.544100  1
  C  C333  1  0.026800  0.727100  0.955900  1
  C  C334  1  0.473200  0.227100  0.044100  1
  C  C335  1  0.526800  0.272900  0.544100  1
  C  C336  1  0.973200  0.772900  0.455900  1
  C  C337  1  0.827500  0.367900  0.079470  1
  C  C338  1  0.672500  0.867900  0.920530  1
  C  C339  1  0.327500  0.632100  0.420530  1
  C  C340  1  0.172500  0.132100  0.579470  1
  C  C341  1  0.172500  0.632100  0.920530  1
  C  C342  1  0.327500  0.132100  0.079470  1
  C  C343  1  0.672500  0.367900  0.579470  1
  C  C344  1  0.827500  0.867900  0.420530  1
  S  S345  1  0.976340  0.108740  0.367030  1
  S  S346  1  0.523660  0.608740  0.632970  1
  S  S347  1  0.476340  0.891260  0.132970  1
  S  S348  1  0.023660  0.391260  0.867030  1
  S  S349  1  0.023660  0.891260  0.632970  1
  S  S350  1  0.476340  0.391260  0.367030  1
  S  S351  1  0.523660  0.108740  0.867030  1
  S  S352  1  0.976340  0.608740  0.132970  1
  S  S353  1  0.713490  0.038840  0.348680  1
  S  S354  1  0.786510  0.538840  0.651320  1
  S  S355  1  0.213490  0.961160  0.151320  1
  S  S356  1  0.286510  0.461160  0.848680  1
  S  S357  1  0.286510  0.961160  0.651320  1
  S  S358  1  0.213490  0.461160  0.348680  1
  S  S359  1  0.786510  0.038840  0.848680  1
  S  S360  1  0.713490  0.538840  0.151320  1
  S  S361  1  0.808170  0.970130  0.199710  1
  S  S362  1  0.691830  0.470130  0.800290  1
  S  S363  1  0.308170  0.029870  0.300290  1
  S  S364  1  0.191830  0.529870  0.699710  1
  S  S365  1  0.191830  0.029870  0.800290  1
  S  S366  1  0.308170  0.529870  0.199710  1
  S  S367  1  0.691830  0.970130  0.699710  1
  S  S368  1  0.808170  0.470130  0.300290  1
  S  S369  1  0.010590  0.942730  0.289020  1
  S  S370  1  0.489410  0.442730  0.710980  1
  S  S371  1  0.510590  0.057270  0.210980  1
  S  S372  1  0.989410  0.557270  0.789020  1
  S  S373  1  0.989410  0.057270  0.710980  1
  S  S374  1  0.510590  0.557270  0.289020  1
  S  S375  1  0.489410  0.942730  0.789020  1
  S  S376  1  0.010590  0.442730  0.210980  1
  S  S377  1  0.791580  0.164080  0.222340  1
  S  S378  1  0.708420  0.664080  0.777660  1
  S  S379  1  0.291580  0.835920  0.277660  1
  S  S380  1  0.208420  0.335920  0.722340  1
  S  S381  1  0.208420  0.835920  0.777660  1
  S  S382  1  0.291580  0.335920  0.222340  1
  S  S383  1  0.708420  0.164080  0.722340  1
  S  S384  1  0.791580  0.664080  0.277660  1
  S  S385  1  0.079010  0.121700  0.212480  1
  S  S386  1  0.420990  0.621700  0.787520  1
  S  S387  1  0.579010  0.878300  0.287520  1
  S  S388  1  0.920990  0.378300  0.712480  1
  S  S389  1  0.920990  0.878300  0.787520  1
  S  S390  1  0.579010  0.378300  0.212480  1
  S  S391  1  0.420990  0.121700  0.712480  1
  S  S392  1  0.079010  0.621700  0.287520  1
  O  O393  1  0.813800  0.087240  0.446490  1
  O  O394  1  0.686200  0.587240  0.553510  1
  O  O395  1  0.313800  0.912760  0.053510  1
  O  O396  1  0.186200  0.412760  0.946490  1
  O  O397  1  0.186200  0.912760  0.553510  1
  O  O398  1  0.313800  0.412760  0.446490  1
  O  O399  1  0.686200  0.087240  0.946490  1
  O  O400  1  0.813800  0.587240  0.053510  1
  O  O401  1  0.919500  0.850660  0.223260  1
  O  O402  1  0.580500  0.350660  0.776740  1
  O  O403  1  0.419500  0.149340  0.276740  1
  O  O404  1  0.080500  0.649340  0.723260  1
  O  O405  1  0.080500  0.149340  0.776740  1
  O  O406  1  0.419500  0.649340  0.223260  1
  O  O407  1  0.580500  0.850660  0.723260  1
  O  O408  1  0.919500  0.350660  0.276740  1
  O  O409  1  0.979400  0.223620  0.159640  1
  O  O410  1  0.520600  0.723620  0.840360  1
  O  O411  1  0.479400  0.776380  0.340360  1
  O  O412  1  0.020600  0.276380  0.659640  1
  O  O413  1  0.020600  0.776380  0.840360  1
  O  O414  1  0.479400  0.276380  0.159640  1
  O  O415  1  0.520600  0.223620  0.659640  1
  O  O416  1  0.979400  0.723620  0.340360  1
