# generated using pymatgen
data_H34PdC50SN4O9
_symmetry_space_group_name_H-M   'P 1'
_cell_length_a   25.71826316
_cell_length_b   25.71826316
_cell_length_c   25.71826316
_cell_angle_alpha   66.95373034
_cell_angle_beta   66.95373034
_cell_angle_gamma   66.95373034
_symmetry_Int_Tables_number   1
_chemical_formula_structural   H34PdC50SN4O9
_chemical_formula_sum   'H204 Pd6 C300 S6 N24 O54'
_cell_volume   13822.07403881
_cell_formula_units_Z   6
loop_
 _symmetry_equiv_pos_site_id
 _symmetry_equiv_pos_as_xyz
  1  'x, y, z'
loop_
 _atom_site_type_symbol
 _atom_site_label
 _atom_site_symmetry_multiplicity
 _atom_site_fract_x
 _atom_site_fract_y
 _atom_site_fract_z
 _atom_site_occupancy
  C  C1  1  0.204840  0.643940  0.211940  1
  C  C2  1  0.211940  0.204840  0.643940  1
  C  C3  1  0.643940  0.211940  0.204840  1
  C  C4  1  0.795160  0.356060  0.788060  1
  C  C5  1  0.788060  0.795160  0.356060  1
  C  C6  1  0.356060  0.788060  0.795160  1
  C  C7  1  0.199680  0.657180  0.109480  1
  C  C8  1  0.109480  0.199680  0.657180  1
  C  C9  1  0.657180  0.109480  0.199680  1
  C  C10  1  0.800320  0.342820  0.890520  1
  C  C11  1  0.890520  0.800320  0.342820  1
  C  C12  1  0.342820  0.890520  0.800320  1
  C  C13  1  0.671510  0.977510  0.342010  1.0
  C  C14  1  0.342010  0.671510  0.977510  1.0
  C  C15  1  0.977510  0.342010  0.671510  1.0
  C  C16  1  0.328490  0.022490  0.657990  1.0
  C  C17  1  0.657990  0.328490  0.022490  1.0
  C  C18  1  0.022490  0.657990  0.328490  1.0
  C  C19  1  0.628190  0.971990  0.322390  1.0
  C  C20  1  0.322390  0.628190  0.971990  1.0
  C  C21  1  0.971990  0.322390  0.628190  1.0
  C  C22  1  0.371810  0.028010  0.677610  1.0
  C  C23  1  0.677610  0.371810  0.028010  1.0
  C  C24  1  0.028010  0.677610  0.371810  1.0
  C  C25  1  0.578500  0.015100  0.320900  1.0
  C  C26  1  0.320900  0.578500  0.015100  1.0
  C  C27  1  0.015100  0.320900  0.578500  1.0
  C  C28  1  0.421500  0.984900  0.679100  1.0
  C  C29  1  0.679100  0.421500  0.984900  1.0
  C  C30  1  0.984900  0.679100  0.421500  1.0
  C  C31  1  0.567220  0.064120  0.338720  1.0
  C  C32  1  0.338720  0.567220  0.064120  1.0
  C  C33  1  0.064120  0.338720  0.567220  1.0
  C  C34  1  0.432780  0.935880  0.661280  1.0
  C  C35  1  0.661280  0.432780  0.935880  1.0
  C  C36  1  0.935880  0.661280  0.432780  1.0
  C  C37  1  0.513610  0.109110  0.338610  1.0
  C  C38  1  0.338610  0.513610  0.109110  1.0
  C  C39  1  0.109110  0.338610  0.513610  1.0
  C  C40  1  0.486390  0.890890  0.661390  1.0
  C  C41  1  0.661390  0.486390  0.890890  1.0
  C  C42  1  0.890890  0.661390  0.486390  1.0
  C  C43  1  0.506250  0.157250  0.354500  1.0
  C  C44  1  0.354500  0.506250  0.157250  1.0
  C  C45  1  0.157250  0.354500  0.506250  1.0
  C  C46  1  0.493750  0.842750  0.645500  1.0
  C  C47  1  0.645500  0.493750  0.842750  1.0
  C  C48  1  0.842750  0.645500  0.493750  1.0
  C  C49  1  0.548810  0.163750  0.370330  1.0
  C  C50  1  0.370330  0.548810  0.163750  1.0
  C  C51  1  0.163750  0.370330  0.548810  1.0
  C  C52  1  0.451190  0.836250  0.629670  1.0
  C  C53  1  0.629670  0.451190  0.836250  1.0
  C  C54  1  0.836250  0.629670  0.451190  1.0
  C  C55  1  0.601230  0.118410  0.372070  1.0
  C  C56  1  0.372070  0.601230  0.118410  1.0
  C  C57  1  0.118410  0.372070  0.601230  1.0
  C  C58  1  0.398770  0.881590  0.627930  1.0
  C  C59  1  0.627930  0.398770  0.881590  1.0
  C  C60  1  0.881590  0.627930  0.398770  1.0
  C  C61  1  0.610030  0.069190  0.356360  1.0
  C  C62  1  0.356360  0.610030  0.069190  1.0
  C  C63  1  0.069190  0.356360  0.610030  1.0
  C  C64  1  0.389970  0.930810  0.643640  1.0
  C  C65  1  0.643640  0.389970  0.930810  1.0
  C  C66  1  0.930810  0.643640  0.389970  1.0
  C  C67  1  0.446370  0.246270  0.311470  1.0
  C  C68  1  0.311470  0.446370  0.246270  1.0
  C  C69  1  0.246270  0.311470  0.446370  1.0
  C  C70  1  0.553630  0.753730  0.688530  1.0
  C  C71  1  0.688530  0.553630  0.753730  1.0
  C  C72  1  0.753730  0.688530  0.553630  1.0
  C  C73  1  0.386110  0.290970  0.324390  1.0
  C  C74  1  0.324390  0.386110  0.290970  1.0
  C  C75  1  0.290970  0.324390  0.386110  1.0
  C  C76  1  0.613890  0.709030  0.675610  1.0
  C  C77  1  0.675610  0.613890  0.709030  1.0
  C  C78  1  0.709030  0.675610  0.613890  1.0
  C  C79  1  0.341650  0.280530  0.377730  1.0
  C  C80  1  0.377730  0.341650  0.280530  1.0
  C  C81  1  0.280530  0.377730  0.341650  1.0
  C  C82  1  0.658350  0.719470  0.622270  1.0
  C  C83  1  0.622270  0.658350  0.719470  1.0
  C  C84  1  0.719470  0.622270  0.658350  1.0
  C  C85  1  0.474490  0.713690  0.916190  1.0
  C  C86  1  0.916190  0.474490  0.713690  1.0
  C  C87  1  0.713690  0.916190  0.474490  1.0
  C  C88  1  0.525510  0.286310  0.083810  1.0
  C  C89  1  0.083810  0.525510  0.286310  1.0
  C  C90  1  0.286310  0.083810  0.525510  1.0
  C  C91  1  0.525650  0.693750  0.876150  1.0
  C  C92  1  0.876150  0.525650  0.693750  1.0
  C  C93  1  0.693750  0.876150  0.525650  1.0
  C  C94  1  0.474350  0.306250  0.123850  1.0
  C  C95  1  0.123850  0.474350  0.306250  1.0
  C  C96  1  0.306250  0.123850  0.474350  1.0
  C  C97  1  0.572520  0.655920  0.894920  1.0
  C  C98  1  0.894920  0.572520  0.655920  1.0
  C  C99  1  0.655920  0.894920  0.572520  1.0
  C  C100  1  0.427480  0.344080  0.105080  1.0
  C  C101  1  0.105080  0.427480  0.344080  1.0
  C  C102  1  0.344080  0.105080  0.427480  1.0
  C  C103  1  0.566190  0.635290  0.955690  1.0
  C  C104  1  0.955690  0.566190  0.635290  1.0
  C  C105  1  0.635290  0.955690  0.566190  1.0
  C  C106  1  0.433810  0.364710  0.044310  1.0
  C  C107  1  0.044310  0.433810  0.364710  1.0
  C  C108  1  0.364710  0.044310  0.433810  1.0
  C  C109  1  0.613170  0.594270  0.979670  1.0
  C  C110  1  0.979670  0.613170  0.594270  1.0
  C  C111  1  0.594270  0.979670  0.613170  1.0
  C  C112  1  0.386830  0.405730  0.020330  1.0
  C  C113  1  0.020330  0.386830  0.405730  1.0
  C  C114  1  0.405730  0.020330  0.386830  1.0
  C  C115  1  0.602520  0.574220  0.038720  1.0
  C  C116  1  0.038720  0.602520  0.574220  1.0
  C  C117  1  0.574220  0.038720  0.602520  1.0
  C  C118  1  0.397480  0.425780  0.961280  1.0
  C  C119  1  0.961280  0.397480  0.425780  1.0
  C  C120  1  0.425780  0.961280  0.397480  1.0
  C  C121  1  0.549760  0.594860  0.077260  1.0
  C  C122  1  0.077260  0.549760  0.594860  1.0
  C  C123  1  0.594860  0.077260  0.549760  1.0
  C  C124  1  0.450240  0.405140  0.922740  1.0
  C  C125  1  0.922740  0.450240  0.405140  1.0
  C  C126  1  0.405140  0.922740  0.450240  1.0
  C  C127  1  0.503970  0.635240  0.054800  1.0
  C  C128  1  0.054800  0.503970  0.635240  1.0
  C  C129  1  0.635240  0.054800  0.503970  1.0
  C  C130  1  0.496030  0.364760  0.945200  1.0
  C  C131  1  0.945200  0.496030  0.364760  1.0
  C  C132  1  0.364760  0.945200  0.496030  1.0
  C  C133  1  0.511670  0.656340  0.993300  1.0
  C  C134  1  0.993300  0.511670  0.656340  1.0
  C  C135  1  0.656340  0.993300  0.511670  1.0
  C  C136  1  0.488330  0.343660  0.006700  1.0
  C  C137  1  0.006700  0.488330  0.343660  1.0
  C  C138  1  0.343660  0.006700  0.488330  1.0
  C  C139  1  0.680400  0.546000  0.076900  1.0
  C  C140  1  0.076900  0.680400  0.546000  1.0
  C  C141  1  0.546000  0.076900  0.680400  1.0
  C  C142  1  0.319600  0.454000  0.923100  1.0
  C  C143  1  0.923100  0.319600  0.454000  1.0
  C  C144  1  0.454000  0.923100  0.319600  1.0
  C  C145  1  0.041030  0.602930  0.157430  1.0
  C  C146  1  0.157430  0.041030  0.602930  1.0
  C  C147  1  0.602930  0.157430  0.041030  1.0
  C  C148  1  0.958970  0.397070  0.842570  1.0
  C  C149  1  0.842570  0.958970  0.397070  1.0
  C  C150  1  0.397070  0.842570  0.958970  1.0
  C  C151  1  0.059700  0.592300  0.104300  1.0
  C  C152  1  0.104300  0.059700  0.592300  1.0
  C  C153  1  0.592300  0.104300  0.059700  1.0
  C  C154  1  0.940300  0.407700  0.895700  1.0
  C  C155  1  0.895700  0.940300  0.407700  1.0
  C  C156  1  0.407700  0.895700  0.940300  1.0
  C  C157  1  0.027630  0.572530  0.089030  1.0
  C  C158  1  0.089030  0.027630  0.572530  1.0
  C  C159  1  0.572530  0.089030  0.027630  1.0
  C  C160  1  0.972370  0.427470  0.910970  1.0
  C  C161  1  0.910970  0.972370  0.427470  1.0
  C  C162  1  0.427470  0.910970  0.972370  1.0
  C  C163  1  0.972000  0.565100  0.130700  1.0
  C  C164  1  0.130700  0.972000  0.565100  1.0
  C  C165  1  0.565100  0.130700  0.972000  1.0
  C  C166  1  0.028000  0.434900  0.869300  1.0
  C  C167  1  0.869300  0.028000  0.434900  1.0
  C  C168  1  0.434900  0.869300  0.028000  1.0
  C  C169  1  0.935680  0.541980  0.121080  1.0
  C  C170  1  0.121080  0.935680  0.541980  1.0
  C  C171  1  0.541980  0.121080  0.935680  1.0
  C  C172  1  0.064320  0.458020  0.878920  1.0
  C  C173  1  0.878920  0.064320  0.458020  1.0
  C  C174  1  0.458020  0.878920  0.064320  1.0
  C  C175  1  0.885240  0.534040  0.163440  1.0
  C  C176  1  0.163440  0.885240  0.534040  1.0
  C  C177  1  0.534040  0.163440  0.885240  1.0
  C  C178  1  0.114760  0.465960  0.836560  1.0
  C  C179  1  0.836560  0.114760  0.465960  1.0
  C  C180  1  0.465960  0.836560  0.114760  1.0
  C  C181  1  0.872310  0.541510  0.215910  1.0
  C  C182  1  0.215910  0.872310  0.541510  1.0
  C  C183  1  0.541510  0.215910  0.872310  1.0
  C  C184  1  0.127690  0.458490  0.784090  1.0
  C  C185  1  0.784090  0.127690  0.458490  1.0
  C  C186  1  0.458490  0.784090  0.127690  1.0
  C  C187  1  0.908300  0.561030  0.228650  1.0
  C  C188  1  0.228650  0.908300  0.561030  1.0
  C  C189  1  0.561030  0.228650  0.908300  1.0
  C  C190  1  0.091700  0.438970  0.771350  1.0
  C  C191  1  0.771350  0.091700  0.438970  1.0
  C  C192  1  0.438970  0.771350  0.091700  1.0
  C  C193  1  0.958100  0.573300  0.185900  1.0
  C  C194  1  0.185900  0.958100  0.573300  1.0
  C  C195  1  0.573300  0.185900  0.958100  1.0
  C  C196  1  0.041900  0.426700  0.814100  1.0
  C  C197  1  0.814100  0.041900  0.426700  1.0
  C  C198  1  0.426700  0.814100  0.041900  1.0
  C  C199  1  0.841160  0.465560  0.174060  1.0
  C  C200  1  0.174060  0.841160  0.465560  1.0
  C  C201  1  0.465560  0.174060  0.841160  1.0
  C  C202  1  0.158840  0.534440  0.825940  1.0
  C  C203  1  0.825940  0.158840  0.534440  1.0
  C  C204  1  0.534440  0.825940  0.158840  1.0
  C  C205  1  0.793780  0.024180  0.264780  1.0
  C  C206  1  0.264780  0.793780  0.024180  1.0
  C  C207  1  0.024180  0.264780  0.793780  1.0
  C  C208  1  0.206220  0.975820  0.735220  1.0
  C  C209  1  0.735220  0.206220  0.975820  1.0
  C  C210  1  0.975820  0.735220  0.206220  1.0
  C  C211  1  0.824360  0.042460  0.204460  1.0
  C  C212  1  0.204460  0.824360  0.042460  1.0
  C  C213  1  0.042460  0.204460  0.824360  1.0
  C  C214  1  0.175640  0.957540  0.795540  1.0
  C  C215  1  0.795540  0.175640  0.957540  1.0
  C  C216  1  0.957540  0.795540  0.175640  1.0
  C  C217  1  0.826670  0.098270  0.181170  1.0
  C  C218  1  0.181170  0.826670  0.098270  1.0
  C  C219  1  0.098270  0.181170  0.826670  1.0
  C  C220  1  0.173330  0.901730  0.818830  1.0
  C  C221  1  0.818830  0.173330  0.901730  1.0
  C  C222  1  0.901730  0.818830  0.173330  1.0
  C  C223  1  0.802460  0.136660  0.214960  1.0
  C  C224  1  0.214960  0.802460  0.136660  1.0
  C  C225  1  0.136660  0.214960  0.802460  1.0
  C  C226  1  0.197540  0.863340  0.785040  1.0
  C  C227  1  0.785040  0.197540  0.863340  1.0
  C  C228  1  0.863340  0.785040  0.197540  1.0
  C  C229  1  0.803190  0.197190  0.191590  1.0
  C  C230  1  0.191590  0.803190  0.197190  1.0
  C  C231  1  0.197190  0.191590  0.803190  1.0
  C  C232  1  0.196810  0.802810  0.808410  1.0
  C  C233  1  0.808410  0.196810  0.802810  1.0
  C  C234  1  0.802810  0.808410  0.196810  1.0
  C  C235  1  0.775290  0.232290  0.227290  1.0
  C  C236  1  0.227290  0.775290  0.232290  1.0
  C  C237  1  0.232290  0.227290  0.775290  1.0
  C  C238  1  0.224710  0.767710  0.772710  1.0
  C  C239  1  0.772710  0.224710  0.767710  1.0
  C  C240  1  0.767710  0.772710  0.224710  1.0
  C  C241  1  0.742490  0.214290  0.284990  1.0
  C  C242  1  0.284990  0.742490  0.214290  1.0
  C  C243  1  0.214290  0.284990  0.742490  1.0
  C  C244  1  0.257510  0.785710  0.715010  1.0
  C  C245  1  0.715010  0.257510  0.785710  1.0
  C  C246  1  0.785710  0.715010  0.257510  1.0
  C  C247  1  0.739900  0.157280  0.306340  1.0
  C  C248  1  0.306340  0.739900  0.157280  1.0
  C  C249  1  0.157280  0.306340  0.739900  1.0
  C  C250  1  0.260100  0.842720  0.693660  1.0
  C  C251  1  0.693660  0.260100  0.842720  1.0
  C  C252  1  0.842720  0.693660  0.260100  1.0
  C  C253  1  0.770820  0.117220  0.274320  1.0
  C  C254  1  0.274320  0.770820  0.117220  1.0
  C  C255  1  0.117220  0.274320  0.770820  1.0
  C  C256  1  0.229180  0.882780  0.725680  1.0
  C  C257  1  0.725680  0.229180  0.882780  1.0
  C  C258  1  0.882780  0.725680  0.229180  1.0
  C  C259  1  0.742140  0.330840  0.177940  1.0
  C  C260  1  0.177940  0.742140  0.330840  1.0
  C  C261  1  0.330840  0.177940  0.742140  1.0
  C  C262  1  0.257860  0.669160  0.822060  1.0
  C  C263  1  0.822060  0.257860  0.669160  1.0
  C  C264  1  0.669160  0.822060  0.257860  1.0
  C  C265  1  0.750920  0.391120  0.158620  1.0
  C  C266  1  0.158620  0.750920  0.391120  1.0
  C  C267  1  0.391120  0.158620  0.750920  1.0
  C  C268  1  0.249080  0.608880  0.841380  1.0
  C  C269  1  0.841380  0.249080  0.608880  1.0
  C  C270  1  0.608880  0.841380  0.249080  1.0
  C  C271  1  0.791250  0.401150  0.173750  1.0
  C  C272  1  0.173750  0.791250  0.401150  1.0
  C  C273  1  0.401150  0.173750  0.791250  1.0
  C  C274  1  0.208750  0.598850  0.826250  1.0
  C  C275  1  0.826250  0.208750  0.598850  1.0
  C  C276  1  0.598850  0.826250  0.208750  1.0
  C  C277  1  0.795280  0.457080  0.157680  1.0
  C  C278  1  0.157680  0.795280  0.457080  1.0
  C  C279  1  0.457080  0.157680  0.795280  1.0
  C  C280  1  0.204720  0.542920  0.842320  1.0
  C  C281  1  0.842320  0.204720  0.542920  1.0
  C  C282  1  0.542920  0.842320  0.204720  1.0
  C  C283  1  0.760680  0.502880  0.125780  1.0
  C  C284  1  0.125780  0.760680  0.502880  1.0
  C  C285  1  0.502880  0.125780  0.760680  1.0
  C  C286  1  0.239320  0.497120  0.874220  1.0
  C  C287  1  0.874220  0.239320  0.497120  1.0
  C  C288  1  0.497120  0.874220  0.239320  1.0
  C  C289  1  0.719240  0.493040  0.110940  1.0
  C  C290  1  0.110940  0.719240  0.493040  1.0
  C  C291  1  0.493040  0.110940  0.719240  1.0
  C  C292  1  0.280760  0.506960  0.889060  1.0
  C  C293  1  0.889060  0.280760  0.506960  1.0
  C  C294  1  0.506960  0.889060  0.280760  1.0
  C  C295  1  0.715400  0.437100  0.127100  1.0
  C  C296  1  0.127100  0.715400  0.437100  1.0
  C  C297  1  0.437100  0.127100  0.715400  1.0
  C  C298  1  0.284600  0.562900  0.872900  1.0
  C  C299  1  0.872900  0.284600  0.562900  1.0
  C  C300  1  0.562900  0.872900  0.284600  1.0
  H  H301  1  0.186200  0.654800  0.249000  1
  H  H302  1  0.249000  0.186200  0.654800  1
  H  H303  1  0.654800  0.249000  0.186200  1
  H  H304  1  0.813800  0.345200  0.751000  1
  H  H305  1  0.751000  0.813800  0.345200  1
  H  H306  1  0.345200  0.751000  0.813800  1
  H  H307  1  0.240900  0.656600  0.191000  1
  H  H308  1  0.191000  0.240900  0.656600  1
  H  H309  1  0.656600  0.191000  0.240900  1
  H  H310  1  0.759100  0.343400  0.809000  1
  H  H311  1  0.809000  0.759100  0.343400  1
  H  H312  1  0.343400  0.809000  0.759100  1
  H  H313  1  0.214800  0.601100  0.220400  1
  H  H314  1  0.220400  0.214800  0.601100  1
  H  H315  1  0.601100  0.220400  0.214800  1
  H  H316  1  0.785200  0.398900  0.779600  1
  H  H317  1  0.779600  0.785200  0.398900  1
  H  H318  1  0.398900  0.779600  0.785200  1
  H  H319  1  0.177000  0.674600  0.080600  1
  H  H320  1  0.080600  0.177000  0.674600  1
  H  H321  1  0.674600  0.080600  0.177000  1
  H  H322  1  0.823000  0.325400  0.919400  1
  H  H323  1  0.919400  0.823000  0.325400  1
  H  H324  1  0.325400  0.919400  0.823000  1
  H  H325  1  0.211700  0.614200  0.118600  1
  H  H326  1  0.118600  0.211700  0.614200  1
  H  H327  1  0.614200  0.118600  0.211700  1
  H  H328  1  0.788300  0.385800  0.881400  1
  H  H329  1  0.881400  0.788300  0.385800  1
  H  H330  1  0.385800  0.881400  0.788300  1
  H  H331  1  0.234700  0.671300  0.093100  1
  H  H332  1  0.093100  0.234700  0.671300  1
  H  H333  1  0.671300  0.093100  0.234700  1
  H  H334  1  0.765300  0.328700  0.906900  1
  H  H335  1  0.906900  0.765300  0.328700  1
  H  H336  1  0.328700  0.906900  0.765300  1
  H  H337  1  0.707100  0.946900  0.343300  1.0
  H  H338  1  0.343300  0.707100  0.946900  1.0
  H  H339  1  0.946900  0.343300  0.707100  1.0
  H  H340  1  0.292900  0.053100  0.656700  1.0
  H  H341  1  0.656700  0.292900  0.053100  1.0
  H  H342  1  0.053100  0.656700  0.292900  1.0
  H  H343  1  0.635500  0.938400  0.310900  1.0
  H  H344  1  0.310900  0.635500  0.938400  1.0
  H  H345  1  0.938400  0.310900  0.635500  1.0
  H  H346  1  0.364500  0.061600  0.689100  1.0
  H  H347  1  0.689100  0.364500  0.061600  1.0
  H  H348  1  0.061600  0.689100  0.364500  1.0
  H  H349  1  0.550300  0.012400  0.307700  1.0
  H  H350  1  0.307700  0.550300  0.012400  1.0
  H  H351  1  0.012400  0.307700  0.550300  1.0
  H  H352  1  0.449700  0.987600  0.692300  1.0
  H  H353  1  0.692300  0.449700  0.987600  1.0
  H  H354  1  0.987600  0.692300  0.449700  1.0
  H  H355  1  0.483600  0.106300  0.327900  1.0
  H  H356  1  0.327900  0.483600  0.106300  1.0
  H  H357  1  0.106300  0.327900  0.483600  1.0
  H  H358  1  0.516400  0.893700  0.672100  1.0
  H  H359  1  0.672100  0.516400  0.893700  1.0
  H  H360  1  0.893700  0.672100  0.516400  1.0
  H  H361  1  0.542400  0.198500  0.379700  1.0
  H  H362  1  0.379700  0.542400  0.198500  1.0
  H  H363  1  0.198500  0.379700  0.542400  1.0
  H  H364  1  0.457600  0.801500  0.620300  1.0
  H  H365  1  0.620300  0.457600  0.801500  1.0
  H  H366  1  0.801500  0.620300  0.457600  1.0
  H  H367  1  0.630400  0.121300  0.383900  1.0
  H  H368  1  0.383900  0.630400  0.121300  1.0
  H  H369  1  0.121300  0.383900  0.630400  1.0
  H  H370  1  0.369600  0.878700  0.616100  1.0
  H  H371  1  0.616100  0.369600  0.878700  1.0
  H  H372  1  0.878700  0.616100  0.369600  1.0
  H  H373  1  0.347100  0.243800  0.407000  1.0
  H  H374  1  0.407000  0.347100  0.243800  1.0
  H  H375  1  0.243800  0.407000  0.347100  1.0
  H  H376  1  0.652900  0.756200  0.593000  1.0
  H  H377  1  0.593000  0.652900  0.756200  1.0
  H  H378  1  0.756200  0.593000  0.652900  1.0
  H  H379  1  0.443300  0.743100  0.901200  1.0
  H  H380  1  0.901200  0.443300  0.743100  1.0
  H  H381  1  0.743100  0.901200  0.443300  1.0
  H  H382  1  0.556700  0.256900  0.098800  1.0
  H  H383  1  0.098800  0.556700  0.256900  1.0
  H  H384  1  0.256900  0.098800  0.556700  1.0
  H  H385  1  0.527900  0.706600  0.835400  1.0
  H  H386  1  0.835400  0.527900  0.706600  1.0
  H  H387  1  0.706600  0.835400  0.527900  1.0
  H  H388  1  0.472100  0.293400  0.164600  1.0
  H  H389  1  0.164600  0.472100  0.293400  1.0
  H  H390  1  0.293400  0.164600  0.472100  1.0
  H  H391  1  0.609100  0.643500  0.867700  1.0
  H  H392  1  0.867700  0.609100  0.643500  1.0
  H  H393  1  0.643500  0.867700  0.609100  1.0
  H  H394  1  0.390900  0.356500  0.132300  1.0
  H  H395  1  0.132300  0.390900  0.356500  1.0
  H  H396  1  0.356500  0.132300  0.390900  1.0
  H  H397  1  0.651200  0.581300  0.954700  1.0
  H  H398  1  0.954700  0.651200  0.581300  1.0
  H  H399  1  0.581300  0.954700  0.651200  1.0
  H  H400  1  0.348800  0.418700  0.045300  1.0
  H  H401  1  0.045300  0.348800  0.418700  1.0
  H  H402  1  0.418700  0.045300  0.348800  1.0
  H  H403  1  0.545000  0.581600  0.118500  1.0
  H  H404  1  0.118500  0.545000  0.581600  1.0
  H  H405  1  0.581600  0.118500  0.545000  1.0
  H  H406  1  0.455000  0.418400  0.881500  1.0
  H  H407  1  0.881500  0.455000  0.418400  1.0
  H  H408  1  0.418400  0.881500  0.455000  1.0
  H  H409  1  0.467000  0.649000  0.080800  1.0
  H  H410  1  0.080800  0.467000  0.649000  1.0
  H  H411  1  0.649000  0.080800  0.467000  1.0
  H  H412  1  0.533000  0.351000  0.919200  1.0
  H  H413  1  0.919200  0.533000  0.351000  1.0
  H  H414  1  0.351000  0.919200  0.533000  1.0
  H  H415  1  0.064800  0.617200  0.165800  1.0
  H  H416  1  0.165800  0.064800  0.617200  1.0
  H  H417  1  0.617200  0.165800  0.064800  1.0
  H  H418  1  0.935200  0.382800  0.834200  1.0
  H  H419  1  0.834200  0.935200  0.382800  1.0
  H  H420  1  0.382800  0.834200  0.935200  1.0
  H  H421  1  0.095900  0.598900  0.077400  1.0
  H  H422  1  0.077400  0.095900  0.598900  1.0
  H  H423  1  0.598900  0.077400  0.095900  1.0
  H  H424  1  0.904100  0.401100  0.922600  1.0
  H  H425  1  0.922600  0.904100  0.401100  1.0
  H  H426  1  0.401100  0.922600  0.904100  1.0
  H  H427  1  0.041100  0.563800  0.052400  1.0
  H  H428  1  0.052400  0.041100  0.563800  1.0
  H  H429  1  0.563800  0.052400  0.041100  1.0
  H  H430  1  0.958900  0.436200  0.947600  1.0
  H  H431  1  0.947600  0.958900  0.436200  1.0
  H  H432  1  0.436200  0.947600  0.958900  1.0
  H  H433  1  0.946500  0.532300  0.085500  1.0
  H  H434  1  0.085500  0.946500  0.532300  1.0
  H  H435  1  0.532300  0.085500  0.946500  1.0
  H  H436  1  0.053500  0.467700  0.914500  1.0
  H  H437  1  0.914500  0.053500  0.467700  1.0
  H  H438  1  0.467700  0.914500  0.053500  1.0
  H  H439  1  0.837700  0.533400  0.245400  1.0
  H  H440  1  0.245400  0.837700  0.533400  1.0
  H  H441  1  0.533400  0.245400  0.837700  1.0
  H  H442  1  0.162300  0.466600  0.754600  1.0
  H  H443  1  0.754600  0.162300  0.466600  1.0
  H  H444  1  0.466600  0.754600  0.162300  1.0
  H  H445  1  0.898600  0.565700  0.266500  1.0
  H  H446  1  0.266500  0.898600  0.565700  1.0
  H  H447  1  0.565700  0.266500  0.898600  1.0
  H  H448  1  0.101400  0.434300  0.733500  1.0
  H  H449  1  0.733500  0.101400  0.434300  1.0
  H  H450  1  0.434300  0.733500  0.101400  1.0
  H  H451  1  0.790200  0.985100  0.281400  1.0
  H  H452  1  0.281400  0.790200  0.985100  1.0
  H  H453  1  0.985100  0.281400  0.790200  1.0
  H  H454  1  0.209800  0.014900  0.718600  1.0
  H  H455  1  0.718600  0.209800  0.014900  1.0
  H  H456  1  0.014900  0.718600  0.209800  1.0
  H  H457  1  0.842700  0.015800  0.181100  1.0
  H  H458  1  0.181100  0.842700  0.015800  1.0
  H  H459  1  0.015800  0.181100  0.842700  1.0
  H  H460  1  0.157300  0.984200  0.818900  1.0
  H  H461  1  0.818900  0.157300  0.984200  1.0
  H  H462  1  0.984200  0.818900  0.157300  1.0
  H  H463  1  0.845400  0.111700  0.140400  1.0
  H  H464  1  0.140400  0.845400  0.111700  1.0
  H  H465  1  0.111700  0.140400  0.845400  1.0
  H  H466  1  0.154600  0.888300  0.859600  1.0
  H  H467  1  0.859600  0.154600  0.888300  1.0
  H  H468  1  0.888300  0.859600  0.154600  1.0
  H  H469  1  0.823000  0.212100  0.151500  1.0
  H  H470  1  0.151500  0.823000  0.212100  1.0
  H  H471  1  0.212100  0.151500  0.823000  1.0
  H  H472  1  0.177000  0.787900  0.848500  1.0
  H  H473  1  0.848500  0.177000  0.787900  1.0
  H  H474  1  0.787900  0.848500  0.177000  1.0
  H  H475  1  0.722400  0.240600  0.308800  1.0
  H  H476  1  0.308800  0.722400  0.240600  1.0
  H  H477  1  0.240600  0.308800  0.722400  1.0
  H  H478  1  0.277600  0.759400  0.691200  1.0
  H  H479  1  0.691200  0.277600  0.759400  1.0
  H  H480  1  0.759400  0.691200  0.277600  1.0
  H  H481  1  0.715600  0.144900  0.345000  1.0
  H  H482  1  0.345000  0.715600  0.144900  1.0
  H  H483  1  0.144900  0.345000  0.715600  1.0
  H  H484  1  0.284400  0.855100  0.655000  1.0
  H  H485  1  0.655000  0.284400  0.855100  1.0
  H  H486  1  0.855100  0.655000  0.284400  1.0
  H  H487  1  0.816200  0.369300  0.195200  1.0
  H  H488  1  0.195200  0.816200  0.369300  1.0
  H  H489  1  0.369300  0.195200  0.816200  1.0
  H  H490  1  0.183800  0.630700  0.804800  1.0
  H  H491  1  0.804800  0.183800  0.630700  1.0
  H  H492  1  0.630700  0.804800  0.183800  1.0
  H  H493  1  0.764600  0.541400  0.113700  1.0
  H  H494  1  0.113700  0.764600  0.541400  1.0
  H  H495  1  0.541400  0.113700  0.764600  1.0
  H  H496  1  0.235400  0.458600  0.886300  1.0
  H  H497  1  0.886300  0.235400  0.458600  1.0
  H  H498  1  0.458600  0.886300  0.235400  1.0
  H  H499  1  0.687800  0.430100  0.116400  1.0
  H  H500  1  0.116400  0.687800  0.430100  1.0
  H  H501  1  0.430100  0.116400  0.687800  1.0
  H  H502  1  0.312200  0.569900  0.883600  1.0
  H  H503  1  0.883600  0.312200  0.569900  1.0
  H  H504  1  0.569900  0.883600  0.312200  1.0
  N  N505  1  0.662740  0.024060  0.357960  1.0
  N  N506  1  0.357960  0.662740  0.024060  1.0
  N  N507  1  0.024060  0.357960  0.662740  1.0
  N  N508  1  0.337260  0.975940  0.642040  1.0
  N  N509  1  0.642040  0.337260  0.975940  1.0
  N  N510  1  0.975940  0.642040  0.337260  1.0
  N  N511  1  0.465450  0.696140  0.971730  1.0
  N  N512  1  0.971730  0.465450  0.696140  1.0
  N  N513  1  0.696140  0.971730  0.465450  1.0
  N  N514  1  0.534550  0.303860  0.028270  1.0
  N  N515  1  0.028270  0.534550  0.303860  1.0
  N  N516  1  0.303860  0.028270  0.534550  1.0
  N  N517  1  0.993630  0.594980  0.196370  1.0
  N  N518  1  0.196370  0.993630  0.594980  1.0
  N  N519  1  0.594980  0.196370  0.993630  1.0
  N  N520  1  0.006370  0.405020  0.803630  1.0
  N  N521  1  0.803630  0.006370  0.405020  1.0
  N  N522  1  0.405020  0.803630  0.006370  1.0
  N  N523  1  0.770670  0.059480  0.297860  1.0
  N  N524  1  0.297860  0.770670  0.059480  1.0
  N  N525  1  0.059480  0.297860  0.770670  1.0
  N  N526  1  0.229330  0.940520  0.702140  1.0
  N  N527  1  0.702140  0.229330  0.940520  1.0
  N  N528  1  0.940520  0.702140  0.229330  1.0
  O  O529  1  0.108920  0.650190  0.199430  1
  O  O530  1  0.199430  0.108920  0.650190  1
  O  O531  1  0.650190  0.199430  0.108920  1
  O  O532  1  0.891080  0.349810  0.800570  1
  O  O533  1  0.800570  0.891080  0.349810  1
  O  O534  1  0.349810  0.800570  0.891080  1
  O  O535  1  0.451280  0.201170  0.359070  1.0
  O  O536  1  0.359070  0.451280  0.201170  1.0
  O  O537  1  0.201170  0.359070  0.451280  1.0
  O  O538  1  0.548720  0.798830  0.640930  1.0
  O  O539  1  0.640930  0.548720  0.798830  1.0
  O  O540  1  0.798830  0.640930  0.548720  1.0
  O  O541  1  0.484630  0.251710  0.266000  1.0
  O  O542  1  0.266000  0.484630  0.251710  1.0
  O  O543  1  0.251710  0.266000  0.484630  1.0
  O  O544  1  0.515370  0.748290  0.734000  1.0
  O  O545  1  0.734000  0.515370  0.748290  1.0
  O  O546  1  0.748290  0.734000  0.515370  1.0
  O  O547  1  0.646190  0.528720  0.063260  1.0
  O  O548  1  0.063260  0.646190  0.528720  1.0
  O  O549  1  0.528720  0.063260  0.646190  1.0
  O  O550  1  0.353810  0.471280  0.936740  1.0
  O  O551  1  0.936740  0.353810  0.471280  1.0
  O  O552  1  0.471280  0.936740  0.353810  1.0
  O  O553  1  0.680200  0.594790  0.066410  1.0
  O  O554  1  0.066410  0.680200  0.594790  1.0
  O  O555  1  0.594790  0.066410  0.680200  1.0
  O  O556  1  0.319800  0.405210  0.933590  1.0
  O  O557  1  0.933590  0.319800  0.405210  1.0
  O  O558  1  0.405210  0.933590  0.319800  1.0
  O  O559  1  0.845500  0.518510  0.150370  1.0
  O  O560  1  0.150370  0.845500  0.518510  1.0
  O  O561  1  0.518510  0.150370  0.845500  1.0
  O  O562  1  0.154500  0.481490  0.849630  1.0
  O  O563  1  0.849630  0.154500  0.481490  1.0
  O  O564  1  0.481490  0.849630  0.154500  1.0
  O  O565  1  0.871440  0.427420  0.202980  1.0
  O  O566  1  0.202980  0.871440  0.427420  1.0
  O  O567  1  0.427420  0.202980  0.871440  1.0
  O  O568  1  0.128560  0.572580  0.797020  1.0
  O  O569  1  0.797020  0.128560  0.572580  1.0
  O  O570  1  0.572580  0.797020  0.128560  1.0
  O  O571  1  0.779390  0.290530  0.205330  1.0
  O  O572  1  0.205330  0.779390  0.290530  1.0
  O  O573  1  0.290530  0.205330  0.779390  1.0
  O  O574  1  0.220610  0.709470  0.794670  1.0
  O  O575  1  0.794670  0.220610  0.709470  1.0
  O  O576  1  0.709470  0.794670  0.220610  1.0
  O  O577  1  0.705270  0.321790  0.166950  1.0
  O  O578  1  0.166950  0.705270  0.321790  1.0
  O  O579  1  0.321790  0.166950  0.705270  1.0
  O  O580  1  0.294730  0.678210  0.833050  1.0
  O  O581  1  0.833050  0.294730  0.678210  1.0
  O  O582  1  0.678210  0.833050  0.294730  1.0
  Pd  Pd583  1  0.730190  0.021432  0.383171  1.0
  Pd  Pd584  1  0.383171  0.730190  0.021432  1.0
  Pd  Pd585  1  0.021432  0.383171  0.730190  1.0
  Pd  Pd586  1  0.269810  0.978568  0.616829  1.0
  Pd  Pd587  1  0.616829  0.269810  0.978568  1.0
  Pd  Pd588  1  0.978568  0.616829  0.269810  1.0
  S  S589  1  0.158430  0.676890  0.170260  1
  S  S590  1  0.170260  0.158430  0.676890  1
  S  S591  1  0.676890  0.170260  0.158430  1
  S  S592  1  0.841570  0.323110  0.829740  1
  S  S593  1  0.829740  0.841570  0.323110  1
  S  S594  1  0.323110  0.829740  0.841570  1
