# generated using pymatgen
data_H60Pd3C92S8(N17O25)2
_symmetry_space_group_name_H-M   'P 1'
_cell_length_a   15.51250000
_cell_length_b   20.14529805
_cell_length_c   20.14741790
_cell_angle_alpha   62.54463667
_cell_angle_beta   67.35781856
_cell_angle_gamma   67.35530364
_symmetry_Int_Tables_number   1
_chemical_formula_structural   H60Pd3C92S8(N17O25)2
_chemical_formula_sum   'H120 Pd6 C184 S16 N68 O100'
_cell_volume   4988.12467718
_cell_formula_units_Z   2
loop_
 _symmetry_equiv_pos_site_id
 _symmetry_equiv_pos_as_xyz
  1  'x, y, z'
loop_
 _atom_site_type_symbol
 _atom_site_label
 _atom_site_symmetry_multiplicity
 _atom_site_fract_x
 _atom_site_fract_y
 _atom_site_fract_z
 _atom_site_occupancy
  C  C1  1  0.689300  0.635400  0.040000  1
  C  C2  1  0.364700  0.864600  0.460000  1
  C  C3  1  0.310700  0.364600  0.960000  1
  C  C4  1  0.635300  0.135400  0.540000  1
  C  C5  1  0.891100  0.589100  0.940700  1
  C  C6  1  0.420900  0.910900  0.559300  1
  C  C7  1  0.108900  0.410900  0.059300  1
  C  C8  1  0.579100  0.089100  0.440700  1
  C  C9  1  0.932500  0.544000  0.053000  1
  C  C10  1  0.529500  0.956000  0.447000  1
  C  C11  1  0.067500  0.456000  0.947000  1
  C  C12  1  0.470500  0.044000  0.553000  1
  C  C13  1  0.740600  0.527800  0.069000  1
  C  C14  1  0.337400  0.972200  0.431000  1
  C  C15  1  0.259400  0.472200  0.931000  1
  C  C16  1  0.662600  0.027800  0.569000  1
  C  C17  1  0.952300  0.798600  0.328200  1
  C  C18  1  0.079100  0.701400  0.171800  1
  C  C19  1  0.047700  0.201400  0.671800  1
  C  C20  1  0.920900  0.298600  0.828200  1
  C  C21  1  0.834200  0.899400  0.220200  1
  C  C22  1  0.953800  0.600600  0.279800  1
  C  C23  1  0.165800  0.100600  0.779800  1
  C  C24  1  0.046200  0.399400  0.720200  1
  C  C25  1  0.858900  0.714900  0.377300  1
  C  C26  1  0.951100  0.785100  0.122700  1
  C  C27  1  0.141100  0.285100  0.622700  1
  C  C28  1  0.048900  0.214900  0.877300  1
  C  C29  1  0.848500  0.824500  0.223100  1
  C  C30  1  0.896100  0.675500  0.276900  1
  C  C31  1  0.151500  0.175500  0.776900  1
  C  C32  1  0.103900  0.324500  0.723100  1
  C  C33  1  0.137400  0.731000  0.222200  1
  C  C34  1  0.090600  0.769000  0.277800  1
  C  C35  1  0.862600  0.269000  0.777800  1
  C  C36  1  0.909400  0.231000  0.722200  1
  C  C37  1  0.047100  0.600800  0.327000  1
  C  C38  1  0.974900  0.899200  0.173000  1
  C  C39  1  0.952900  0.399200  0.673000  1
  C  C40  1  0.025100  0.100800  0.827000  1
  C  C41  1  0.358900  0.408000  0.730000  1.0
  C  C42  1  0.496900  0.092000  0.770000  1.0
  C  C43  1  0.641100  0.592000  0.270000  1.0
  C  C44  1  0.503100  0.908000  0.230000  1.0
  C  C45  1  0.297110  0.477980  0.727400  1.0
  C  C46  1  0.502490  0.022020  0.772600  1.0
  C  C47  1  0.702890  0.522020  0.272600  1.0
  C  C48  1  0.497510  0.977980  0.227400  1.0
  C  C49  1  0.221790  0.406420  0.727400  1.0
  C  C50  1  0.355610  0.093580  0.772600  1.0
  C  C51  1  0.778210  0.593580  0.272600  1.0
  C  C52  1  0.644390  0.906420  0.227400  1.0
  C  C53  1  0.123440  0.535720  0.727000  1.0
  C  C54  1  0.386160  0.964280  0.773000  1.0
  C  C55  1  0.876560  0.464280  0.273000  1.0
  C  C56  1  0.613840  0.035720  0.227000  1.0
  C  C57  1  0.126900  0.612200  0.692400  1.0
  C  C58  1  0.431500  0.887800  0.807600  1.0
  C  C59  1  0.873100  0.387800  0.307600  1.0
  C  C60  1  0.568500  0.112200  0.192400  1.0
  C  C61  1  0.040500  0.669300  0.693500  1.0
  C  C62  1  0.403300  0.830700  0.806500  1.0
  C  C63  1  0.959500  0.330700  0.306500  1.0
  C  C64  1  0.596700  0.169300  0.193500  1.0
  C  C65  1  0.952500  0.650600  0.729200  1.0
  C  C66  1  0.332300  0.849400  0.770800  1.0
  C  C67  1  0.047500  0.349400  0.270800  1.0
  C  C68  1  0.667700  0.150600  0.229200  1.0
  C  C69  1  0.951180  0.573940  0.762700  1.0
  C  C70  1  0.287820  0.926060  0.737300  1.0
  C  C71  1  0.048820  0.426060  0.237300  1.0
  C  C72  1  0.712180  0.073940  0.262700  1.0
  C  C73  1  0.036070  0.516560  0.761900  1.0
  C  C74  1  0.314530  0.983440  0.738100  1.0
  C  C75  1  0.963930  0.483440  0.238100  1.0
  C  C76  1  0.685470  0.016560  0.261900  1.0
  C  C77  1  0.773880  0.598840  0.823800  1.0
  C  C78  1  0.196520  0.901160  0.676200  1.0
  C  C79  1  0.226120  0.401160  0.176200  1.0
  C  C80  1  0.803480  0.098840  0.323800  1.0
  C  C81  1  0.708990  0.556220  0.856800  1.0
  C  C82  1  0.122010  0.943780  0.643200  1.0
  C  C83  1  0.291010  0.443780  0.143200  1.0
  C  C84  1  0.877990  0.056220  0.356800  1.0
  C  C85  1  0.845060  0.485080  0.816400  1.0
  C  C86  1  0.146540  0.014920  0.683600  1.0
  C  C87  1  0.154940  0.514920  0.183600  1.0
  C  C88  1  0.853460  0.985080  0.316400  1.0
  C  C89  1  0.546850  0.487300  0.799600  1.0
  C  C90  1  0.833750  0.012700  0.700400  1.0
  C  C91  1  0.453150  0.512700  0.200400  1.0
  C  C92  1  0.166250  0.987300  0.299600  1.0
  C  C93  1  0.535120  0.501460  0.730900  1.0
  C  C94  1  0.767480  0.998540  0.769100  1.0
  C  C95  1  0.464880  0.498540  0.269100  1.0
  C  C96  1  0.232520  0.001460  0.230900  1.0
  C  C97  1  0.680400  0.427000  0.741000  1.0
  C  C98  1  0.848400  0.073000  0.759000  1.0
  C  C99  1  0.319600  0.573000  0.259000  1.0
  C  C100  1  0.151600  0.927000  0.241000  1.0
  C  C101  1  0.639130  0.454840  0.622900  1.0
  C  C102  1  0.716870  0.045160  0.877100  1.0
  C  C103  1  0.360870  0.545160  0.377100  1.0
  C  C104  1  0.283130  0.954840  0.122900  1.0
  C  C105  1  0.595400  0.513300  0.565100  1.0
  C  C106  1  0.673800  0.986700  0.934900  1.0
  C  C107  1  0.404600  0.486700  0.434900  1.0
  C  C108  1  0.326200  0.013300  0.065100  1.0
  C  C109  1  0.612300  0.502300  0.497900  1.0
  C  C110  1  0.612500  0.997700  0.002100  1.0
  C  C111  1  0.387700  0.497700  0.502100  1.0
  C  C112  1  0.387500  0.002300  0.997900  1.0
  C  C113  1  0.673300  0.434600  0.486600  1.0
  C  C114  1  0.594500  0.065400  0.013400  1.0
  C  C115  1  0.326700  0.565400  0.513400  1.0
  C  C116  1  0.405500  0.934600  0.986600  1.0
  C  C117  1  0.716930  0.377640  0.544700  1.0
  C  C118  1  0.639270  0.122360  0.955300  1.0
  C  C119  1  0.283070  0.622360  0.455300  1.0
  C  C120  1  0.360730  0.877640  0.044700  1.0
  C  C121  1  0.699930  0.387340  0.612600  1.0
  C  C122  1  0.699870  0.112660  0.887400  1.0
  C  C123  1  0.300070  0.612660  0.387400  1.0
  C  C124  1  0.300130  0.887340  0.112600  1.0
  C  C125  1  0.847840  0.259120  0.573400  1.0
  C  C126  1  0.680360  0.240880  0.926600  1.0
  C  C127  1  0.152160  0.740880  0.426600  1.0
  C  C128  1  0.319640  0.759120  0.073400  1.0
  C  C129  1  0.767460  0.269480  0.498400  1.0
  C  C130  1  0.535340  0.230520  0.001600  1.0
  C  C131  1  0.232540  0.730520  0.501600  1.0
  C  C132  1  0.464660  0.769480  0.998400  1.0
  C  C133  1  0.834480  0.199940  0.512500  1.0
  C  C134  1  0.546920  0.300060  0.987500  1.0
  C  C135  1  0.165520  0.800060  0.487500  1.0
  C  C136  1  0.453080  0.699940  0.012500  1.0
  C  C137  1  0.709190  0.356020  0.056600  1.0
  C  C138  1  0.121810  0.143980  0.443400  1.0
  C  C139  1  0.290810  0.643980  0.943400  1.0
  C  C140  1  0.878190  0.856020  0.556600  1.0
  C  C141  1  0.773730  0.323840  0.098500  1.0
  C  C142  1  0.196070  0.176160  0.401500  1.0
  C  C143  1  0.226270  0.676160  0.901500  1.0
  C  C144  1  0.803930  0.823840  0.598500  1.0
  C  C145  1  0.845080  0.315840  0.985200  1.0
  C  C146  1  0.146120  0.184160  0.514800  1.0
  C  C147  1  0.154920  0.684160  0.014800  1.0
  C  C148  1  0.853880  0.815840  0.485200  1.0
  C  C149  1  0.951100  0.262400  0.074000  1.0
  C  C150  1  0.287500  0.237600  0.426000  1.0
  C  C151  1  0.048900  0.737600  0.926000  1.0
  C  C152  1  0.712500  0.762400  0.574000  1.0
  C  C153  1  0.952200  0.229300  0.150500  1.0
  C  C154  1  0.332000  0.270700  0.349500  1.0
  C  C155  1  0.047800  0.770700  0.849500  1.0
  C  C156  1  0.668000  0.729300  0.650500  1.0
  C  C157  1  0.040400  0.194000  0.169400  1.0
  C  C158  1  0.403800  0.306000  0.330600  1.0
  C  C159  1  0.959600  0.806000  0.830600  1.0
  C  C160  1  0.596200  0.694000  0.669400  1.0
  C  C161  1  0.127200  0.192800  0.112000  1.0
  C  C162  1  0.432000  0.307200  0.388000  1.0
  C  C163  1  0.872800  0.807200  0.888000  1.0
  C  C164  1  0.568000  0.692800  0.612000  1.0
  C  C165  1  0.123360  0.226980  0.036100  1.0
  C  C166  1  0.386440  0.273020  0.463900  1.0
  C  C167  1  0.876640  0.773020  0.963900  1.0
  C  C168  1  0.613560  0.726980  0.536100  1.0
  C  C169  1  0.036070  0.261560  0.016500  1.0
  C  C170  1  0.314130  0.238440  0.483500  1.0
  C  C171  1  0.963930  0.738440  0.983500  1.0
  C  C172  1  0.685870  0.761560  0.516500  1.0
  C  C173  1  0.297720  0.227160  0.977800  1.0
  C  C174  1  0.502680  0.272840  0.522200  1.0
  C  C175  1  0.702280  0.772840  0.022200  1.0
  C  C176  1  0.497320  0.727160  0.477800  1.0
  C  C177  1  0.358840  0.229920  0.908200  1.0
  C  C178  1  0.496960  0.270080  0.591800  1.0
  C  C179  1  0.641160  0.770080  0.091800  1.0
  C  C180  1  0.503040  0.729920  0.408200  1.0
  C  C181  1  0.221970  0.228060  0.906000  1.0
  C  C182  1  0.356030  0.271940  0.594000  1.0
  C  C183  1  0.778030  0.771940  0.094000  1.0
  C  C184  1  0.643970  0.728060  0.406000  1.0
  H  H185  1  0.423200  0.392900  0.731100  1.0
  H  H186  1  0.547200  0.107100  0.768900  1.0
  H  H187  1  0.576800  0.607100  0.268900  1.0
  H  H188  1  0.452800  0.892900  0.231100  1.0
  H  H189  1  0.311000  0.519300  0.726700  1.0
  H  H190  1  0.557000  0.980700  0.773300  1.0
  H  H191  1  0.689000  0.480700  0.273300  1.0
  H  H192  1  0.443000  0.019300  0.226700  1.0
  H  H193  1  0.173900  0.390300  0.726300  1.0
  H  H194  1  0.290500  0.109700  0.773700  1.0
  H  H195  1  0.826100  0.609700  0.273700  1.0
  H  H196  1  0.709500  0.890300  0.226300  1.0
  H  H197  1  0.185700  0.625300  0.668900  1.0
  H  H198  1  0.479900  0.874700  0.831100  1.0
  H  H199  1  0.814300  0.374700  0.331100  1.0
  H  H200  1  0.520100  0.125300  0.168900  1.0
  H  H201  1  0.041900  0.721100  0.669700  1.0
  H  H202  1  0.432700  0.778900  0.830300  1.0
  H  H203  1  0.958100  0.278900  0.330300  1.0
  H  H204  1  0.567300  0.221100  0.169700  1.0
  H  H205  1  0.895100  0.689200  0.730600  1.0
  H  H206  1  0.314900  0.810800  0.769400  1.0
  H  H207  1  0.104900  0.310800  0.269400  1.0
  H  H208  1  0.685100  0.189200  0.230600  1.0
  H  H209  1  0.034400  0.464800  0.785000  1.0
  H  H210  1  0.284200  0.035200  0.715000  1.0
  H  H211  1  0.965600  0.535200  0.215000  1.0
  H  H212  1  0.715800  0.964800  0.285000  1.0
  H  H213  1  0.761700  0.649500  0.819300  1.0
  H  H214  1  0.230500  0.850500  0.680700  1.0
  H  H215  1  0.238300  0.350500  0.180700  1.0
  H  H216  1  0.769500  0.149500  0.319300  1.0
  H  H217  1  0.644000  0.572200  0.879800  1.0
  H  H218  1  0.096000  0.927800  0.620200  1.0
  H  H219  1  0.356000  0.427800  0.120200  1.0
  H  H220  1  0.904000  0.072200  0.379800  1.0
  H  H221  1  0.892400  0.443300  0.805700  1.0
  H  H222  1  0.141400  0.056700  0.694300  1.0
  H  H223  1  0.107600  0.556700  0.194300  1.0
  H  H224  1  0.858600  0.943300  0.305700  1.0
  H  H225  1  0.500600  0.506100  0.837100  1.0
  H  H226  1  0.843800  0.993900  0.662900  1.0
  H  H227  1  0.499400  0.493900  0.162900  1.0
  H  H228  1  0.156200  0.006100  0.337100  1.0
  H  H229  1  0.480600  0.531600  0.712200  1.0
  H  H230  1  0.724400  0.968400  0.787800  1.0
  H  H231  1  0.519400  0.468400  0.287800  1.0
  H  H232  1  0.275600  0.031600  0.212200  1.0
  H  H233  1  0.743100  0.397200  0.729400  1.0
  H  H234  1  0.869700  0.102800  0.770600  1.0
  H  H235  1  0.256900  0.602800  0.270600  1.0
  H  H236  1  0.130300  0.897200  0.229400  1.0
  H  H237  1  0.555300  0.559200  0.571600  1.0
  H  H238  1  0.686100  0.940800  0.928400  1.0
  H  H239  1  0.444700  0.440800  0.428400  1.0
  H  H240  1  0.313900  0.059200  0.071600  1.0
  H  H241  1  0.582200  0.541000  0.459400  1.0
  H  H242  1  0.582600  0.959000  0.040600  1.0
  H  H243  1  0.417800  0.459000  0.540600  1.0
  H  H244  1  0.417400  0.041000  0.959400  1.0
  H  H245  1  0.684600  0.427700  0.441100  1.0
  H  H246  1  0.553400  0.072300  0.058900  1.0
  H  H247  1  0.315400  0.572300  0.558900  1.0
  H  H248  1  0.446600  0.927700  0.941100  1.0
  H  H249  1  0.729500  0.348600  0.651200  1.0
  H  H250  1  0.729300  0.151400  0.848800  1.0
  H  H251  1  0.270500  0.651400  0.348800  1.0
  H  H252  1  0.270700  0.848600  0.151200  1.0
  H  H253  1  0.868500  0.270600  0.603600  1.0
  H  H254  1  0.742700  0.229400  0.896400  1.0
  H  H255  1  0.131500  0.729400  0.396400  1.0
  H  H256  1  0.257300  0.770600  0.103600  1.0
  H  H257  1  0.724400  0.288100  0.468300  1.0
  H  H258  1  0.480800  0.211900  0.031700  1.0
  H  H259  1  0.275600  0.711900  0.531700  1.0
  H  H260  1  0.519200  0.788100  0.968300  1.0
  H  H261  1  0.844900  0.162400  0.493600  1.0
  H  H262  1  0.500900  0.337600  0.006400  1.0
  H  H263  1  0.155100  0.837600  0.506400  1.0
  H  H264  1  0.499100  0.662400  0.993600  1.0
  H  H265  1  0.644000  0.378500  0.073100  1.0
  H  H266  1  0.095600  0.121500  0.426900  1.0
  H  H267  1  0.356000  0.621500  0.926900  1.0
  H  H268  1  0.904400  0.878500  0.573100  1.0
  H  H269  1  0.761400  0.319700  0.149100  1.0
  H  H270  1  0.230200  0.180300  0.350900  1.0
  H  H271  1  0.238600  0.680300  0.850900  1.0
  H  H272  1  0.769800  0.819700  0.649100  1.0
  H  H273  1  0.892300  0.304700  0.943500  1.0
  H  H274  1  0.140500  0.195300  0.556500  1.0
  H  H275  1  0.107700  0.695300  0.056500  1.0
  H  H276  1  0.859500  0.804700  0.443500  1.0
  H  H277  1  0.894800  0.230300  0.189100  1.0
  H  H278  1  0.314200  0.269700  0.310900  1.0
  H  H279  1  0.105200  0.769700  0.810900  1.0
  H  H280  1  0.685800  0.730300  0.689100  1.0
  H  H281  1  0.041900  0.170900  0.221100  1.0
  H  H282  1  0.433900  0.329100  0.278900  1.0
  H  H283  1  0.958100  0.829100  0.778900  1.0
  H  H284  1  0.566100  0.670900  0.721100  1.0
  H  H285  1  0.186233  0.169300  0.124900  1.0
  H  H286  1  0.480433  0.330700  0.375100  1.0
  H  H287  1  0.813767  0.830700  0.875100  1.0
  H  H288  1  0.519567  0.669300  0.624900  1.0
  H  H289  1  0.034500  0.284100  0.964900  1.0
  H  H290  1  0.283500  0.215900  0.535100  1.0
  H  H291  1  0.965500  0.715900  0.035100  1.0
  H  H292  1  0.716500  0.784100  0.464900  1.0
  H  H293  1  0.311900  0.226100  0.019100  1.0
  H  H294  1  0.557100  0.273900  0.480900  1.0
  H  H295  1  0.688100  0.773900  0.980900  1.0
  H  H296  1  0.442900  0.726100  0.519100  1.0
  H  H297  1  0.423000  0.231200  0.893000  1.0
  H  H298  1  0.547200  0.268800  0.607000  1.0
  H  H299  1  0.577000  0.768800  0.107000  1.0
  H  H300  1  0.452800  0.731200  0.393000  1.0
  H  H301  1  0.173900  0.227700  0.889500  1.0
  H  H302  1  0.291100  0.272300  0.610500  1.0
  H  H303  1  0.826100  0.772300  0.110500  1.0
  H  H304  1  0.708900  0.727700  0.389500  1.0
  N  N305  1  0.608300  0.250000  0.750000  1
  N  N306  1  0.391700  0.750000  0.250000  1
  N  N307  1  0.317750  0.682100  0.682800  1
  N  N308  1  0.682650  0.817900  0.817200  1
  N  N309  1  0.682250  0.317900  0.317200  1
  N  N310  1  0.317350  0.182100  0.182800  1
  N  N311  1  0.922900  0.588600  0.545600  1
  N  N312  1  0.057100  0.911400  0.954400  1
  N  N313  1  0.077100  0.411400  0.454400  1
  N  N314  1  0.942900  0.088600  0.045600  1
  N  N315  1  0.829000  0.567000  0.473000  1
  N  N316  1  0.869000  0.933000  0.027000  1
  N  N317  1  0.171000  0.433000  0.527000  1
  N  N318  1  0.131000  0.067000  0.973000  1
  N  N319  1  0.989900  0.523200  0.603000  1
  N  N320  1  0.116100  0.976800  0.897000  1
  N  N321  1  0.010100  0.476800  0.397000  1
  N  N322  1  0.883900  0.023200  0.103000  1
  N  N323  1  0.500000  0.500000  0.000000  1
  N  N324  1  0.000000  0.000000  0.500000  1
  N  N325  1  0.776260  0.306380  0.537300  1.0
  N  N326  1  0.619940  0.193620  0.962700  1.0
  N  N327  1  0.223740  0.693620  0.462700  1.0
  N  N328  1  0.380060  0.806380  0.037300  1.0
  N  N329  1  0.310220  0.363860  0.730500  1.0
  N  N330  1  0.404580  0.136140  0.769500  1.0
  N  N331  1  0.689780  0.636140  0.269500  1.0
  N  N332  1  0.595420  0.863860  0.230500  1.0
  N  N333  1  0.210610  0.476280  0.726100  1.0
  N  N334  1  0.412990  0.023720  0.773900  1.0
  N  N335  1  0.789390  0.523720  0.273900  1.0
  N  N336  1  0.587010  0.976280  0.226100  1.0
  N  N337  1  0.861160  0.553480  0.798200  1.0
  N  N338  1  0.212840  0.946520  0.701800  1.0
  N  N339  1  0.138840  0.446520  0.201800  1.0
  N  N340  1  0.787160  0.053480  0.298200  1.0
  N  N341  1  0.755100  0.485400  0.850600  1.0
  N  N342  1  0.091100  0.014600  0.649400  1.0
  N  N343  1  0.244900  0.514600  0.149400  1.0
  N  N344  1  0.908900  0.985400  0.350600  1.0
  N  N345  1  0.637760  0.440880  0.805400  1.0
  N  N346  1  0.884040  0.059120  0.694600  1.0
  N  N347  1  0.362240  0.559120  0.194600  1.0
  N  N348  1  0.115960  0.940880  0.305400  1.0
  N  N349  1  0.620090  0.462420  0.693800  1.0
  N  N350  1  0.776310  0.037580  0.806200  1.0
  N  N351  1  0.379910  0.537580  0.306200  1.0
  N  N352  1  0.223690  0.962420  0.193800  1.0
  N  N353  1  0.883970  0.194360  0.559300  1.0
  N  N354  1  0.637630  0.305640  0.940700  1.0
  N  N355  1  0.116030  0.805640  0.440700  1.0
  N  N356  1  0.362370  0.694360  0.059300  1.0
  N  N357  1  0.754800  0.350500  0.985500  1.0
  N  N358  1  0.090800  0.149500  0.514500  1.0
  N  N359  1  0.245200  0.649500  0.014500  1.0
  N  N360  1  0.909200  0.850500  0.485500  1.0
  N  N361  1  0.861140  0.298020  0.053900  1.0
  N  N362  1  0.213060  0.201980  0.446100  1.0
  N  N363  1  0.138860  0.701980  0.946100  1.0
  N  N364  1  0.786940  0.798020  0.553900  1.0
  N  N365  1  0.210420  0.226260  0.976300  1.0
  N  N366  1  0.412980  0.273740  0.523700  1.0
  N  N367  1  0.789580  0.773740  0.023700  1.0
  N  N368  1  0.587020  0.726260  0.476300  1.0
  N  N369  1  0.310170  0.230560  0.863700  1.0
  N  N370  1  0.404430  0.269440  0.636300  1.0
  N  N371  1  0.689830  0.769440  0.136300  1.0
  N  N372  1  0.595570  0.730560  0.363700  1.0
  O  O373  1  0.524800  0.250000  0.750000  1
  O  O374  1  0.475200  0.750000  0.250000  1
  O  O375  1  0.356350  0.643300  0.643800  1
  O  O376  1  0.643450  0.856700  0.856200  1
  O  O377  1  0.643650  0.356700  0.356200  1
  O  O378  1  0.356550  0.143300  0.143800  1
  O  O379  1  0.269100  0.746600  0.652800  1
  O  O380  1  0.668500  0.753400  0.847200  1
  O  O381  1  0.730900  0.253400  0.347200  1
  O  O382  1  0.331500  0.246600  0.152800  1
  O  O383  1  0.330800  0.656000  0.745800  1
  O  O384  1  0.732600  0.844000  0.754200  1
  O  O385  1  0.669200  0.344000  0.254200  1
  O  O386  1  0.267400  0.156000  0.245800  1
  O  O387  1  0.855800  0.558400  0.604000  1
  O  O388  1  0.018200  0.941600  0.896000  1
  O  O389  1  0.144200  0.441600  0.396000  1
  O  O390  1  0.981800  0.058400  0.104000  1
  O  O391  1  0.968800  0.620400  0.560000  1
  O  O392  1  0.149200  0.879600  0.940000  1
  O  O393  1  0.031200  0.379600  0.440000  1
  O  O394  1  0.850800  0.120400  0.060000  1
  O  O395  1  0.897300  0.628900  0.480500  1
  O  O396  1  0.006700  0.871100  0.019500  1
  O  O397  1  0.102700  0.371100  0.519500  1
  O  O398  1  0.993300  0.128900  0.980500  1
  O  O399  1  0.854500  0.584400  0.084000  1
  O  O400  1  0.522900  0.915600  0.416000  1
  O  O401  1  0.145500  0.415600  0.916000  1
  O  O402  1  0.477100  0.084400  0.584000  1
  O  O403  1  0.686700  0.250000  0.750000  1
  O  O404  1  0.313300  0.750000  0.250000  1
  O  O405  1  0.550200  0.276100  0.712700  1
  O  O406  1  0.539000  0.223900  0.787300  1
  O  O407  1  0.449800  0.723900  0.287300  1
  O  O408  1  0.461000  0.776100  0.212700  1
  O  O409  1  0.354400  0.730900  0.679700  1
  O  O410  1  0.765000  0.769100  0.820300  1
  O  O411  1  0.645600  0.269100  0.320300  1
  O  O412  1  0.235000  0.230900  0.179700  1
  O  O413  1  0.238500  0.681400  0.731800  1
  O  O414  1  0.651700  0.818600  0.768200  1
  O  O415  1  0.761500  0.318600  0.268200  1
  O  O416  1  0.348300  0.181400  0.231800  1
  O  O417  1  0.842000  0.545000  0.541000  1
  O  O418  1  0.928000  0.955000  0.959000  1
  O  O419  1  0.158000  0.455000  0.459000  1
  O  O420  1  0.072000  0.045000  0.041000  1
  O  O421  1  0.858000  0.629000  0.421000  1
  O  O422  1  0.908000  0.871000  0.079000  1
  O  O423  1  0.142000  0.371000  0.579000  1
  O  O424  1  0.092000  0.129000  0.921000  1
  O  O425  1  0.852000  0.512000  0.448000  1
  O  O426  1  0.812000  0.988000  0.052000  1
  O  O427  1  0.148000  0.488000  0.552000  1
  O  O428  1  0.188000  0.012000  0.948000  1
  O  O429  1  0.024000  0.573000  0.537000  1
  O  O430  1  0.134000  0.927000  0.963000  1
  O  O431  1  0.976000  0.427000  0.463000  1
  O  O432  1  0.866000  0.073000  0.037000  1
  O  O433  1  0.046600  0.454800  0.626000  1
  O  O434  1  0.127400  0.045200  0.874000  1
  O  O435  1  0.953400  0.545200  0.374000  1
  O  O436  1  0.872600  0.954800  0.126000  1
  O  O437  1  0.898000  0.528000  0.622000  1
  O  O438  1  0.048000  0.972000  0.878000  1
  O  O439  1  0.102000  0.472000  0.378000  1
  O  O440  1  0.952000  0.028000  0.122000  1
  O  O441  1  0.905900  0.480100  0.972300  1
  O  O442  1  0.358300  0.019900  0.527700  1
  O  O443  1  0.094100  0.519900  0.027700  1
  O  O444  1  0.641700  0.980100  0.472300  1
  O  O445  1  0.845400  0.752800  0.294800  1
  O  O446  1  0.893000  0.747200  0.205200  1
  O  O447  1  0.154600  0.247200  0.705200  1
  O  O448  1  0.107000  0.252800  0.794800  1
  O  O449  1  0.937200  0.828300  0.303500  1
  O  O450  1  0.069000  0.671700  0.196500  1
  O  O451  1  0.062800  0.171700  0.696500  1
  O  O452  1  0.931000  0.328300  0.803500  1
  O  O453  1  0.992500  0.735700  0.343900  1
  O  O454  1  0.072100  0.764300  0.156100  1
  O  O455  1  0.007500  0.264300  0.656100  1
  O  O456  1  0.927900  0.235700  0.843900  1
  O  O457  1  0.461200  0.479400  0.969200  1
  O  O458  1  0.909800  0.020600  0.530800  1
  O  O459  1  0.538800  0.520600  0.030800  1
  O  O460  1  0.090200  0.979400  0.469200  1
  O  O461  1  0.503500  0.441100  0.067100  1
  O  O462  1  0.011700  0.058900  0.432900  1
  O  O463  1  0.496500  0.558900  0.932900  1
  O  O464  1  0.988300  0.941100  0.567100  1
  O  O465  1  0.470700  0.443300  0.019300  1
  O  O466  1  0.933300  0.056700  0.480700  1
  O  O467  1  0.529300  0.556700  0.980700  1
  O  O468  1  0.066700  0.943300  0.519300  1
  O  O469  1  0.602700  0.286400  0.787200  1.0
  O  O470  1  0.676300  0.213600  0.712800  1.0
  O  O471  1  0.397300  0.713600  0.212800  1.0
  O  O472  1  0.323700  0.786400  0.287200  1.0
  Pd  Pd473  1  0.357500  0.250000  0.750000  1
  Pd  Pd474  1  0.642500  0.750000  0.250000  1
  Pd  Pd475  1  0.695890  0.395690  0.895730  1.0
  Pd  Pd476  1  0.987310  0.104310  0.604270  1.0
  Pd  Pd477  1  0.304110  0.604310  0.104270  1.0
  Pd  Pd478  1  0.012690  0.895690  0.395730  1.0
  S  S479  1  0.806800  0.560300  0.039900  1
  S  S480  1  0.407000  0.939700  0.460100  1
  S  S481  1  0.193200  0.439700  0.960100  1
  S  S482  1  0.593000  0.060300  0.539900  1
  S  S483  1  0.872600  0.471500  0.064700  1
  S  S484  1  0.408800  0.028500  0.435300  1
  S  S485  1  0.127400  0.528500  0.935300  1
  S  S486  1  0.591200  0.971500  0.564700  1
  S  S487  1  0.820710  0.825580  0.325000  1
  S  S488  1  0.971290  0.674420  0.175000  1
  S  S489  1  0.179290  0.174420  0.675000  1
  S  S490  1  0.028710  0.325580  0.825000  1
  S  S491  1  0.100000  0.670700  0.328900  1
  S  S492  1  0.099600  0.829300  0.171100  1
  S  S493  1  0.900000  0.329300  0.671100  1
  S  S494  1  0.900400  0.170700  0.828900  1
