data_image0
_cell_length_a       17.443
_cell_length_b       16.53
_cell_length_c       24.307
_cell_angle_alpha    90
_cell_angle_beta     90
_cell_angle_gamma    90

_symmetry_space_group_name_H-M    "P 1"
_symmetry_int_tables_number       1

loop_
  _symmetry_equiv_pos_as_xyz
  'x, y, z'

loop_
  _atom_site_label
  _atom_site_occupancy
  _atom_site_fract_x
  _atom_site_fract_y
  _atom_site_fract_z
  _atom_site_thermal_displace_type
  _atom_site_B_iso_or_equiv
  _atom_site_type_symbol
  C1       1.0000 0.58688  0.54168  0.48661  Biso   1.000  C
  N1       1.0000 0.55690  0.62323  0.48352  Biso   1.000  N
  N2       1.0000 0.62277  0.50992  0.43761  Biso   1.000  N
  C2       1.0000 0.65551  0.55130  0.52709  Biso   1.000  C
  H1       1.0000 0.54836  0.50411  0.50109  Biso   1.000  H
  C3       1.0000 0.48231  0.64011  0.45909  Biso   1.000  C
  C4       1.0000 0.59147  0.67520  0.51800  Biso   1.000  C
  C5       1.0000 0.58058  0.48711  0.38869  Biso   1.000  C
  C6       1.0000 0.69999  0.50012  0.44292  Biso   1.000  C
  N3       1.0000 0.65436  0.63612  0.54042  Biso   1.000  N
  N4       1.0000 0.71960  0.52341  0.49550  Biso   1.000  N
  H2       1.0000 0.64817  0.51809  0.56000  Biso   1.000  H
  N5       1.0000 0.48541  0.65832  0.40120  Biso   1.000  N
  H3       1.0000 0.45938  0.68560  0.47822  Biso   1.000  H
  H4       1.0000 0.44929  0.59359  0.46460  Biso   1.000  H
  O1       1.0000 0.57267  0.74422  0.52742  Biso   1.000  O
  N6       1.0000 0.55839  0.55330  0.35410  Biso   1.000  N
  H5       1.0000 0.53477  0.45820  0.39988  Biso   1.000  H
  H6       1.0000 0.61188  0.45009  0.36738  Biso   1.000  H
  O2       1.0000 0.74339  0.47223  0.40832  Biso   1.000  O
  C7       1.0000 0.69501  0.67090  0.58621  Biso   1.000  C
  C8       1.0000 0.79659  0.51512  0.51672  Biso   1.000  C
  C9       1.0000 0.48730  0.59843  0.35879  Biso   1.000  C
  C10      1.0000 0.47916  0.73660  0.38121  Biso   1.000  C
  C11      1.0000 0.59588  0.57042  0.30539  Biso   1.000  C
  N7       1.0000 0.77389  0.69510  0.57490  Biso   1.000  N
  H7       1.0000 0.66686  0.71803  0.59880  Biso   1.000  H
  H8       1.0000 0.69541  0.63188  0.61600  Biso   1.000  H
  N8       1.0000 0.83707  0.58923  0.52199  Biso   1.000  N
  H9       1.0000 0.82520  0.47973  0.49241  Biso   1.000  H
  H10      1.0000 0.79407  0.48923  0.55239  Biso   1.000  H
  H11      1.0000 0.44299  0.56213  0.36109  Biso   1.000  H
  C12      1.0000 0.48478  0.65094  0.30510  Biso   1.000  C
  N9       1.0000 0.47968  0.73182  0.32439  Biso   1.000  N
  O3       1.0000 0.47257  0.79679  0.40889  Biso   1.000  O
  N10      1.0000 0.55621  0.62849  0.27762  Biso   1.000  N
  O4       1.0000 0.65356  0.53708  0.28926  Biso   1.000  O
  C13      1.0000 0.83558  0.63811  0.57210  Biso   1.000  C
  C14      1.0000 0.79780  0.77393  0.57671  Biso   1.000  C
  C15      1.0000 0.90208  0.60454  0.49212  Biso   1.000  C
  H12      1.0000 0.44029  0.63678  0.28239  Biso   1.000  H
  C16      1.0000 0.47916  0.80194  0.29062  Biso   1.000  C
  C17      1.0000 0.57731  0.65269  0.22269  Biso   1.000  C
  C18      1.0000 0.90747  0.69189  0.56790  Biso   1.000  C
  H13      1.0000 0.83730  0.60399  0.60501  Biso   1.000  H
  O5       1.0000 0.75830  0.83364  0.58275  Biso   1.000  O
  N11      1.0000 0.87628  0.77302  0.56979  Biso   1.000  N
  O6       1.0000 0.92249  0.56521  0.45197  Biso   1.000  O
  N12      1.0000 0.94066  0.66721  0.51541  Biso   1.000  N
  N13      1.0000 0.55426  0.82819  0.27412  Biso   1.000  N
  H14      1.0000 0.44906  0.79080  0.25799  Biso   1.000  H
  H15      1.0000 0.45428  0.84561  0.31049  Biso   1.000  H
  N14      1.0000 0.62071  0.72619  0.21981  Biso   1.000  N
  H16      1.0000 0.53099  0.65910  0.20109  Biso   1.000  H
  H17      1.0000 0.60718  0.60962  0.20611  Biso   1.000  H
  H18      1.0000 0.94290  0.68209  0.59851  Biso   1.000  H
  C19      1.0000 0.92289  0.84410  0.56910  Biso   1.000  C
  C20      1.0000 0.01445  0.69492  0.49492  Biso   1.000  C
  C21      1.0000 0.58849  0.80641  0.22290  Biso   1.000  C
  C22      1.0000 0.58786  0.89583  0.29601  Biso   1.000  C
  C23      1.0000 0.70080  0.72740  0.21471  Biso   1.000  C
  N15      1.0000 0.94279  0.87284  0.51442  Biso   1.000  N
  H19      1.0000 0.89595  0.88699  0.58839  Biso   1.000  H
  H20      1.0000 0.96979  0.83309  0.58921  Biso   1.000  H
  N16      1.0000 0.00963  0.76878  0.46229  Biso   1.000  N
  H21      1.0000 0.04833  0.70442  0.52590  Biso   1.000  H
  H22      1.0000 0.03703  0.65263  0.47262  Biso   1.000  H
  H23      1.0000 0.55289  0.81591  0.19241  Biso   1.000  H
  C24      1.0000 0.65877  0.86304  0.21870  Biso   1.000  C
  O7       1.0000 0.56510  0.93612  0.33488  Biso   1.000  O
  N17      1.0000 0.65447  0.91053  0.26729  Biso   1.000  N
  O8       1.0000 0.73995  0.66878  0.20809  Biso   1.000  O
  N18      1.0000 0.72270  0.80738  0.21660  Biso   1.000  N
  C25      1.0000 0.90300  0.93448  0.48879  Biso   1.000  C
  C26      1.0000 0.01055  0.84979  0.48402  Biso   1.000  C
  C27      1.0000 0.01227  0.76612  0.40622  Biso   1.000  C
  H24      1.0000 0.65637  0.89673  0.18558  Biso   1.000  H
  C28      1.0000 0.69558  0.98621  0.27449  Biso   1.000  C
  C29      1.0000 0.79917  0.83019  0.20299  Biso   1.000  C
  N19      1.0000 0.93568  0.94574  0.43761  Biso   1.000  N
  O9       1.0000 0.85077  0.97284  0.50808  Biso   1.000  O
  C30      1.0000 0.00745  0.90309  0.43181  Biso   1.000  C
  H25      1.0000 0.05721  0.86013  0.50541  Biso   1.000  H
  N20      1.0000 0.01032  0.84398  0.38750  Biso   1.000  N
  O10      1.0000 0.01697  0.70581  0.37829  Biso   1.000  O
  N21      1.0000 0.77240  0.97471  0.29712  Biso   1.000  N
  H26      1.0000 0.69971  0.01313  0.23911  Biso   1.000  H
  H27      1.0000 0.66646  0.02099  0.29880  Biso   1.000  H
  N22      1.0000 0.84017  0.86751  0.25001  Biso   1.000  N
  H28      1.0000 0.82715  0.78282  0.19081  Biso   1.000  H
  H29      1.0000 0.79786  0.86842  0.17258  Biso   1.000  H
  C31      1.0000 0.91229  0.01361  0.40252  Biso   1.000  C
  H30      1.0000 0.05097  0.94059  0.43021  Biso   1.000  H
  C32      1.0000 0.01256  0.86509  0.32970  Biso   1.000  C
  C33      1.0000 0.83879  0.95281  0.26420  Biso   1.000  C
  C34      1.0000 0.79218  0.99764  0.34990  Biso   1.000  C
  C35      1.0000 0.90328  0.82801  0.27140  Biso   1.000  C
  N23      1.0000 0.86946  0.98742  0.35451  Biso   1.000  N
  H31      1.0000 0.95758  0.04277  0.39059  Biso   1.000  H
  H32      1.0000 0.88075  0.05051  0.42379  Biso   1.000  H
  N24      1.0000 0.93849  0.88234  0.30711  Biso   1.000  N
  H33      1.0000 0.03532  0.82081  0.30942  Biso   1.000  H
  H34      1.0000 0.04512  0.91210  0.32501  Biso   1.000  H
  H35      1.0000 0.84458  0.98772  0.23179  Biso   1.000  H
  C36      1.0000 0.90609  0.96104  0.30399  Biso   1.000  C
  O11      1.0000 0.74855  0.02263  0.38429  Biso   1.000  O
  O12      1.0000 0.92507  0.76140  0.26030  Biso   1.000  O
  H36      1.0000 0.94359  0.00073  0.29090  Biso   1.000  H
  C37      1.0000 0.40211  0.39552  0.49212  Biso   1.000  C
  N25      1.0000 0.33710  0.41083  0.52199  Biso   1.000  N
  N26      1.0000 0.44069  0.33279  0.51541  Biso   1.000  N
  O13      1.0000 0.42246  0.43479  0.45197  Biso   1.000  O
  C38      1.0000 0.29657  0.48488  0.51672  Biso   1.000  C
  C39      1.0000 0.33561  0.36189  0.57210  Biso   1.000  C
  C40      1.0000 0.51448  0.30508  0.49492  Biso   1.000  C
  C41      1.0000 0.40750  0.30811  0.56790  Biso   1.000  C
  N27      1.0000 0.21957  0.47659  0.49550  Biso   1.000  N
  H37      1.0000 0.32517  0.52033  0.49241  Biso   1.000  H
  H38      1.0000 0.29410  0.51083  0.55239  Biso   1.000  H
  N28      1.0000 0.27392  0.30490  0.57490  Biso   1.000  N
  H39      1.0000 0.33727  0.39601  0.60501  Biso   1.000  H
  N29      1.0000 0.50966  0.23122  0.46229  Biso   1.000  N
  H40      1.0000 0.54836  0.29558  0.52590  Biso   1.000  H
  H41      1.0000 0.53706  0.34743  0.47262  Biso   1.000  H
  N30      1.0000 0.37631  0.22698  0.56979  Biso   1.000  N
  H42      1.0000 0.44287  0.31791  0.59851  Biso   1.000  H
  C42      1.0000 0.20002  0.49988  0.44292  Biso   1.000  C
  C43      1.0000 0.15548  0.44870  0.52709  Biso   1.000  C
  C44      1.0000 0.19498  0.32910  0.58621  Biso   1.000  C
  C45      1.0000 0.29777  0.22607  0.57671  Biso   1.000  C
  C46      1.0000 0.51230  0.23388  0.40622  Biso   1.000  C
  C47      1.0000 0.51058  0.15021  0.48402  Biso   1.000  C
  C48      1.0000 0.42286  0.15590  0.56910  Biso   1.000  C
  N31      1.0000 0.12280  0.49008  0.43761  Biso   1.000  N
  O14      1.0000 0.24342  0.52783  0.40832  Biso   1.000  O
  C49      1.0000 0.08691  0.45832  0.48661  Biso   1.000  C
  N32      1.0000 0.15439  0.36388  0.54042  Biso   1.000  N
  H43      1.0000 0.14820  0.48191  0.56000  Biso   1.000  H
  H44      1.0000 0.16689  0.28203  0.59880  Biso   1.000  H
  H45      1.0000 0.19538  0.36812  0.61600  Biso   1.000  H
  O15      1.0000 0.25827  0.16642  0.58275  Biso   1.000  O
  N33      1.0000 0.51041  0.15602  0.38750  Biso   1.000  N
  O16      1.0000 0.51700  0.29419  0.37829  Biso   1.000  O
  C50      1.0000 0.50748  0.09691  0.43181  Biso   1.000  C
  N34      1.0000 0.44281  0.12722  0.51442  Biso   1.000  N
  H46      1.0000 0.55730  0.13993  0.50541  Biso   1.000  H
  H47      1.0000 0.39598  0.11301  0.58839  Biso   1.000  H
  H48      1.0000 0.46976  0.16691  0.58921  Biso   1.000  H
  C51      1.0000 0.08061  0.51289  0.38869  Biso   1.000  C
  N35      1.0000 0.05687  0.37683  0.48352  Biso   1.000  N
  H49      1.0000 0.04839  0.49589  0.50109  Biso   1.000  H
  C52      1.0000 0.09150  0.32480  0.51800  Biso   1.000  C
  C53      1.0000 0.51258  0.13491  0.32970  Biso   1.000  C
  N36      1.0000 0.43570  0.05433  0.43761  Biso   1.000  N
  H50      1.0000 0.55099  0.05941  0.43021  Biso   1.000  H
  C54      1.0000 0.40297  0.06552  0.48879  Biso   1.000  C
  N37      1.0000 0.05842  0.44670  0.35410  Biso   1.000  N
  H51      1.0000 0.03480  0.54180  0.39988  Biso   1.000  H
  H52      1.0000 0.11191  0.54991  0.36738  Biso   1.000  H
  C55      1.0000 0.98234  0.35989  0.45909  Biso   1.000  C
  O17      1.0000 0.07269  0.25578  0.52742  Biso   1.000  O
  N38      1.0000 0.43851  0.11773  0.30711  Biso   1.000  N
  H53      1.0000 0.53540  0.17919  0.30942  Biso   1.000  H
  H54      1.0000 0.54520  0.08790  0.32501  Biso   1.000  H
  C56      1.0000 0.41231  0.98639  0.40252  Biso   1.000  C
  O18      1.0000 0.35080  0.02722  0.50808  Biso   1.000  O
  C57      1.0000 0.09591  0.42958  0.30539  Biso   1.000  C
  C58      1.0000 0.98733  0.40163  0.35879  Biso   1.000  C
  N39      1.0000 0.98544  0.34168  0.40120  Biso   1.000  N
  H55      1.0000 0.95941  0.31440  0.47822  Biso   1.000  H
  H56      1.0000 0.94932  0.40641  0.46460  Biso   1.000  H
  C59      1.0000 0.40331  0.17199  0.27140  Biso   1.000  C
  C60      1.0000 0.40607  0.03902  0.30399  Biso   1.000  C
  N40      1.0000 0.36949  0.01258  0.35451  Biso   1.000  N
  H57      1.0000 0.45760  0.95723  0.39059  Biso   1.000  H
  H58      1.0000 0.38078  0.94949  0.42379  Biso   1.000  H
  N41      1.0000 0.05618  0.37151  0.27762  Biso   1.000  N
  O19      1.0000 0.15359  0.46292  0.28926  Biso   1.000  O
  C61      1.0000 0.98481  0.34912  0.30510  Biso   1.000  C
  H59      1.0000 0.94301  0.43793  0.36109  Biso   1.000  H
  C62      1.0000 0.97925  0.26340  0.38121  Biso   1.000  C
  N42      1.0000 0.34019  0.13249  0.25001  Biso   1.000  N
  O20      1.0000 0.42510  0.23860  0.26030  Biso   1.000  O
  C63      1.0000 0.33882  0.04719  0.26420  Biso   1.000  C
  H60      1.0000 0.44356  0.99933  0.29090  Biso   1.000  H
  C64      1.0000 0.29221  0.00242  0.34990  Biso   1.000  C
  C65      1.0000 0.07728  0.34731  0.22269  Biso   1.000  C
  N43      1.0000 0.97971  0.26818  0.32439  Biso   1.000  N
  H61      1.0000 0.94032  0.36322  0.28239  Biso   1.000  H
  O21      1.0000 0.97265  0.20321  0.40889  Biso   1.000  O
  C66      1.0000 0.29920  0.16981  0.20299  Biso   1.000  C
  N44      1.0000 0.27237  0.02529  0.29712  Biso   1.000  N
  H62      1.0000 0.34461  0.01228  0.23179  Biso   1.000  H
  O22      1.0000 0.24858  0.97743  0.38429  Biso   1.000  O
  N45      1.0000 0.12068  0.27381  0.21981  Biso   1.000  N
  H63      1.0000 0.03102  0.34090  0.20109  Biso   1.000  H
  H64      1.0000 0.10721  0.39038  0.20611  Biso   1.000  H
  C67      1.0000 0.97925  0.19812  0.29062  Biso   1.000  C
  N46      1.0000 0.22267  0.19262  0.21660  Biso   1.000  N
  H65      1.0000 0.32718  0.21718  0.19081  Biso   1.000  H
  H66      1.0000 0.29788  0.13158  0.17258  Biso   1.000  H
  C68      1.0000 0.19561  0.01379  0.27449  Biso   1.000  C
  C69      1.0000 0.20077  0.27260  0.21471  Biso   1.000  C
  C70      1.0000 0.08852  0.19359  0.22290  Biso   1.000  C
  N47      1.0000 0.05429  0.17181  0.27412  Biso   1.000  N
  H67      1.0000 0.94915  0.20920  0.25799  Biso   1.000  H
  H68      1.0000 0.95431  0.15439  0.31049  Biso   1.000  H
  C71      1.0000 0.15880  0.13702  0.21870  Biso   1.000  C
  N48      1.0000 0.15450  0.08947  0.26729  Biso   1.000  N
  H69      1.0000 0.19968  0.98693  0.23911  Biso   1.000  H
  H70      1.0000 0.16649  0.97901  0.29880  Biso   1.000  H
  O23      1.0000 0.23998  0.33122  0.20809  Biso   1.000  O
  H71      1.0000 0.05292  0.18409  0.19241  Biso   1.000  H
  C72      1.0000 0.08789  0.10417  0.29601  Biso   1.000  C
  H72      1.0000 0.15640  0.10333  0.18558  Biso   1.000  H
  O24      1.0000 0.06513  0.06388  0.33488  Biso   1.000  O
  C73      1.0000 0.42269  0.34731  0.72271  Biso   1.000  C
  N49      1.0000 0.37929  0.27381  0.71979  Biso   1.000  N
  N50      1.0000 0.44379  0.37151  0.77759  Biso   1.000  N
  H73      1.0000 0.46901  0.34090  0.70111  Biso   1.000  H
  H74      1.0000 0.39277  0.39038  0.70609  Biso   1.000  H
  C74      1.0000 0.29920  0.27260  0.71469  Biso   1.000  C
  C75      1.0000 0.41151  0.19359  0.72292  Biso   1.000  C
  C76      1.0000 0.51516  0.34912  0.80512  Biso   1.000  C
  C77      1.0000 0.40412  0.42958  0.80541  Biso   1.000  C
  N51      1.0000 0.27730  0.19262  0.71662  Biso   1.000  N
  O25      1.0000 0.25999  0.33122  0.70807  Biso   1.000  O
  C78      1.0000 0.34117  0.13702  0.71872  Biso   1.000  C
  N52      1.0000 0.44568  0.17181  0.77410  Biso   1.000  N
  H75      1.0000 0.44711  0.18409  0.69239  Biso   1.000  H
  N53      1.0000 0.52027  0.26818  0.82441  Biso   1.000  N
  C79      1.0000 0.51270  0.40163  0.85881  Biso   1.000  C
  H76      1.0000 0.55971  0.36322  0.78241  Biso   1.000  H
  O26      1.0000 0.34639  0.46292  0.78924  Biso   1.000  O
  N54      1.0000 0.44161  0.44670  0.85412  Biso   1.000  N
  C80      1.0000 0.20077  0.16981  0.70301  Biso   1.000  C
  N55      1.0000 0.34547  0.08947  0.76731  Biso   1.000  N
  H77      1.0000 0.34358  0.10333  0.68560  Biso   1.000  H
  C81      1.0000 0.41209  0.10417  0.79603  Biso   1.000  C
  C82      1.0000 0.52078  0.19812  0.79060  Biso   1.000  C
  C83      1.0000 0.52078  0.26340  0.88123  Biso   1.000  C
  N56      1.0000 0.51459  0.34168  0.90122  Biso   1.000  N
  H78      1.0000 0.55696  0.43793  0.86111  Biso   1.000  H
  C84      1.0000 0.41937  0.51289  0.88872  Biso   1.000  C
  N57      1.0000 0.15978  0.13249  0.74999  Biso   1.000  N
  H79      1.0000 0.17279  0.21718  0.69079  Biso   1.000  H
  H80      1.0000 0.20209  0.13158  0.67260  Biso   1.000  H
  C85      1.0000 0.30436  0.01379  0.77451  Biso   1.000  C
  O27      1.0000 0.43490  0.06388  0.83490  Biso   1.000  O
  H81      1.0000 0.55088  0.20920  0.75801  Biso   1.000  H
  H82      1.0000 0.54566  0.15439  0.81051  Biso   1.000  H
  O28      1.0000 0.52737  0.20321  0.90892  Biso   1.000  O
  C86      1.0000 0.51769  0.35989  0.95911  Biso   1.000  C
  N58      1.0000 0.37717  0.49008  0.93759  Biso   1.000  N
  H83      1.0000 0.46517  0.54180  0.89991  Biso   1.000  H
  H84      1.0000 0.38806  0.54991  0.86740  Biso   1.000  H
  C87      1.0000 0.16121  0.04719  0.76422  Biso   1.000  C
  C88      1.0000 0.09672  0.17199  0.77142  Biso   1.000  C
  N59      1.0000 0.22760  0.02529  0.79710  Biso   1.000  N
  H85      1.0000 0.30029  0.98693  0.73909  Biso   1.000  H
  H86      1.0000 0.33349  0.97901  0.79882  Biso   1.000  H
  N60      1.0000 0.44310  0.37683  0.98350  Biso   1.000  N
  H87      1.0000 0.54056  0.31440  0.97820  Biso   1.000  H
  H88      1.0000 0.55071  0.40641  0.96462  Biso   1.000  H
  C89      1.0000 0.41306  0.45832  0.98659  Biso   1.000  C
  C90      1.0000 0.30001  0.49988  0.94290  Biso   1.000  C
  H89      1.0000 0.15542  0.01228  0.73181  Biso   1.000  H
  C91      1.0000 0.09391  0.03902  0.80401  Biso   1.000  C
  O29      1.0000 0.07487  0.23860  0.76032  Biso   1.000  O
  N61      1.0000 0.06151  0.11773  0.80709  Biso   1.000  N
  C92      1.0000 0.20782  0.00242  0.84992  Biso   1.000  C
  C93      1.0000 0.40847  0.32480  0.01802  Biso   1.000  C
  C94      1.0000 0.34449  0.44870  0.02711  Biso   1.000  C
  H90      1.0000 0.45159  0.49589  0.00111  Biso   1.000  H
  O30      1.0000 0.25661  0.52783  0.90830  Biso   1.000  O
  N62      1.0000 0.28040  0.47659  0.99552  Biso   1.000  N
  N63      1.0000 0.13048  0.01258  0.85453  Biso   1.000  N
  H91      1.0000 0.05641  0.99933  0.79092  Biso   1.000  H
  C95      1.0000 0.98744  0.13491  0.82972  Biso   1.000  C
  O31      1.0000 0.25139  0.97743  0.88431  Biso   1.000  O
  O32      1.0000 0.42728  0.25578  0.02740  Biso   1.000  O
  N64      1.0000 0.34558  0.36388  0.04040  Biso   1.000  N
  H92      1.0000 0.35177  0.48191  0.05998  Biso   1.000  H
  C96      1.0000 0.20341  0.48488  0.01670  Biso   1.000  C
  C97      1.0000 0.08771  0.98639  0.90250  Biso   1.000  C
  N65      1.0000 0.98962  0.15602  0.88752  Biso   1.000  N
  H93      1.0000 0.96463  0.17919  0.80940  Biso   1.000  H
  H94      1.0000 0.95482  0.08790  0.82499  Biso   1.000  H
  C98      1.0000 0.30499  0.32910  0.08619  Biso   1.000  C
  N66      1.0000 0.16287  0.41083  0.02201  Biso   1.000  N
  H95      1.0000 0.17480  0.52033  0.99239  Biso   1.000  H
  H96      1.0000 0.20587  0.51083  0.05241  Biso   1.000  H
  N67      1.0000 0.06432  0.05433  0.93759  Biso   1.000  N
  H97      1.0000 0.04242  0.95723  0.89061  Biso   1.000  H
  H98      1.0000 0.11919  0.94949  0.92381  Biso   1.000  H
  C99      1.0000 0.99255  0.09691  0.93179  Biso   1.000  C
  C100     1.0000 0.98773  0.23388  0.90620  Biso   1.000  C
  N68      1.0000 0.22611  0.30490  0.07492  Biso   1.000  N
  H99      1.0000 0.33308  0.28203  0.09882  Biso   1.000  H
  H100     1.0000 0.30459  0.36812  0.11602  Biso   1.000  H
  C101     1.0000 0.09792  0.39552  0.99210  Biso   1.000  C
  C102     1.0000 0.16442  0.36189  0.07212  Biso   1.000  C
  C103     1.0000 0.09700  0.06552  0.98881  Biso   1.000  C
  H101     1.0000 0.94903  0.05941  0.93023  Biso   1.000  H
  C104     1.0000 0.98945  0.15021  0.98400  Biso   1.000  C
  O33      1.0000 0.98303  0.29419  0.87831  Biso   1.000  O
  N69      1.0000 0.99031  0.23122  0.96232  Biso   1.000  N
  C105     1.0000 0.20220  0.22607  0.07669  Biso   1.000  C
  N70      1.0000 0.05928  0.33279  0.01539  Biso   1.000  N
  O34      1.0000 0.07751  0.43479  0.95195  Biso   1.000  O
  C106     1.0000 0.09247  0.30811  0.06788  Biso   1.000  C
  H102     1.0000 0.16270  0.39601  0.10499  Biso   1.000  H
  O35      1.0000 0.14917  0.02722  0.00810  Biso   1.000  O
  N71      1.0000 0.05721  0.12722  0.01440  Biso   1.000  N
  H103     1.0000 0.94273  0.13993  0.00539  Biso   1.000  H
  C107     1.0000 0.98555  0.30508  0.99490  Biso   1.000  C
  N72      1.0000 0.12372  0.22698  0.06982  Biso   1.000  N
  O36      1.0000 0.24170  0.16642  0.08277  Biso   1.000  O
  H104     1.0000 0.05710  0.31791  0.09849  Biso   1.000  H
  C108     1.0000 0.07711  0.15590  0.06912  Biso   1.000  C
  H105     1.0000 0.96291  0.34743  0.97260  Biso   1.000  H
  H106     1.0000 0.95161  0.29558  0.02592  Biso   1.000  H
  H107     1.0000 0.10400  0.11301  0.08841  Biso   1.000  H
  H108     1.0000 0.03021  0.16691  0.08919  Biso   1.000  H
  O37      1.0000 0.75996  0.66878  0.70807  Biso   1.000  O
  C109     1.0000 0.79917  0.72740  0.71469  Biso   1.000  C
  N73      1.0000 0.87926  0.72619  0.71979  Biso   1.000  N
  N74      1.0000 0.77727  0.80738  0.71662  Biso   1.000  N
  C110     1.0000 0.91148  0.80641  0.72292  Biso   1.000  C
  C111     1.0000 0.92266  0.65269  0.72271  Biso   1.000  C
  C112     1.0000 0.84120  0.86304  0.71872  Biso   1.000  C
  C113     1.0000 0.70080  0.83019  0.70301  Biso   1.000  C
  N75      1.0000 0.94565  0.82819  0.77410  Biso   1.000  N
  H109     1.0000 0.94708  0.81591  0.69239  Biso   1.000  H
  N76      1.0000 0.94376  0.62849  0.77759  Biso   1.000  N
  H110     1.0000 0.96898  0.65910  0.70111  Biso   1.000  H
  H111     1.0000 0.89279  0.60962  0.70609  Biso   1.000  H
  N77      1.0000 0.84550  0.91053  0.76731  Biso   1.000  N
  H112     1.0000 0.84355  0.89673  0.68560  Biso   1.000  H
  N78      1.0000 0.65981  0.86751  0.74999  Biso   1.000  N
  H113     1.0000 0.67276  0.78282  0.69079  Biso   1.000  H
  H114     1.0000 0.70206  0.86842  0.67260  Biso   1.000  H
  C114     1.0000 0.91206  0.89583  0.79603  Biso   1.000  C
  C115     1.0000 0.02075  0.80194  0.79060  Biso   1.000  C
  C116     1.0000 0.90409  0.57042  0.80541  Biso   1.000  C
  C117     1.0000 0.01514  0.65094  0.80512  Biso   1.000  C
  C118     1.0000 0.80439  0.98621  0.77451  Biso   1.000  C
  C119     1.0000 0.66118  0.95281  0.76422  Biso   1.000  C
  C120     1.0000 0.59669  0.82801  0.77142  Biso   1.000  C
  O38      1.0000 0.93487  0.93612  0.83490  Biso   1.000  O
  N79      1.0000 0.02024  0.73182  0.82441  Biso   1.000  N
  H115     1.0000 0.05085  0.79080  0.75801  Biso   1.000  H
  H116     1.0000 0.04563  0.84561  0.81051  Biso   1.000  H
  O39      1.0000 0.84636  0.53708  0.78924  Biso   1.000  O
  N80      1.0000 0.94158  0.55330  0.85412  Biso   1.000  N
  C121     1.0000 0.01267  0.59843  0.85881  Biso   1.000  C
  H117     1.0000 0.05962  0.63678  0.78241  Biso   1.000  H
  N81      1.0000 0.72757  0.97471  0.79710  Biso   1.000  N
  H118     1.0000 0.80026  0.01313  0.73909  Biso   1.000  H
  H119     1.0000 0.83346  0.02099  0.79882  Biso   1.000  H
  H120     1.0000 0.65539  0.98772  0.73181  Biso   1.000  H
  C122     1.0000 0.59388  0.96104  0.80401  Biso   1.000  C
  O40      1.0000 0.57490  0.76140  0.76032  Biso   1.000  O
  N82      1.0000 0.56149  0.88234  0.80709  Biso   1.000  N
  C123     1.0000 0.02075  0.73660  0.88123  Biso   1.000  C
  C124     1.0000 0.91939  0.48711  0.88872  Biso   1.000  C
  N83      1.0000 0.01456  0.65832  0.90122  Biso   1.000  N
  H121     1.0000 0.05693  0.56213  0.86111  Biso   1.000  H
  C125     1.0000 0.70779  0.99764  0.84992  Biso   1.000  C
  N84      1.0000 0.63045  0.98742  0.85453  Biso   1.000  N
  H122     1.0000 0.55638  0.00073  0.79092  Biso   1.000  H
  C126     1.0000 0.48736  0.86509  0.82972  Biso   1.000  C
  O41      1.0000 0.02735  0.79679  0.90892  Biso   1.000  O
  N85      1.0000 0.87720  0.50992  0.93759  Biso   1.000  N
  H123     1.0000 0.96520  0.45820  0.89991  Biso   1.000  H
  H124     1.0000 0.88809  0.45009  0.86740  Biso   1.000  H
  C127     1.0000 0.01766  0.64011  0.95911  Biso   1.000  C
  O42      1.0000 0.75136  0.02263  0.88431  Biso   1.000  O
  C128     1.0000 0.58769  0.01361  0.90250  Biso   1.000  C
  N86      1.0000 0.48959  0.84398  0.88752  Biso   1.000  N
  H125     1.0000 0.46460  0.82081  0.80940  Biso   1.000  H
  H126     1.0000 0.45480  0.91210  0.82499  Biso   1.000  H
  C129     1.0000 0.91309  0.54168  0.98659  Biso   1.000  C
  C130     1.0000 0.79998  0.50012  0.94290  Biso   1.000  C
  N87      1.0000 0.94307  0.62323  0.98350  Biso   1.000  N
  H127     1.0000 0.04053  0.68560  0.97820  Biso   1.000  H
  H128     1.0000 0.05062  0.59359  0.96462  Biso   1.000  H
  N88      1.0000 0.56430  0.94574  0.93759  Biso   1.000  N
  H129     1.0000 0.54240  0.04277  0.89061  Biso   1.000  H
  H130     1.0000 0.61916  0.05051  0.92381  Biso   1.000  H
  C131     1.0000 0.49246  0.90309  0.93179  Biso   1.000  C
  C132     1.0000 0.48770  0.76612  0.90620  Biso   1.000  C
  C133     1.0000 0.84446  0.55130  0.02711  Biso   1.000  C
  H131     1.0000 0.95156  0.50411  0.00111  Biso   1.000  H
  O43      1.0000 0.75658  0.47223  0.90830  Biso   1.000  O
  N89      1.0000 0.78037  0.52341  0.99552  Biso   1.000  N
  C134     1.0000 0.90850  0.67520  0.01802  Biso   1.000  C
  C135     1.0000 0.59697  0.93448  0.98881  Biso   1.000  C
  H132     1.0000 0.44901  0.94059  0.93023  Biso   1.000  H
  C136     1.0000 0.48937  0.84979  0.98400  Biso   1.000  C
  O44      1.0000 0.48300  0.70581  0.87831  Biso   1.000  O
  N90      1.0000 0.49028  0.76878  0.96232  Biso   1.000  N
  N91      1.0000 0.84555  0.63612  0.04040  Biso   1.000  N
  H133     1.0000 0.85180  0.51809  0.05998  Biso   1.000  H
  C137     1.0000 0.70338  0.51512  0.01670  Biso   1.000  C
  O45      1.0000 0.92725  0.74422  0.02740  Biso   1.000  O
  O46      1.0000 0.64920  0.97284  0.00810  Biso   1.000  O
  N92      1.0000 0.55719  0.87284  0.01440  Biso   1.000  N
  H134     1.0000 0.44270  0.86013  0.00539  Biso   1.000  H
  C138     1.0000 0.48547  0.69492  0.99490  Biso   1.000  C
  C139     1.0000 0.80496  0.67090  0.08619  Biso   1.000  C
  H135     1.0000 0.67477  0.47973  0.99239  Biso   1.000  H
  N93      1.0000 0.66290  0.58923  0.02201  Biso   1.000  N
  H136     1.0000 0.70590  0.48923  0.05241  Biso   1.000  H
  C140     1.0000 0.57708  0.84410  0.06912  Biso   1.000  C
  H137     1.0000 0.46288  0.65263  0.97260  Biso   1.000  H
  N94      1.0000 0.55931  0.66721  0.01539  Biso   1.000  N
  H138     1.0000 0.45159  0.70442  0.02592  Biso   1.000  H
  N95      1.0000 0.72608  0.69510  0.07492  Biso   1.000  N
  H139     1.0000 0.83306  0.71803  0.09882  Biso   1.000  H
  H140     1.0000 0.80456  0.63188  0.11602  Biso   1.000  H
  C141     1.0000 0.59789  0.60454  0.99210  Biso   1.000  C
  C142     1.0000 0.66439  0.63811  0.07212  Biso   1.000  C
  N96      1.0000 0.62369  0.77302  0.06982  Biso   1.000  N
  H141     1.0000 0.60397  0.88699  0.08841  Biso   1.000  H
  H142     1.0000 0.53018  0.83309  0.08919  Biso   1.000  H
  C143     1.0000 0.59250  0.69189  0.06788  Biso   1.000  C
  C144     1.0000 0.70217  0.77393  0.07669  Biso   1.000  C
  O47      1.0000 0.57748  0.56521  0.95195  Biso   1.000  O
  H143     1.0000 0.66267  0.60399  0.10499  Biso   1.000  H
  H144     1.0000 0.55707  0.68209  0.09849  Biso   1.000  H
  O48      1.0000 0.74167  0.83364  0.08277  Biso   1.000  O
  Ne1      1.0000 0.24729  0.24942  0.39516  Biso   1.000  Ne
  He1      1.0000 0.16013  0.09458  0.47535  Biso   1.000  He
  He2      1.0000 0.32492  0.38300  0.32860  Biso   1.000  He
  Ar1      1.0000 0.24781  0.24917  0.39475  Biso   1.000  Ar
  Ne2      1.0000 0.74727  0.75060  0.39516  Biso   1.000  Ne
  He3      1.0000 0.66195  0.90399  0.47520  Biso   1.000  He
  He4      1.0000 0.82784  0.61275  0.32662  Biso   1.000  He
  Ar2      1.0000 0.74779  0.75085  0.39475  Biso   1.000  Ar
  Ne3      1.0000 0.25270  0.24942  0.89516  Biso   1.000  Ne
  He5      1.0000 0.32293  0.11761  0.96534  Biso   1.000  He
  He6      1.0000 0.17215  0.38719  0.82666  Biso   1.000  He
  Ar3      1.0000 0.25220  0.24917  0.89476  Biso   1.000  Ar
  Ne4      1.0000 0.75268  0.75060  0.89516  Biso   1.000  Ne
  He7      1.0000 0.82854  0.89051  0.96904  Biso   1.000  He
  He8      1.0000 0.66913  0.60852  0.82466  Biso   1.000  He
  Ar4      1.0000 0.75219  0.75084  0.89477  Biso   1.000  Ar
