data_image0
_cell_length_a       10.706
_cell_length_b       17.793
_cell_length_c       19.005
_cell_angle_alpha    90
_cell_angle_beta     97.56
_cell_angle_gamma    90

_symmetry_space_group_name_H-M    "P 1"
_symmetry_int_tables_number       1

loop_
  _symmetry_equiv_pos_as_xyz
  'x, y, z'

loop_
  _atom_site_label
  _atom_site_occupancy
  _atom_site_fract_x
  _atom_site_fract_y
  _atom_site_fract_z
  _atom_site_thermal_displace_type
  _atom_site_B_iso_or_equiv
  _atom_site_type_symbol
  C1       1.0000 0.95859  0.20042  0.21582  Biso   1.000  C
  C2       1.0000 0.03462  0.21582  0.15621  Biso   1.000  C
  C3       1.0000 0.00847  0.14152  0.27023  Biso   1.000  C
  H1       1.0000 0.87569  0.18541  0.19522  Biso   1.000  H
  H2       1.0000 0.95013  0.24678  0.24040  Biso   1.000  H
  C4       1.0000 0.16289  0.23408  0.16752  Biso   1.000  C
  C5       1.0000 0.97668  0.21419  0.08652  Biso   1.000  C
  C6       1.0000 0.03375  0.06778  0.25128  Biso   1.000  C
  C7       1.0000 0.02735  0.15950  0.34188  Biso   1.000  C
  O1       1.0000 0.22566  0.23689  0.23673  Biso   1.000  O
  C8       1.0000 0.23175  0.24560  0.11163  Biso   1.000  C
  C9       1.0000 0.04303  0.22891  0.03068  Biso   1.000  C
  H3       1.0000 0.88862  0.20261  0.07702  Biso   1.000  H
  O2       1.0000 0.01426  0.04822  0.18026  Biso   1.000  O
  C10      1.0000 0.08193  0.01439  0.30122  Biso   1.000  C
  C11      1.0000 0.07135  0.10763  0.39231  Biso   1.000  C
  H4       1.0000 0.00917  0.20952  0.35643  Biso   1.000  H
  C12      1.0000 0.21513  0.30658  0.27283  Biso   1.000  C
  C13      1.0000 0.16909  0.24459  0.04331  Biso   1.000  C
  C14      1.0000 0.37237  0.26213  0.12543  Biso   1.000  C
  H5       1.0000 0.00077  0.22829  0.98291  Biso   1.000  H
  C15      1.0000 0.89194  0.01961  0.15642  Biso   1.000  C
  C16      1.0000 0.09874  0.03591  0.37161  Biso   1.000  C
  C17      1.0000 0.11219  0.93520  0.27962  Biso   1.000  C
  H6       1.0000 0.08296  0.12100  0.44162  Biso   1.000  H
  H7       1.0000 0.13302  0.31052  0.28758  Biso   1.000  H
  H8       1.0000 0.22497  0.34750  0.24098  Biso   1.000  H
  C18      1.0000 0.31324  0.31158  0.33578  Biso   1.000  C
  H9       1.0000 0.21457  0.25493  0.00409  Biso   1.000  H
  C19      1.0000 0.46044  0.20699  0.16778  Biso   1.000  C
  H10      1.0000 0.40158  0.26820  0.08010  Biso   1.000  H
  H11      1.0000 0.38248  0.30978  0.14910  Biso   1.000  H
  H12      1.0000 0.87555  0.97561  0.18302  Biso   1.000  H
  H13      1.0000 0.82894  0.05660  0.16221  Biso   1.000  H
  C20      1.0000 0.88958  0.00067  0.08110  Biso   1.000  C
  H14      1.0000 0.13048  0.99994  0.40712  Biso   1.000  H
  C21      1.0000 0.20394  0.92564  0.22612  Biso   1.000  C
  H15      1.0000 0.14500  0.90822  0.32171  Biso   1.000  H
  H16      1.0000 0.03455  0.91143  0.26072  Biso   1.000  H
  O3       1.0000 0.30743  0.25645  0.38727  Biso   1.000  O
  H17      1.0000 0.39451  0.30911  0.31980  Biso   1.000  H
  H18      1.0000 0.30654  0.35992  0.35749  Biso   1.000  H
  C22      1.0000 0.44969  0.12910  0.15972  Biso   1.000  C
  C23      1.0000 0.55996  0.23391  0.21593  Biso   1.000  C
  O4       1.0000 0.76812  0.97072  0.05419  Biso   1.000  O
  H19      1.0000 0.95376  0.96431  0.07558  Biso   1.000  H
  H20      1.0000 0.90612  0.04479  0.05478  Biso   1.000  H
  C24      1.0000 0.32291  0.95953  0.23360  Biso   1.000  C
  C25      1.0000 0.16943  0.88271  0.16593  Biso   1.000  C
  C26      1.0000 0.37530  0.19002  0.37713  Biso   1.000  C
  O5       1.0000 0.34562  0.10010  0.11688  Biso   1.000  O
  C27      1.0000 0.53329  0.07930  0.19772  Biso   1.000  C
  H21      1.0000 0.56915  0.28708  0.22288  Biso   1.000  H
  C28      1.0000 0.64457  0.18670  0.25308  Biso   1.000  C
  C29      1.0000 0.77036  0.94464  0.98498  Biso   1.000  C
  C30      1.0000 0.40209  0.95509  0.18068  Biso   1.000  C
  O6       1.0000 0.36959  0.99910  0.29427  Biso   1.000  O
  C31      1.0000 0.24772  0.87371  0.11481  Biso   1.000  C
  H22      1.0000 0.08849  0.85860  0.15972  Biso   1.000  H
  H23      1.0000 0.36728  0.17928  0.32718  Biso   1.000  H
  H24      1.0000 0.33770  0.14899  0.39969  Biso   1.000  H
  C32      1.0000 0.51279  0.19350  0.40552  Biso   1.000  C
  C33      1.0000 0.35723  0.08588  0.04459  Biso   1.000  C
  C34      1.0000 0.63190  0.10999  0.24400  Biso   1.000  C
  C35      1.0000 0.52889  0.99455  0.18848  Biso   1.000  C
  H25      1.0000 0.71279  0.20671  0.28562  Biso   1.000  H
  H26      1.0000 0.83256  0.90581  0.98498  Biso   1.000  H
  H27      1.0000 0.79271  0.98499  0.95552  Biso   1.000  H
  C36      1.0000 0.64287  0.91412  0.95541  Biso   1.000  C
  C37      1.0000 0.36286  0.90991  0.12150  Biso   1.000  C
  C38      1.0000 0.39542  0.95285  0.35648  Biso   1.000  C
  H28      1.0000 0.22252  0.84224  0.07452  Biso   1.000  H
  O7       1.0000 0.52818  0.18400  0.48021  Biso   1.000  O
  H29      1.0000 0.55750  0.15461  0.38419  Biso   1.000  H
  H30      1.0000 0.54679  0.24111  0.39390  Biso   1.000  H
  C39      1.0000 0.22974  0.05542  0.01502  Biso   1.000  C
  H31      1.0000 0.37565  0.13118  0.02070  Biso   1.000  H
  H32      1.0000 0.42226  0.04968  0.04029  Biso   1.000  H
  H33      1.0000 0.69227  0.07711  0.27012  Biso   1.000  H
  H34      1.0000 0.56833  0.98263  0.14740  Biso   1.000  H
  H35      1.0000 0.58013  0.97280  0.22872  Biso   1.000  H
  O8       1.0000 0.65447  0.89990  0.88312  Biso   1.000  O
  H36      1.0000 0.62435  0.86882  0.97930  Biso   1.000  H
  H37      1.0000 0.57774  0.95032  0.95971  Biso   1.000  H
  H38      1.0000 0.41650  0.90401  0.08519  Biso   1.000  H
  C40      1.0000 0.51017  0.97729  0.40308  Biso   1.000  C
  H39      1.0000 0.40600  0.90170  0.34220  Biso   1.000  H
  H40      1.0000 0.32476  0.95465  0.38270  Biso   1.000  H
  C41      1.0000 0.65276  0.19682  0.51370  Biso   1.000  C
  H41      1.0000 0.16753  0.09419  0.01502  Biso   1.000  H
  H42      1.0000 0.20729  0.01501  0.04448  Biso   1.000  H
  O9       1.0000 0.23197  0.02928  0.94581  Biso   1.000  O
  C42      1.0000 0.55031  0.87090  0.84028  Biso   1.000  C
  O10      1.0000 0.61982  0.95931  0.37267  Biso   1.000  O
  H43      1.0000 0.50677  0.03057  0.41051  Biso   1.000  H
  H44      1.0000 0.51321  0.95313  0.44852  Biso   1.000  H
  H45      1.0000 0.65622  0.18541  0.56333  Biso   1.000  H
  H46      1.0000 0.67191  0.24920  0.50972  Biso   1.000  H
  C43      1.0000 0.75217  0.15158  0.48382  Biso   1.000  C
  C44      1.0000 0.11042  0.99933  0.91890  Biso   1.000  C
  C45      1.0000 0.53965  0.79301  0.83222  Biso   1.000  C
  C46      1.0000 0.46671  0.92070  0.80228  Biso   1.000  C
  C47      1.0000 0.73176  0.95583  0.42283  Biso   1.000  C
  O11      1.0000 0.71832  0.07441  0.48084  Biso   1.000  O
  H47      1.0000 0.76104  0.16928  0.43700  Biso   1.000  H
  H48      1.0000 0.83152  0.15781  0.51322  Biso   1.000  H
  C48      1.0000 0.10815  0.98044  0.84358  Biso   1.000  C
  H49      1.0000 0.09397  0.95521  0.94522  Biso   1.000  H
  H50      1.0000 0.04624  0.03569  0.92442  Biso   1.000  H
  C49      1.0000 0.44014  0.76614  0.78407  Biso   1.000  C
  C50      1.0000 0.62763  0.73793  0.87457  Biso   1.000  C
  C51      1.0000 0.36810  0.89001  0.75600  Biso   1.000  C
  C52      1.0000 0.47111  0.00551  0.81152  Biso   1.000  C
  C53      1.0000 0.79208  0.03091  0.43912  Biso   1.000  C
  H51      1.0000 0.79126  0.92334  0.40441  Biso   1.000  H
  H52      1.0000 0.71130  0.93402  0.46598  Biso   1.000  H
  O12      1.0000 0.98583  0.95178  0.81974  Biso   1.000  O
  H53      1.0000 0.17116  0.94340  0.83779  Biso   1.000  H
  H54      1.0000 0.12455  0.02439  0.81698  Biso   1.000  H
  H55      1.0000 0.43095  0.71292  0.77712  Biso   1.000  H
  C54      1.0000 0.35543  0.81330  0.74692  Biso   1.000  C
  C55      1.0000 0.76834  0.75440  0.88837  Biso   1.000  C
  H56      1.0000 0.59842  0.73180  0.91990  Biso   1.000  H
  H57      1.0000 0.61752  0.69022  0.85090  Biso   1.000  H
  H58      1.0000 0.30783  0.92295  0.72988  Biso   1.000  H
  C56      1.0000 0.59791  0.04491  0.81932  Biso   1.000  C
  H59      1.0000 0.43176  0.01742  0.85260  Biso   1.000  H
  H60      1.0000 0.41996  0.02720  0.77128  Biso   1.000  H
  H61      1.0000 0.87501  0.02411  0.46428  Biso   1.000  H
  H62      1.0000 0.79985  0.05688  0.39560  Biso   1.000  H
  C57      1.0000 0.96633  0.93222  0.74867  Biso   1.000  C
  H63      1.0000 0.28721  0.79335  0.71438  Biso   1.000  H
  C58      1.0000 0.83711  0.76592  0.83248  Biso   1.000  C
  C59      1.0000 0.83091  0.75541  0.95669  Biso   1.000  C
  C60      1.0000 0.67709  0.04052  0.76640  Biso   1.000  C
  C61      1.0000 0.63714  0.09009  0.87850  Biso   1.000  C
  C62      1.0000 0.91816  0.98561  0.69878  Biso   1.000  C
  C63      1.0000 0.99162  0.85854  0.72977  Biso   1.000  C
  C64      1.0000 0.96538  0.78424  0.84379  Biso   1.000  C
  O13      1.0000 0.77443  0.76317  0.76327  Biso   1.000  O
  C65      1.0000 0.95706  0.77109  0.96932  Biso   1.000  C
  H64      1.0000 0.78543  0.74512  0.99591  Biso   1.000  H
  C66      1.0000 0.79615  0.07441  0.77388  Biso   1.000  C
  O14      1.0000 0.63041  0.00096  0.70573  Biso   1.000  O
  H65      1.0000 0.58350  0.09599  0.91481  Biso   1.000  H
  C67      1.0000 0.75238  0.12629  0.88519  Biso   1.000  C
  C68      1.0000 0.90135  0.96414  0.62839  Biso   1.000  C
  C69      1.0000 0.88781  0.06480  0.72038  Biso   1.000  C
  C70      1.0000 0.97274  0.84050  0.65812  Biso   1.000  C
  C71      1.0000 0.04141  0.79964  0.78418  Biso   1.000  C
  C72      1.0000 0.02332  0.78581  0.91348  Biso   1.000  C
  C73      1.0000 0.78496  0.69342  0.72717  Biso   1.000  C
  H66      1.0000 0.99932  0.77171  0.01709  Biso   1.000  H
  C74      1.0000 0.83067  0.11729  0.83407  Biso   1.000  C
  C75      1.0000 0.60457  0.04721  0.64347  Biso   1.000  C
  H67      1.0000 0.77757  0.15781  0.92548  Biso   1.000  H
  C76      1.0000 0.92874  0.89243  0.60769  Biso   1.000  C
  H68      1.0000 0.86961  0.00011  0.59288  Biso   1.000  H
  H69      1.0000 0.85500  0.09178  0.67829  Biso   1.000  H
  H70      1.0000 0.96554  0.08857  0.73928  Biso   1.000  H
  H71      1.0000 0.99092  0.79054  0.64357  Biso   1.000  H
  H72      1.0000 0.12431  0.81465  0.80478  Biso   1.000  H
  H73      1.0000 0.04996  0.75322  0.75960  Biso   1.000  H
  H74      1.0000 0.11147  0.79739  0.92298  Biso   1.000  H
  H75      1.0000 0.86698  0.68954  0.71242  Biso   1.000  H
  H76      1.0000 0.77503  0.65250  0.75902  Biso   1.000  H
  C77      1.0000 0.68684  0.68842  0.66417  Biso   1.000  C
  H77      1.0000 0.91151  0.14140  0.84028  Biso   1.000  H
  C78      1.0000 0.48993  0.02271  0.59692  Biso   1.000  C
  H78      1.0000 0.59400  0.09830  0.65780  Biso   1.000  H
  H79      1.0000 0.67533  0.04541  0.61730  Biso   1.000  H
  H80      1.0000 0.91713  0.87900  0.55838  Biso   1.000  H
  O15      1.0000 0.69257  0.74361  0.61273  Biso   1.000  O
  H81      1.0000 0.60549  0.69089  0.68020  Biso   1.000  H
  H82      1.0000 0.69355  0.64014  0.64251  Biso   1.000  H
  H83      1.0000 0.49333  0.96943  0.58949  Biso   1.000  H
  O16      1.0000 0.38018  0.04069  0.62733  Biso   1.000  O
  H84      1.0000 0.48679  0.04693  0.55148  Biso   1.000  H
  C79      1.0000 0.62470  0.81004  0.62287  Biso   1.000  C
  C80      1.0000 0.26833  0.04417  0.57717  Biso   1.000  C
  H85      1.0000 0.63272  0.82072  0.67282  Biso   1.000  H
  H86      1.0000 0.66230  0.85101  0.60031  Biso   1.000  H
  C81      1.0000 0.48721  0.80650  0.59448  Biso   1.000  C
  C82      1.0000 0.20802  0.96915  0.56088  Biso   1.000  C
  H87      1.0000 0.20884  0.07672  0.59559  Biso   1.000  H
  H88      1.0000 0.28870  0.06598  0.53402  Biso   1.000  H
  O17      1.0000 0.47191  0.81605  0.51979  Biso   1.000  O
  H89      1.0000 0.44250  0.84544  0.61581  Biso   1.000  H
  H90      1.0000 0.45321  0.75889  0.60610  Biso   1.000  H
  O18      1.0000 0.28168  0.92564  0.51916  Biso   1.000  O
  H91      1.0000 0.12499  0.97595  0.53572  Biso   1.000  H
  H92      1.0000 0.20025  0.94312  0.60440  Biso   1.000  H
  C83      1.0000 0.34733  0.80324  0.48630  Biso   1.000  C
  C84      1.0000 0.24792  0.84842  0.51618  Biso   1.000  C
  H93      1.0000 0.34378  0.81465  0.43667  Biso   1.000  H
  H94      1.0000 0.32809  0.75080  0.49028  Biso   1.000  H
  H95      1.0000 0.23906  0.83072  0.56300  Biso   1.000  H
  H96      1.0000 0.16848  0.84224  0.48678  Biso   1.000  H
  C85      1.0000 0.83059  0.38273  0.33408  Biso   1.000  C
  C86      1.0000 0.79608  0.42562  0.27389  Biso   1.000  C
  C87      1.0000 0.75230  0.37369  0.38520  Biso   1.000  C
  H97      1.0000 0.91153  0.35862  0.34029  Biso   1.000  H
  C88      1.0000 0.88782  0.43523  0.22038  Biso   1.000  C
  C89      1.0000 0.67711  0.45951  0.26640  Biso   1.000  C
  C90      1.0000 0.63716  0.40994  0.37851  Biso   1.000  C
  H98      1.0000 0.77750  0.34221  0.42548  Biso   1.000  H
  C91      1.0000 0.91809  0.51442  0.19878  Biso   1.000  C
  H99      1.0000 0.85502  0.40819  0.17829  Biso   1.000  H
  H100     1.0000 0.96547  0.41140  0.23928  Biso   1.000  H
  O19      1.0000 0.63043  0.49907  0.20573  Biso   1.000  O
  C92      1.0000 0.59793  0.45512  0.31932  Biso   1.000  C
  H101     1.0000 0.58352  0.40404  0.41481  Biso   1.000  H
  C93      1.0000 0.96635  0.56781  0.24868  Biso   1.000  C
  C94      1.0000 0.90127  0.53588  0.12840  Biso   1.000  C
  C95      1.0000 0.60460  0.45282  0.14353  Biso   1.000  C
  C96      1.0000 0.47113  0.49452  0.31152  Biso   1.000  C
  O20      1.0000 0.98585  0.54825  0.31975  Biso   1.000  O
  C97      1.0000 0.99164  0.64149  0.22978  Biso   1.000  C
  H102     1.0000 0.86963  0.49992  0.09289  Biso   1.000  H
  C98      1.0000 0.92866  0.60760  0.10770  Biso   1.000  C
  C99      1.0000 0.48994  0.47732  0.09692  Biso   1.000  C
  H103     1.0000 0.59402  0.40173  0.15780  Biso   1.000  H
  H104     1.0000 0.67535  0.45462  0.11730  Biso   1.000  H
  C100     1.0000 0.46673  0.57933  0.30229  Biso   1.000  C
  H105     1.0000 0.43169  0.48261  0.35260  Biso   1.000  H
  H106     1.0000 0.41989  0.47283  0.27129  Biso   1.000  H
  C101     1.0000 0.10817  0.51959  0.34358  Biso   1.000  C
  C102     1.0000 0.04143  0.70039  0.28419  Biso   1.000  C
  C103     1.0000 0.97267  0.65953  0.15812  Biso   1.000  C
  H107     1.0000 0.91705  0.62103  0.05839  Biso   1.000  H
  O21      1.0000 0.38020  0.45934  0.12734  Biso   1.000  O
  H108     1.0000 0.49335  0.53060  0.08949  Biso   1.000  H
  H109     1.0000 0.48681  0.45310  0.05149  Biso   1.000  H
  C104     1.0000 0.55033  0.62912  0.34029  Biso   1.000  C
  C105     1.0000 0.36812  0.61002  0.25600  Biso   1.000  C
  H110     1.0000 0.17108  0.55662  0.33780  Biso   1.000  H
  H111     1.0000 0.12456  0.47564  0.31699  Biso   1.000  H
  C106     1.0000 0.11044  0.50070  0.41890  Biso   1.000  C
  H112     1.0000 0.12433  0.68544  0.30478  Biso   1.000  H
  H113     1.0000 0.04989  0.74681  0.25961  Biso   1.000  H
  C107     1.0000 0.96540  0.71584  0.34379  Biso   1.000  C
  H114     1.0000 0.99094  0.70949  0.14358  Biso   1.000  H
  C108     1.0000 0.26826  0.45580  0.07718  Biso   1.000  C
  C109     1.0000 0.53967  0.70702  0.33222  Biso   1.000  C
  O22      1.0000 0.65440  0.60012  0.38313  Biso   1.000  O
  C110     1.0000 0.35545  0.68673  0.24692  Biso   1.000  C
  H115     1.0000 0.30785  0.57714  0.22989  Biso   1.000  H
  O23      1.0000 0.23190  0.47075  0.44581  Biso   1.000  O
  H116     1.0000 0.09399  0.54482  0.44523  Biso   1.000  H
  H117     1.0000 0.04626  0.46428  0.42442  Biso   1.000  H
  C111     1.0000 0.02334  0.71421  0.41349  Biso   1.000  C
  C112     1.0000 0.83713  0.73411  0.33249  Biso   1.000  C
  C113     1.0000 0.20804  0.53094  0.06088  Biso   1.000  C
  H118     1.0000 0.20876  0.42331  0.09560  Biso   1.000  H
  H119     1.0000 0.28872  0.43399  0.03402  Biso   1.000  H
  C114     1.0000 0.62765  0.76210  0.37458  Biso   1.000  C
  C115     1.0000 0.44016  0.73394  0.28408  Biso   1.000  C
  C116     1.0000 0.64288  0.58590  0.45542  Biso   1.000  C
  H120     1.0000 0.28723  0.70674  0.21439  Biso   1.000  H
  C117     1.0000 0.22976  0.44461  0.51503  Biso   1.000  C
  H121     1.0000 0.11140  0.70264  0.42299  Biso   1.000  H
  C118     1.0000 0.95708  0.72894  0.46933  Biso   1.000  C
  O24      1.0000 0.77445  0.73686  0.26327  Biso   1.000  O
  C119     1.0000 0.76836  0.74563  0.38838  Biso   1.000  C
  O25      1.0000 0.28170  0.57444  0.01916  Biso   1.000  O
  H122     1.0000 0.12501  0.52414  0.03572  Biso   1.000  H
  H123     1.0000 0.20017  0.55690  0.10441  Biso   1.000  H
  H124     1.0000 0.59844  0.76822  0.41991  Biso   1.000  H
  H125     1.0000 0.61754  0.80981  0.35091  Biso   1.000  H
  H126     1.0000 0.43097  0.78711  0.27713  Biso   1.000  H
  C120     1.0000 0.77038  0.55539  0.48498  Biso   1.000  C
  H127     1.0000 0.62436  0.63120  0.47930  Biso   1.000  H
  H128     1.0000 0.57776  0.54971  0.45972  Biso   1.000  H
  H129     1.0000 0.16755  0.40583  0.51503  Biso   1.000  H
  H130     1.0000 0.20731  0.48502  0.54449  Biso   1.000  H
  C121     1.0000 0.35725  0.41410  0.54459  Biso   1.000  C
  H131     1.0000 0.99934  0.72832  0.51710  Biso   1.000  H
  C122     1.0000 0.83093  0.74462  0.45669  Biso   1.000  C
  C123     1.0000 0.78489  0.80661  0.22718  Biso   1.000  C
  C124     1.0000 0.24794  0.65160  0.01619  Biso   1.000  C
  O26      1.0000 0.76814  0.52931  0.55420  Biso   1.000  O
  H132     1.0000 0.83249  0.59422  0.48498  Biso   1.000  H
  H133     1.0000 0.79273  0.51503  0.45552  Biso   1.000  H
  O27      1.0000 0.34564  0.39988  0.61689  Biso   1.000  O
  H134     1.0000 0.37577  0.36880  0.52071  Biso   1.000  H
  H135     1.0000 0.42237  0.45029  0.54029  Biso   1.000  H
  H136     1.0000 0.78545  0.75490  0.49592  Biso   1.000  H
  H137     1.0000 0.86700  0.81054  0.21242  Biso   1.000  H
  H138     1.0000 0.77505  0.84752  0.25903  Biso   1.000  H
  C125     1.0000 0.68678  0.81161  0.16423  Biso   1.000  C
  C126     1.0000 0.34735  0.69679  0.98631  Biso   1.000  C
  H139     1.0000 0.16859  0.65779  0.98678  Biso   1.000  H
  H140     1.0000 0.23898  0.66931  0.06300  Biso   1.000  H
  C127     1.0000 0.88969  0.49930  0.58111  Biso   1.000  C
  C128     1.0000 0.44980  0.37093  0.65972  Biso   1.000  C
  O28      1.0000 0.69259  0.75642  0.11274  Biso   1.000  O
  H141     1.0000 0.60551  0.80914  0.18020  Biso   1.000  H
  H142     1.0000 0.69348  0.85994  0.14252  Biso   1.000  H
  O29      1.0000 0.47193  0.68398  0.01980  Biso   1.000  O
  H143     1.0000 0.34389  0.68544  0.93668  Biso   1.000  H
  H144     1.0000 0.32811  0.74923  0.99029  Biso   1.000  H
  C129     1.0000 0.89196  0.48041  0.65643  Biso   1.000  C
  H145     1.0000 0.90614  0.45524  0.55478  Biso   1.000  H
  H146     1.0000 0.95388  0.53572  0.57559  Biso   1.000  H
  C130     1.0000 0.46046  0.29298  0.66779  Biso   1.000  C
  C131     1.0000 0.53340  0.42073  0.69772  Biso   1.000  C
  C132     1.0000 0.62472  0.68999  0.12288  Biso   1.000  C
  C133     1.0000 0.48723  0.69353  0.09448  Biso   1.000  C
  O30      1.0000 0.01428  0.45175  0.68026  Biso   1.000  O
  H147     1.0000 0.82895  0.44343  0.66222  Biso   1.000  H
  H148     1.0000 0.87557  0.52442  0.68302  Biso   1.000  H
  C134     1.0000 0.55998  0.26612  0.71593  Biso   1.000  C
  C135     1.0000 0.37247  0.23790  0.62538  Biso   1.000  C
  C136     1.0000 0.63201  0.38998  0.74401  Biso   1.000  C
  C137     1.0000 0.52900  0.50554  0.68849  Biso   1.000  C
  H149     1.0000 0.63274  0.67931  0.17283  Biso   1.000  H
  H150     1.0000 0.66232  0.64902  0.10032  Biso   1.000  H
  H151     1.0000 0.44252  0.65464  0.11582  Biso   1.000  H
  H152     1.0000 0.45323  0.74113  0.10611  Biso   1.000  H
  C138     1.0000 0.03377  0.43219  0.75128  Biso   1.000  C
  H153     1.0000 0.56917  0.21289  0.72288  Biso   1.000  H
  C139     1.0000 0.64469  0.31333  0.75309  Biso   1.000  C
  C140     1.0000 0.23177  0.25443  0.61163  Biso   1.000  C
  H154     1.0000 0.40169  0.23183  0.58010  Biso   1.000  H
  H155     1.0000 0.38259  0.19019  0.64910  Biso   1.000  H
  H156     1.0000 0.69229  0.42292  0.77012  Biso   1.000  H
  C141     1.0000 0.40220  0.54493  0.68069  Biso   1.000  C
  H157     1.0000 0.56835  0.51739  0.64741  Biso   1.000  H
  H158     1.0000 0.58015  0.52723  0.72872  Biso   1.000  H
  C142     1.0000 0.00849  0.35851  0.77023  Biso   1.000  C
  C143     1.0000 0.08195  0.48558  0.80123  Biso   1.000  C
  H159     1.0000 0.71290  0.29332  0.78562  Biso   1.000  H
  C144     1.0000 0.16300  0.26589  0.66752  Biso   1.000  C
  C145     1.0000 0.16911  0.25538  0.54332  Biso   1.000  C
  C146     1.0000 0.32293  0.54049  0.73361  Biso   1.000  C
  C147     1.0000 0.36297  0.59012  0.62150  Biso   1.000  C
  C148     1.0000 0.95870  0.29961  0.71582  Biso   1.000  C
  C149     1.0000 0.02737  0.34053  0.84189  Biso   1.000  C
  C150     1.0000 0.11231  0.56483  0.77963  Biso   1.000  C
  C151     1.0000 0.09876  0.46412  0.87161  Biso   1.000  C
  O31      1.0000 0.22568  0.26314  0.73674  Biso   1.000  O
  C152     1.0000 0.03463  0.28421  0.65622  Biso   1.000  C
  C153     1.0000 0.04305  0.27112  0.53068  Biso   1.000  C
  H160     1.0000 0.21469  0.24510  0.50409  Biso   1.000  H
  O32      1.0000 0.36970  0.50093  0.79428  Biso   1.000  O
  C154     1.0000 0.20396  0.57444  0.72612  Biso   1.000  C
  H161     1.0000 0.41652  0.59602  0.58520  Biso   1.000  H
  C155     1.0000 0.24774  0.62631  0.61482  Biso   1.000  C
  H162     1.0000 0.87580  0.31462  0.69523  Biso   1.000  H
  H163     1.0000 0.95015  0.25319  0.74040  Biso   1.000  H
  C156     1.0000 0.07137  0.39240  0.89231  Biso   1.000  C
  H164     1.0000 0.00919  0.29051  0.85643  Biso   1.000  H
  H165     1.0000 0.14512  0.59181  0.82172  Biso   1.000  H
  H166     1.0000 0.03457  0.58860  0.76073  Biso   1.000  H
  H167     1.0000 0.13050  0.50008  0.90712  Biso   1.000  H
  C157     1.0000 0.21514  0.19339  0.77278  Biso   1.000  C
  C158     1.0000 0.97679  0.28579  0.58652  Biso   1.000  C
  H168     1.0000 0.00079  0.27168  0.48291  Biso   1.000  H
  C159     1.0000 0.39544  0.54724  0.85648  Biso   1.000  C
  C160     1.0000 0.16945  0.61732  0.66593  Biso   1.000  C
  H169     1.0000 0.22254  0.65779  0.57453  Biso   1.000  H
  H170     1.0000 0.08298  0.37903  0.94162  Biso   1.000  H
  H171     1.0000 0.13303  0.18951  0.78759  Biso   1.000  H
  H172     1.0000 0.22508  0.15248  0.74098  Biso   1.000  H
  C161     1.0000 0.31326  0.18839  0.83578  Biso   1.000  C
  H173     1.0000 0.88864  0.29742  0.57702  Biso   1.000  H
  C162     1.0000 0.51019  0.52273  0.90309  Biso   1.000  C
  H174     1.0000 0.40611  0.59833  0.84221  Biso   1.000  H
  H175     1.0000 0.32478  0.54544  0.88271  Biso   1.000  H
  H176     1.0000 0.08860  0.64143  0.65972  Biso   1.000  H
  O33      1.0000 0.30745  0.24358  0.88727  Biso   1.000  O
  H177     1.0000 0.39453  0.19092  0.81981  Biso   1.000  H
  H178     1.0000 0.30656  0.14011  0.85749  Biso   1.000  H
  O34      1.0000 0.61984  0.54072  0.87267  Biso   1.000  O
  H179     1.0000 0.50679  0.46940  0.91052  Biso   1.000  H
  H180     1.0000 0.51333  0.54690  0.94852  Biso   1.000  H
  C163     1.0000 0.37541  0.31001  0.87713  Biso   1.000  C
  C164     1.0000 0.73177  0.54420  0.92278  Biso   1.000  C
  H181     1.0000 0.36739  0.32069  0.82718  Biso   1.000  H
  H182     1.0000 0.33781  0.35098  0.89969  Biso   1.000  H
  C165     1.0000 0.51291  0.30653  0.90553  Biso   1.000  C
  C166     1.0000 0.79210  0.46912  0.93913  Biso   1.000  C
  H183     1.0000 0.79127  0.57669  0.90442  Biso   1.000  H
  H184     1.0000 0.71141  0.56601  0.96599  Biso   1.000  H
  O35      1.0000 0.52820  0.31602  0.98021  Biso   1.000  O
  H185     1.0000 0.55761  0.34542  0.88419  Biso   1.000  H
  H186     1.0000 0.54690  0.25892  0.89391  Biso   1.000  H
  O36      1.0000 0.71843  0.42562  0.98085  Biso   1.000  O
  H187     1.0000 0.87503  0.47592  0.96429  Biso   1.000  H
  H188     1.0000 0.79986  0.44310  0.89560  Biso   1.000  H
  C167     1.0000 0.65269  0.30321  0.01370  Biso   1.000  C
  C168     1.0000 0.75219  0.34840  0.98382  Biso   1.000  C
  H189     1.0000 0.65624  0.31462  0.06333  Biso   1.000  H
  H190     1.0000 0.67193  0.25083  0.00972  Biso   1.000  H
  H191     1.0000 0.76106  0.33069  0.93701  Biso   1.000  H
  H192     1.0000 0.83154  0.34221  0.01323  Biso   1.000  H
  Ne1      1.0000 0.00003  0.00001  1.00000  Biso   1.000  Ne
  He1      1.0000 0.98404  0.93413  0.99653  Biso   1.000  He
  He2      1.0000 0.91958  0.19674  0.91358  Biso   1.000  He
  Ar1      1.0000 0.00001  0.00001  0.00001  Biso   1.000  Ar
  Ne2      1.0000 0.00005  0.50001  0.50000  Biso   1.000  Ne
  He3      1.0000 0.04574  0.67977  0.58559  Biso   1.000  He
  He4      1.0000 0.91300  0.44981  0.46474  Biso   1.000  He
  Ar2      1.0000 0.96215  0.47994  0.48248  Biso   1.000  Ar
