data_image0
_cell_length_a       13.666
_cell_length_b       17.343
_cell_length_c       34.9
_cell_angle_alpha    90
_cell_angle_beta     106.73
_cell_angle_gamma    90

_symmetry_space_group_name_H-M    "P 1"
_symmetry_int_tables_number       1

loop_
  _symmetry_equiv_pos_as_xyz
  'x, y, z'

loop_
  _atom_site_label
  _atom_site_occupancy
  _atom_site_fract_x
  _atom_site_fract_y
  _atom_site_fract_z
  _atom_site_thermal_displace_type
  _atom_site_B_iso_or_equiv
  _atom_site_type_symbol
  O1       1.0000 0.47607  0.45350  0.36242  Biso   1.000  O
  C1       1.0000 0.40758  0.39163  0.34509  Biso   1.000  C
  C2       1.0000 0.57138  0.44531  0.35470  Biso   1.000  C
  C3       1.0000 0.30948  0.40691  0.35230  Biso   1.000  C
  H1       1.0000 0.39908  0.38857  0.31661  Biso   1.000  H
  H2       1.0000 0.43500  0.34290  0.35721  Biso   1.000  H
  H3       1.0000 0.59834  0.39422  0.36281  Biso   1.000  H
  H4       1.0000 0.56184  0.45010  0.32610  Biso   1.000  H
  C4       1.0000 0.64419  0.50268  0.37570  Biso   1.000  C
  O2       1.0000 0.25744  0.46601  0.32571  Biso   1.000  O
  H5       1.0000 0.32026  0.42328  0.37980  Biso   1.000  H
  H6       1.0000 0.26856  0.36032  0.34800  Biso   1.000  H
  O3       1.0000 0.61078  0.57441  0.36212  Biso   1.000  O
  H7       1.0000 0.71026  0.49311  0.37151  Biso   1.000  H
  H8       1.0000 0.65220  0.49951  0.40422  Biso   1.000  H
  C5       1.0000 0.16965  0.49513  0.33061  Biso   1.000  C
  C6       1.0000 0.68690  0.63270  0.37020  Biso   1.000  C
  C7       1.0000 0.12786  0.55619  0.30671  Biso   1.000  C
  C8       1.0000 0.12269  0.46849  0.35841  Biso   1.000  C
  H9       1.0000 0.71846  0.63738  0.39880  Biso   1.000  H
  H10      1.0000 0.73948  0.62019  0.35751  Biso   1.000  H
  C9       1.0000 0.63438  0.70680  0.35350  Biso   1.000  C
  C10      1.0000 0.04329  0.59378  0.31131  Biso   1.000  C
  H11      1.0000 0.15706  0.57262  0.28711  Biso   1.000  H
  H12      1.0000 0.14938  0.42680  0.37480  Biso   1.000  H
  C11      1.0000 0.03446  0.50562  0.36131  Biso   1.000  C
  O4       1.0000 0.58275  0.73482  0.38022  Biso   1.000  O
  H13      1.0000 0.58629  0.69780  0.32741  Biso   1.000  H
  H14      1.0000 0.68428  0.74439  0.35051  Biso   1.000  H
  O5       1.0000 0.01248  0.65698  0.28702  Biso   1.000  O
  C12      1.0000 0.99597  0.56749  0.33872  Biso   1.000  C
  C13      1.0000 0.98158  0.46803  0.38961  Biso   1.000  C
  C14      1.0000 0.51163  0.79340  0.36759  Biso   1.000  C
  C15      1.0000 0.94188  0.70928  0.29621  Biso   1.000  C
  H15      1.0000 0.93809  0.59223  0.34150  Biso   1.000  H
  H16      1.0000 0.03259  0.45742  0.41481  Biso   1.000  H
  O6       1.0000 0.90521  0.51110  0.39721  Biso   1.000  O
  H17      1.0000 0.95314  0.41902  0.37831  Biso   1.000  H
  C16      1.0000 0.46748  0.81981  0.39482  Biso   1.000  C
  C17      1.0000 0.48348  0.81843  0.32810  Biso   1.000  C
  H18      1.0000 0.87887  0.68241  0.29510  Biso   1.000  H
  H19      1.0000 0.97015  0.72929  0.32301  Biso   1.000  H
  C18      1.0000 0.92065  0.77242  0.26781  Biso   1.000  C
  C19      1.0000 0.93299  0.54500  0.43530  Biso   1.000  C
  H20      1.0000 0.48871  0.80240  0.42112  Biso   1.000  H
  C20      1.0000 0.39096  0.87292  0.38300  Biso   1.000  C
  H21      1.0000 0.51489  0.80021  0.30952  Biso   1.000  H
  C21      1.0000 0.40493  0.87263  0.31841  Biso   1.000  C
  O7       1.0000 0.01057  0.81439  0.27059  Biso   1.000  O
  H22      1.0000 0.86958  0.80609  0.27320  Biso   1.000  H
  H23      1.0000 0.89355  0.75218  0.24091  Biso   1.000  H
  C22      1.0000 0.98655  0.61869  0.43560  Biso   1.000  C
  H24      1.0000 0.87221  0.55371  0.44371  Biso   1.000  H
  H25      1.0000 0.97710  0.50989  0.45430  Biso   1.000  H
  C23      1.0000 0.35973  0.89979  0.34560  Biso   1.000  C
  C24      1.0000 0.33654  0.90002  0.41310  Biso   1.000  C
  O8       1.0000 0.37413  0.89212  0.27670  Biso   1.000  O
  C25      1.0000 0.99266  0.88208  0.24821  Biso   1.000  C
  C26      1.0000 0.02791  0.67618  0.43512  Biso   1.000  C
  H26      1.0000 0.30804  0.93652  0.33839  Biso   1.000  H
  O9       1.0000 0.26138  0.84651  0.41199  Biso   1.000  O
  H27      1.0000 0.30690  0.95070  0.40592  Biso   1.000  H
  H28      1.0000 0.38421  0.90278  0.43982  Biso   1.000  H
  C27      1.0000 0.32228  0.95843  0.26261  Biso   1.000  C
  C28      1.0000 0.08052  0.91939  0.24540  Biso   1.000  C
  H29      1.0000 0.95026  0.87009  0.22150  Biso   1.000  H
  H30      1.0000 0.95443  0.91720  0.26021  Biso   1.000  H
  C29      1.0000 0.07985  0.74209  0.43590  Biso   1.000  C
  C30      1.0000 0.20667  0.86352  0.44000  Biso   1.000  C
  H31      1.0000 0.30383  0.98409  0.28430  Biso   1.000  H
  H32      1.0000 0.36607  0.99268  0.25309  Biso   1.000  H
  C31      1.0000 0.22923  0.94240  0.22999  Biso   1.000  C
  O10      1.0000 0.15983  0.89610  0.24070  Biso   1.000  O
  H33      1.0000 0.10197  0.95012  0.26961  Biso   1.000  H
  H34      1.0000 0.05564  0.95612  0.22380  Biso   1.000  H
  C32      1.0000 0.13650  0.79940  0.43722  Biso   1.000  C
  H35      1.0000 0.25287  0.86750  0.46681  Biso   1.000  H
  H36      1.0000 0.16948  0.91161  0.43330  Biso   1.000  H
  H37      1.0000 0.24855  0.91778  0.20830  Biso   1.000  H
  H38      1.0000 0.19643  0.99089  0.22012  Biso   1.000  H
  O11      1.0000 0.52413  0.54650  0.63762  Biso   1.000  O
  C33      1.0000 0.42880  0.55469  0.64531  Biso   1.000  C
  C34      1.0000 0.59260  0.60837  0.65491  Biso   1.000  C
  C35      1.0000 0.35599  0.49732  0.62431  Biso   1.000  C
  H39      1.0000 0.40184  0.60578  0.63720  Biso   1.000  H
  H40      1.0000 0.43834  0.54990  0.67391  Biso   1.000  H
  C36      1.0000 0.69070  0.59309  0.64770  Biso   1.000  C
  H41      1.0000 0.60112  0.61143  0.68343  Biso   1.000  H
  H42      1.0000 0.56520  0.65710  0.64283  Biso   1.000  H
  O12      1.0000 0.38942  0.42559  0.63792  Biso   1.000  O
  H43      1.0000 0.28995  0.50689  0.62852  Biso   1.000  H
  H44      1.0000 0.34801  0.50049  0.59582  Biso   1.000  H
  O13      1.0000 0.74274  0.53399  0.67430  Biso   1.000  O
  H45      1.0000 0.67992  0.57672  0.62021  Biso   1.000  H
  H46      1.0000 0.73162  0.63968  0.65201  Biso   1.000  H
  C37      1.0000 0.31328  0.36730  0.62981  Biso   1.000  C
  C38      1.0000 0.83055  0.50487  0.66942  Biso   1.000  C
  C39      1.0000 0.36580  0.29320  0.64651  Biso   1.000  C
  H47      1.0000 0.28172  0.36262  0.60121  Biso   1.000  H
  H48      1.0000 0.26072  0.37981  0.64253  Biso   1.000  H
  C40      1.0000 0.87749  0.53151  0.64160  Biso   1.000  C
  C41      1.0000 0.87232  0.44381  0.69330  Biso   1.000  C
  O14      1.0000 0.41745  0.26518  0.61982  Biso   1.000  O
  H49      1.0000 0.41391  0.30220  0.67263  Biso   1.000  H
  H50      1.0000 0.31592  0.25561  0.64953  Biso   1.000  H
  C42      1.0000 0.96575  0.49438  0.63873  Biso   1.000  C
  H51      1.0000 0.85080  0.57320  0.62520  Biso   1.000  H
  C43      1.0000 0.95691  0.40622  0.68872  Biso   1.000  C
  H52      1.0000 0.84314  0.42738  0.71293  Biso   1.000  H
  C44      1.0000 0.48855  0.20660  0.63241  Biso   1.000  C
  C45      1.0000 0.01863  0.53197  0.61042  Biso   1.000  C
  C46      1.0000 0.00423  0.43251  0.66132  Biso   1.000  C
  O15      1.0000 0.98770  0.34302  0.71299  Biso   1.000  O
  C47      1.0000 0.53273  0.18019  0.60522  Biso   1.000  C
  C48      1.0000 0.51670  0.18157  0.67191  Biso   1.000  C
  O16      1.0000 0.09499  0.48890  0.60282  Biso   1.000  O
  H53      1.0000 0.96759  0.54258  0.58520  Biso   1.000  H
  H54      1.0000 0.04704  0.58098  0.62170  Biso   1.000  H
  H55      1.0000 0.06209  0.40777  0.65850  Biso   1.000  H
  C49      1.0000 0.05830  0.29072  0.70380  Biso   1.000  C
  C50      1.0000 0.60922  0.12708  0.61700  Biso   1.000  C
  H56      1.0000 0.51149  0.19760  0.57892  Biso   1.000  H
  C51      1.0000 0.59525  0.12737  0.68160  Biso   1.000  C
  H57      1.0000 0.48531  0.19979  0.69052  Biso   1.000  H
  C52      1.0000 0.06719  0.45500  0.56471  Biso   1.000  C
  C53      1.0000 0.07956  0.22758  0.73223  Biso   1.000  C
  H58      1.0000 0.12131  0.31759  0.70491  Biso   1.000  H
  H59      1.0000 0.03005  0.27071  0.67702  Biso   1.000  H
  C54      1.0000 0.66364  0.09998  0.58691  Biso   1.000  C
  C55      1.0000 0.64045  0.10021  0.65440  Biso   1.000  C
  O17      1.0000 0.62605  0.10788  0.72331  Biso   1.000  O
  C56      1.0000 0.01363  0.38131  0.56441  Biso   1.000  C
  H60      1.0000 0.12797  0.44629  0.55630  Biso   1.000  H
  H61      1.0000 0.02308  0.49011  0.54571  Biso   1.000  H
  O18      1.0000 0.98961  0.18561  0.72941  Biso   1.000  O
  H62      1.0000 0.13060  0.19391  0.72681  Biso   1.000  H
  H63      1.0000 0.10665  0.24782  0.75912  Biso   1.000  H
  O19      1.0000 0.73880  0.15349  0.58801  Biso   1.000  O
  H64      1.0000 0.69331  0.04930  0.59412  Biso   1.000  H
  H65      1.0000 0.61599  0.09722  0.56022  Biso   1.000  H
  H66      1.0000 0.69214  0.06348  0.66162  Biso   1.000  H
  C57      1.0000 0.67790  0.04157  0.73740  Biso   1.000  C
  C58      1.0000 0.97229  0.32382  0.56491  Biso   1.000  C
  C59      1.0000 0.00754  0.11792  0.75182  Biso   1.000  C
  C60      1.0000 0.79351  0.13648  0.56001  Biso   1.000  C
  H67      1.0000 0.69635  0.01591  0.71571  Biso   1.000  H
  H68      1.0000 0.63411  0.00732  0.74692  Biso   1.000  H
  C61      1.0000 0.77095  0.05760  0.77001  Biso   1.000  C
  C62      1.0000 0.92033  0.25791  0.56411  Biso   1.000  C
  C63      1.0000 0.91966  0.08061  0.75461  Biso   1.000  C
  H69      1.0000 0.04992  0.12991  0.77851  Biso   1.000  H
  H70      1.0000 0.04578  0.08280  0.73983  Biso   1.000  H
  C64      1.0000 0.86370  0.20060  0.56282  Biso   1.000  C
  H71      1.0000 0.74731  0.13250  0.53320  Biso   1.000  H
  H72      1.0000 0.83070  0.08839  0.56671  Biso   1.000  H
  O20      1.0000 0.84035  0.10390  0.75930  Biso   1.000  O
  H73      1.0000 0.75163  0.08222  0.79171  Biso   1.000  H
  H74      1.0000 0.80377  0.00911  0.77992  Biso   1.000  H
  H75      1.0000 0.89821  0.04988  0.73040  Biso   1.000  H
  H76      1.0000 0.94454  0.04388  0.77621  Biso   1.000  H
  C65      1.0000 0.77085  0.44243  0.27000  Biso   1.000  C
  C66      1.0000 0.67782  0.45840  0.23741  Biso   1.000  C
  O21      1.0000 0.84027  0.39613  0.25931  Biso   1.000  O
  H77      1.0000 0.75155  0.41781  0.29172  Biso   1.000  H
  H78      1.0000 0.80367  0.49092  0.27990  Biso   1.000  H
  O22      1.0000 0.62595  0.39209  0.22329  Biso   1.000  O
  H79      1.0000 0.69625  0.48411  0.21569  Biso   1.000  H
  H80      1.0000 0.63401  0.49271  0.24690  Biso   1.000  H
  C67      1.0000 0.91958  0.41942  0.25462  Biso   1.000  C
  C68      1.0000 0.59517  0.37260  0.18161  Biso   1.000  C
  H81      1.0000 0.89813  0.45010  0.23041  Biso   1.000  H
  H82      1.0000 0.94446  0.45609  0.27622  Biso   1.000  H
  C69      1.0000 0.00744  0.38211  0.25180  Biso   1.000  C
  C70      1.0000 0.51660  0.31840  0.17189  Biso   1.000  C
  C71      1.0000 0.64037  0.39982  0.15442  Biso   1.000  C
  O23      1.0000 0.98951  0.31442  0.22939  Biso   1.000  O
  H83      1.0000 0.04982  0.37012  0.27849  Biso   1.000  H
  H84      1.0000 0.04567  0.41717  0.23981  Biso   1.000  H
  C72      1.0000 0.48845  0.29337  0.13239  Biso   1.000  C
  H85      1.0000 0.48521  0.30018  0.19050  Biso   1.000  H
  C73      1.0000 0.60915  0.37289  0.11702  Biso   1.000  C
  H86      1.0000 0.69204  0.43649  0.16160  Biso   1.000  H
  C74      1.0000 0.07946  0.27239  0.23221  Biso   1.000  C
  O24      1.0000 0.41735  0.23479  0.11980  Biso   1.000  O
  C75      1.0000 0.53263  0.31978  0.10520  Biso   1.000  C
  C76      1.0000 0.66354  0.39999  0.08689  Biso   1.000  C
  C77      1.0000 0.05822  0.20931  0.20381  Biso   1.000  C
  H87      1.0000 0.13050  0.30612  0.22679  Biso   1.000  H
  H88      1.0000 0.10655  0.25221  0.25910  Biso   1.000  H
  C78      1.0000 0.36572  0.20683  0.14652  Biso   1.000  C
  H89      1.0000 0.51139  0.30243  0.07890  Biso   1.000  H
  O25      1.0000 0.73870  0.34648  0.08799  Biso   1.000  O
  H90      1.0000 0.69321  0.45067  0.09410  Biso   1.000  H
  H91      1.0000 0.61589  0.40281  0.06020  Biso   1.000  H
  O26      1.0000 0.98762  0.15701  0.21300  Biso   1.000  O
  H92      1.0000 0.12121  0.18238  0.20489  Biso   1.000  H
  H93      1.0000 0.02995  0.22931  0.17701  Biso   1.000  H
  C79      1.0000 0.31318  0.13268  0.12979  Biso   1.000  C
  H94      1.0000 0.41381  0.19777  0.17261  Biso   1.000  H
  H95      1.0000 0.31582  0.24442  0.14951  Biso   1.000  H
  C80      1.0000 0.79341  0.36349  0.05999  Biso   1.000  C
  C81      1.0000 0.95681  0.09381  0.18870  Biso   1.000  C
  O27      1.0000 0.38932  0.07438  0.13790  Biso   1.000  O
  H96      1.0000 0.28162  0.13740  0.10119  Biso   1.000  H
  H97      1.0000 0.26062  0.12022  0.14251  Biso   1.000  H
  C82      1.0000 0.86360  0.29937  0.06280  Biso   1.000  C
  H98      1.0000 0.74723  0.36753  0.03321  Biso   1.000  H
  H99      1.0000 0.83060  0.41158  0.06669  Biso   1.000  H
  C83      1.0000 0.87224  0.05622  0.19331  Biso   1.000  C
  C84      1.0000 0.00413  0.06752  0.16130  Biso   1.000  C
  C85      1.0000 0.35591  0.00271  0.12432  Biso   1.000  C
  C86      1.0000 0.92023  0.24211  0.06409  Biso   1.000  C
  C87      1.0000 0.83045  0.99510  0.16941  Biso   1.000  C
  H100     1.0000 0.84304  0.07259  0.21291  Biso   1.000  H
  C88      1.0000 0.96565  0.00559  0.13871  Biso   1.000  C
  H101     1.0000 0.06202  0.09220  0.15851  Biso   1.000  H
  C89      1.0000 0.42870  0.94528  0.14529  Biso   1.000  C
  H102     1.0000 0.28984  0.99308  0.12851  Biso   1.000  H
  H103     1.0000 0.34791  0.99948  0.09580  Biso   1.000  H
  C90      1.0000 0.97219  0.17621  0.06490  Biso   1.000  C
  O28      1.0000 0.74266  0.96598  0.17431  Biso   1.000  O
  C91      1.0000 0.87741  0.96852  0.14161  Biso   1.000  C
  C92      1.0000 0.01852  0.96800  0.11040  Biso   1.000  C
  O29      1.0000 0.52403  0.95353  0.13760  Biso   1.000  O
  H104     1.0000 0.40176  0.89419  0.13721  Biso   1.000  H
  H105     1.0000 0.43824  0.95012  0.17389  Biso   1.000  H
  C93      1.0000 0.01353  0.11872  0.06439  Biso   1.000  C
  C94      1.0000 0.69062  0.90688  0.14771  Biso   1.000  C
  H106     1.0000 0.85072  0.92677  0.12521  Biso   1.000  H
  O30      1.0000 0.09489  0.01113  0.10280  Biso   1.000  O
  H107     1.0000 0.96752  0.95739  0.08521  Biso   1.000  H
  H108     1.0000 0.04696  0.91899  0.12171  Biso   1.000  H
  C95      1.0000 0.59250  0.89160  0.15489  Biso   1.000  C
  C96      1.0000 0.06709  0.04497  0.06469  Biso   1.000  C
  H109     1.0000 0.67982  0.92331  0.12019  Biso   1.000  H
  H110     1.0000 0.73152  0.86029  0.15199  Biso   1.000  H
  H111     1.0000 0.60102  0.88860  0.18341  Biso   1.000  H
  H112     1.0000 0.56510  0.84288  0.14281  Biso   1.000  H
  H113     1.0000 0.12789  0.05368  0.05631  Biso   1.000  H
  H114     1.0000 0.02298  0.00992  0.04569  Biso   1.000  H
  C97      1.0000 0.22933  0.55757  0.73001  Biso   1.000  C
  O31      1.0000 0.15993  0.60387  0.74072  Biso   1.000  O
  C98      1.0000 0.32238  0.54160  0.76262  Biso   1.000  C
  H115     1.0000 0.24865  0.58219  0.70832  Biso   1.000  H
  H116     1.0000 0.19651  0.50908  0.72011  Biso   1.000  H
  C99      1.0000 0.08062  0.58058  0.74542  Biso   1.000  C
  O32      1.0000 0.37423  0.60791  0.77672  Biso   1.000  O
  H117     1.0000 0.30393  0.51589  0.78432  Biso   1.000  H
  H118     1.0000 0.36617  0.50729  0.75311  Biso   1.000  H
  H119     1.0000 0.10207  0.54990  0.76963  Biso   1.000  H
  H120     1.0000 0.05574  0.54391  0.72382  Biso   1.000  H
  C100     1.0000 0.99274  0.61789  0.74820  Biso   1.000  C
  C101     1.0000 0.40503  0.62740  0.81842  Biso   1.000  C
  O33      1.0000 0.01067  0.68558  0.77061  Biso   1.000  O
  H121     1.0000 0.95036  0.62988  0.72151  Biso   1.000  H
  H122     1.0000 0.95453  0.58283  0.76023  Biso   1.000  H
  C102     1.0000 0.48358  0.68160  0.82812  Biso   1.000  C
  C103     1.0000 0.35983  0.60018  0.84562  Biso   1.000  C
  C104     1.0000 0.92075  0.72761  0.76783  Biso   1.000  C
  H123     1.0000 0.51497  0.69982  0.80951  Biso   1.000  H
  C105     1.0000 0.51173  0.70663  0.86761  Biso   1.000  C
  H124     1.0000 0.30814  0.56351  0.83841  Biso   1.000  H
  C106     1.0000 0.39106  0.62711  0.88302  Biso   1.000  C
  C107     1.0000 0.94199  0.79069  0.79622  Biso   1.000  C
  H125     1.0000 0.86968  0.69388  0.77322  Biso   1.000  H
  H126     1.0000 0.89363  0.74779  0.74090  Biso   1.000  H
  O34      1.0000 0.58283  0.76521  0.88021  Biso   1.000  O
  C108     1.0000 0.46755  0.68022  0.89481  Biso   1.000  C
  C109     1.0000 0.33664  0.60001  0.91312  Biso   1.000  C
  O35      1.0000 0.01258  0.84299  0.78704  Biso   1.000  O
  H127     1.0000 0.87897  0.81762  0.79512  Biso   1.000  H
  H128     1.0000 0.97023  0.77069  0.82300  Biso   1.000  H
  C110     1.0000 0.63448  0.79317  0.85352  Biso   1.000  C
  H129     1.0000 0.48879  0.69757  0.92111  Biso   1.000  H
  O36      1.0000 0.26148  0.65352  0.91201  Biso   1.000  O
  H130     1.0000 0.30697  0.54933  0.90591  Biso   1.000  H
  H131     1.0000 0.38429  0.59719  0.93981  Biso   1.000  H
  C111     1.0000 0.04337  0.90619  0.81130  Biso   1.000  C
  C112     1.0000 0.68693  0.86732  0.87022  Biso   1.000  C
  H132     1.0000 0.58640  0.80223  0.82743  Biso   1.000  H
  H133     1.0000 0.68438  0.75558  0.85053  Biso   1.000  H
  C113     1.0000 0.20677  0.63651  0.94002  Biso   1.000  C
  C114     1.0000 0.12796  0.94378  0.80673  Biso   1.000  C
  C115     1.0000 0.99605  0.93248  0.83871  Biso   1.000  C
  O37      1.0000 0.61086  0.92562  0.86211  Biso   1.000  O
  H134     1.0000 0.71856  0.86260  0.89882  Biso   1.000  H
  H135     1.0000 0.73958  0.87978  0.85753  Biso   1.000  H
  C116     1.0000 0.13658  0.70063  0.93721  Biso   1.000  C
  H136     1.0000 0.25297  0.63247  0.96683  Biso   1.000  H
  H137     1.0000 0.16958  0.58842  0.93332  Biso   1.000  H
  H138     1.0000 0.15716  0.92741  0.78713  Biso   1.000  H
  C117     1.0000 0.16975  0.00490  0.83063  Biso   1.000  C
  C118     1.0000 0.03456  0.99441  0.86133  Biso   1.000  C
  H139     1.0000 0.93819  0.90780  0.84152  Biso   1.000  H
  C119     1.0000 0.64429  0.99729  0.87572  Biso   1.000  C
  C120     1.0000 0.07995  0.75789  0.93592  Biso   1.000  C
  O38      1.0000 0.25754  0.03402  0.82573  Biso   1.000  O
  C121     1.0000 0.12279  0.03148  0.85843  Biso   1.000  C
  C122     1.0000 0.98168  0.03200  0.88963  Biso   1.000  C
  C123     1.0000 0.57148  0.05472  0.85472  Biso   1.000  C
  H140     1.0000 0.71036  0.00692  0.87153  Biso   1.000  H
  H141     1.0000 0.65227  0.00052  0.90420  Biso   1.000  H
  C124     1.0000 0.02799  0.82379  0.93511  Biso   1.000  C
  C125     1.0000 0.30958  0.09312  0.85232  Biso   1.000  C
  H142     1.0000 0.14948  0.07323  0.87482  Biso   1.000  H
  O39      1.0000 0.90531  0.98887  0.89723  Biso   1.000  O
  H143     1.0000 0.95324  0.08101  0.87832  Biso   1.000  H
  H144     1.0000 0.03269  0.04261  0.91483  Biso   1.000  H
  O40      1.0000 0.47615  0.04647  0.86241  Biso   1.000  O
  H145     1.0000 0.59844  0.10581  0.86283  Biso   1.000  H
  H146     1.0000 0.56194  0.04988  0.82611  Biso   1.000  H
  C126     1.0000 0.98665  0.88128  0.93562  Biso   1.000  C
  H147     1.0000 0.32036  0.07669  0.87982  Biso   1.000  H
  H148     1.0000 0.26866  0.13971  0.84802  Biso   1.000  H
  C127     1.0000 0.40768  0.10840  0.84511  Biso   1.000  C
  C128     1.0000 0.93309  0.95503  0.93532  Biso   1.000  C
  H149     1.0000 0.39918  0.11140  0.81663  Biso   1.000  H
  H150     1.0000 0.43510  0.15712  0.85723  Biso   1.000  H
  H151     1.0000 0.87232  0.94632  0.94373  Biso   1.000  H
  H152     1.0000 0.97720  0.99008  0.95432  Biso   1.000  H
  Ne1      1.0000 0.24550  0.69003  0.34560  Biso   1.000  Ne
  He1      1.0000 0.36226  0.63167  0.35509  Biso   1.000  He
  He2      1.0000 0.13959  0.77258  0.34463  Biso   1.000  He
  He3      1.0000 0.36493  0.63212  0.34575  Biso   1.000  He
  Ar1      1.0000 0.26557  0.70766  0.35223  Biso   1.000  Ar
  Ne2      1.0000 0.75459  0.19003  0.15441  Biso   1.000  Ne
  He4      1.0000 0.62732  0.13181  0.18775  Biso   1.000  He
  He5      1.0000 0.92016  0.33856  0.14810  Biso   1.000  He
  He6      1.0000 0.72361  0.19023  0.13425  Biso   1.000  He
  Ar2      1.0000 0.73453  0.20765  0.14778  Biso   1.000  Ar
  Ne3      1.0000 0.75469  0.30997  0.65442  Biso   1.000  Ne
  He7      1.0000 0.61044  0.41726  0.75935  Biso   1.000  He
  He8      1.0000 0.91717  0.16799  0.64828  Biso   1.000  He
  He9      1.0000 0.72425  0.30896  0.63485  Biso   1.000  He
  Ar3      1.0000 0.73468  0.29232  0.64778  Biso   1.000  Ar
  Ne4      1.0000 0.24560  0.80997  0.84561  Biso   1.000  Ne
  He10     1.0000 0.37499  0.87029  0.83437  Biso   1.000  He
  He11     1.0000 0.14208  0.72924  0.84430  Biso   1.000  He
  He12     1.0000 0.00000  0.00000  0.00000  Biso   1.000  He
  Ar4      1.0000 0.26567  0.79235  0.85224  Biso   1.000  Ar
