data_image0
_cell_length_a       12.082
_cell_length_b       16.478
_cell_length_c       18.362
_cell_angle_alpha    85.15
_cell_angle_beta     72.44
_cell_angle_gamma    75.76

_symmetry_space_group_name_H-M    "P 1"
_symmetry_int_tables_number       1

loop_
  _symmetry_equiv_pos_as_xyz
  'x, y, z'

loop_
  _atom_site_label
  _atom_site_occupancy
  _atom_site_fract_x
  _atom_site_fract_y
  _atom_site_fract_z
  _atom_site_thermal_displace_type
  _atom_site_B_iso_or_equiv
  _atom_site_type_symbol
  C1       1.0000 0.54899  0.59093  0.41822  Biso   1.000  C
  C2       1.0000 0.61394  0.65370  0.41530  Biso   1.000  C
  H1       1.0000 0.58945  0.53899  0.43621  Biso   1.000  H
  H2       1.0000 0.54433  0.58340  0.36800  Biso   1.000  H
  H3       1.0000 0.46990  0.60810  0.45232  Biso   1.000  H
  C3       1.0000 0.55074  0.73671  0.38571  Biso   1.000  C
  C4       1.0000 0.61964  0.66440  0.49288  Biso   1.000  C
  C5       1.0000 0.73880  0.62413  0.36572  Biso   1.000  C
  C6       1.0000 0.44057  0.77981  0.42947  Biso   1.000  C
  C7       1.0000 0.59964  0.77231  0.31619  Biso   1.000  C
  H4       1.0000 0.65942  0.61233  0.51082  Biso   1.000  H
  H5       1.0000 0.54017  0.68151  0.52658  Biso   1.000  H
  H6       1.0000 0.66294  0.70630  0.49179  Biso   1.000  H
  H7       1.0000 0.77557  0.57223  0.38560  Biso   1.000  H
  H8       1.0000 0.78345  0.66521  0.36480  Biso   1.000  H
  H9       1.0000 0.73794  0.61599  0.31471  Biso   1.000  H
  C8       1.0000 0.37724  0.85382  0.40422  Biso   1.000  C
  H10      1.0000 0.40739  0.75869  0.47757  Biso   1.000  H
  C9       1.0000 0.54177  0.84572  0.28797  Biso   1.000  C
  H11      1.0000 0.67527  0.74550  0.28677  Biso   1.000  H
  C10      1.0000 0.25321  0.89468  0.45169  Biso   1.000  C
  C11      1.0000 0.42966  0.88618  0.33339  Biso   1.000  C
  C12      1.0000 0.59862  0.87830  0.20982  Biso   1.000  C
  C13      1.0000 0.16427  0.85800  0.43078  Biso   1.000  C
  H12      1.0000 0.24646  0.88500  0.50562  Biso   1.000  H
  H13      1.0000 0.23712  0.95459  0.44221  Biso   1.000  H
  O1       1.0000 0.36860  0.95913  0.30722  Biso   1.000  O
  C14      1.0000 0.56186  0.84407  0.14698  Biso   1.000  C
  H14      1.0000 0.68477  0.86209  0.19880  Biso   1.000  H
  H15      1.0000 0.57498  0.93897  0.20942  Biso   1.000  H
  C15      1.0000 0.10042  0.89743  0.38109  Biso   1.000  C
  C16      1.0000 0.14954  0.77840  0.45781  Biso   1.000  C
  H16      1.0000 0.38528  0.95782  0.26061  Biso   1.000  H
  C17      1.0000 0.46868  0.89017  0.12008  Biso   1.000  C
  C18      1.0000 0.61698  0.76427  0.11928  Biso   1.000  C
  C19      1.0000 0.03076  0.85718  0.35469  Biso   1.000  C
  O2       1.0000 0.11250  0.97754  0.35298  Biso   1.000  O
  C20      1.0000 0.08073  0.73673  0.43547  Biso   1.000  C
  H17      1.0000 0.18886  0.75224  0.49299  Biso   1.000  H
  C21      1.0000 0.42642  0.85609  0.07021  Biso   1.000  C
  O3       1.0000 0.41044  0.97059  0.14818  Biso   1.000  O
  C22      1.0000 0.58218  0.72747  0.06649  Biso   1.000  C
  H18      1.0000 0.68003  0.73369  0.13647  Biso   1.000  H
  C23      1.0000 0.97493  0.89613  0.29271  Biso   1.000  C
  C24      1.0000 0.02154  0.77750  0.38308  Biso   1.000  C
  C25      1.0000 0.02041  0.04376  0.39508  Biso   1.000  C
  C26      1.0000 0.06824  0.64932  0.46637  Biso   1.000  C
  C27      1.0000 0.31431  0.89898  0.04993  Biso   1.000  C
  C28      1.0000 0.48597  0.77641  0.04267  Biso   1.000  C
  C29      1.0000 0.46244  0.03654  0.10603  Biso   1.000  C
  C30      1.0000 0.64553  0.64078  0.03382  Biso   1.000  C
  C31      1.0000 0.04946  0.86303  0.21451  Biso   1.000  C
  H19      1.0000 0.89638  0.88478  0.30391  Biso   1.000  H
  H20      1.0000 0.96518  0.95642  0.29260  Biso   1.000  H
  H21      1.0000 0.97437  0.75040  0.36680  Biso   1.000  H
  H22      1.0000 0.94282  0.03171  0.40308  Biso   1.000  H
  H23      1.0000 0.03107  0.04873  0.44472  Biso   1.000  H
  C32      1.0000 0.02703  0.12446  0.35012  Biso   1.000  C
  C33      1.0000 0.04568  0.59888  0.40771  Biso   1.000  C
  C34      1.0000 0.17658  0.60119  0.48517  Biso   1.000  C
  C35      1.0000 0.96068  0.65715  0.53258  Biso   1.000  C
  C36      1.0000 0.21176  0.86357  0.09860  Biso   1.000  C
  H24      1.0000 0.29714  0.95867  0.05833  Biso   1.000  H
  H25      1.0000 0.32512  0.89050  0.99629  Biso   1.000  H
  H26      1.0000 0.46098  0.75431  0.00703  Biso   1.000  H
  H27      1.0000 0.44789  0.04422  0.05650  Biso   1.000  H
  H28      1.0000 0.54806  0.02211  0.09808  Biso   1.000  H
  C37      1.0000 0.40657  0.11550  0.15133  Biso   1.000  C
  C38      1.0000 0.69502  0.58538  0.09477  Biso   1.000  C
  C39      1.0000 0.56164  0.59531  0.02028  Biso   1.000  C
  C40      1.0000 0.74512  0.64730  0.96692  Biso   1.000  C
  C41      1.0000 0.03284  0.78979  0.18771  Biso   1.000  C
  C42      1.0000 0.14096  0.89759  0.16818  Biso   1.000  C
  H29      1.0000 0.97252  0.17085  0.38109  Biso   1.000  H
  N1       1.0000 0.99749  0.12420  0.27917  Biso   1.000  N
  H30      1.0000 0.10717  0.13311  0.33870  Biso   1.000  H
  H31      1.0000 0.03834  0.54429  0.42827  Biso   1.000  H
  H32      1.0000 0.11122  0.59344  0.36172  Biso   1.000  H
  H33      1.0000 0.97324  0.62764  0.39628  Biso   1.000  H
  H34      1.0000 0.19288  0.63148  0.52167  Biso   1.000  H
  H35      1.0000 0.24293  0.59311  0.43970  Biso   1.000  H
  H36      1.0000 0.16439  0.54771  0.50648  Biso   1.000  H
  H37      1.0000 0.96844  0.68835  0.57189  Biso   1.000  H
  H38      1.0000 0.95165  0.60231  0.55178  Biso   1.000  H
  H39      1.0000 0.89182  0.68570  0.51710  Biso   1.000  H
  C43      1.0000 0.19000  0.79217  0.07518  Biso   1.000  C
  H40      1.0000 0.43019  0.16222  0.11979  Biso   1.000  H
  H41      1.0000 0.32043  0.12523  0.16401  Biso   1.000  H
  N2       1.0000 0.43929  0.11365  0.22051  Biso   1.000  N
  H42      1.0000 0.73490  0.53059  0.07461  Biso   1.000  H
  H43      1.0000 0.63030  0.58132  0.13962  Biso   1.000  H
  H44      1.0000 0.75054  0.61032  0.10780  Biso   1.000  H
  H45      1.0000 0.60482  0.54082  0.00063  Biso   1.000  H
  H46      1.0000 0.50204  0.58972  0.06752  Biso   1.000  H
  H47      1.0000 0.52386  0.62624  0.98400  Biso   1.000  H
  H48      1.0000 0.78555  0.59251  0.94682  Biso   1.000  H
  H49      1.0000 0.79971  0.67211  0.98098  Biso   1.000  H
  H50      1.0000 0.71576  0.68170  0.92871  Biso   1.000  H
  C44      1.0000 0.10160  0.75311  0.12002  Biso   1.000  C
  H51      1.0000 0.97206  0.76569  0.21788  Biso   1.000  H
  O4       1.0000 0.16124  0.96779  0.19263  Biso   1.000  O
  C45      1.0000 0.89006  0.15925  0.26958  Biso   1.000  C
  H52      1.0000 0.05266  0.09994  0.24050  Biso   1.000  H
  H53      1.0000 0.23603  0.76971  0.02788  Biso   1.000  H
  C46      1.0000 0.52139  0.15211  0.22902  Biso   1.000  C
  H54      1.0000 0.40447  0.08625  0.25889  Biso   1.000  H
  C47      1.0000 0.08726  0.67108  0.09597  Biso   1.000  C
  H55      1.0000 0.14535  0.96641  0.23930  Biso   1.000  H
  N3       1.0000 0.88248  0.16340  0.19697  Biso   1.000  N
  S1       1.0000 0.76943  0.19649  0.34207  Biso   1.000  S
  N4       1.0000 0.52728  0.15592  0.30128  Biso   1.000  N
  S2       1.0000 0.61308  0.19244  0.15675  Biso   1.000  S
  C48      1.0000 0.17513  0.59978  0.11968  Biso   1.000  C
  C49      1.0000 0.11037  0.66868  0.01068  Biso   1.000  C
  C50      1.0000 0.96684  0.65499  0.13642  Biso   1.000  C
  C51      1.0000 0.97509  0.14665  0.12802  Biso   1.000  C
  H56      1.0000 0.81143  0.17842  0.19257  Biso   1.000  H
  C52      1.0000 0.44533  0.14002  0.37269  Biso   1.000  C
  H57      1.0000 0.58958  0.16990  0.30482  Biso   1.000  H
  H58      1.0000 0.16689  0.54769  0.10483  Biso   1.000  H
  H59      1.0000 0.15965  0.60012  0.17412  Biso   1.000  H
  H60      1.0000 0.25481  0.60628  0.09529  Biso   1.000  H
  H61      1.0000 0.05477  0.71395  0.99520  Biso   1.000  H
  H62      1.0000 0.10077  0.61644  0.99709  Biso   1.000  H
  H63      1.0000 0.19030  0.67431  0.98549  Biso   1.000  H
  H64      1.0000 0.90622  0.69903  0.12431  Biso   1.000  H
  H65      1.0000 0.95519  0.65320  0.19057  Biso   1.000  H
  H66      1.0000 0.96191  0.60241  0.12031  Biso   1.000  H
  C53      1.0000 0.95544  0.10760  0.07021  Biso   1.000  C
  C54      1.0000 0.08244  0.16943  0.11351  Biso   1.000  C
  C55      1.0000 0.32249  0.15814  0.38600  Biso   1.000  C
  C56      1.0000 0.49109  0.10885  0.43307  Biso   1.000  C
  H67      1.0000 0.88420  0.09122  0.07889  Biso   1.000  H
  C57      1.0000 0.04043  0.09299  0.00023  Biso   1.000  C
  C58      1.0000 0.16911  0.15281  0.04462  Biso   1.000  C
  H68      1.0000 0.09651  0.19652  0.15110  Biso   1.000  H
  H69      1.0000 0.28963  0.18122  0.34710  Biso   1.000  H
  C59      1.0000 0.24947  0.14232  0.45609  Biso   1.000  C
  C60      1.0000 0.41671  0.09665  0.50402  Biso   1.000  C
  H70      1.0000 0.57319  0.09605  0.42530  Biso   1.000  H
  H71      1.0000 0.02552  0.06905  0.96110  Biso   1.000  H
  C61      1.0000 0.14822  0.11436  0.98869  Biso   1.000  C
  H72      1.0000 0.24133  0.16775  0.03610  Biso   1.000  H
  H73      1.0000 0.16765  0.15205  0.46369  Biso   1.000  H
  C62      1.0000 0.29563  0.11261  0.51470  Biso   1.000  C
  H74      1.0000 0.44781  0.07762  0.54452  Biso   1.000  H
  H75      1.0000 0.20725  0.10222  0.94230  Biso   1.000  H
  H76      1.0000 0.24500  0.10301  0.56229  Biso   1.000  H
  C63      1.0000 0.45107  0.40911  0.58177  Biso   1.000  C
  C64      1.0000 0.38612  0.34633  0.58468  Biso   1.000  C
  H77      1.0000 0.41061  0.46104  0.56377  Biso   1.000  H
  H78      1.0000 0.45573  0.41663  0.63198  Biso   1.000  H
  H79      1.0000 0.53013  0.39193  0.54772  Biso   1.000  H
  C65      1.0000 0.38042  0.33564  0.50710  Biso   1.000  C
  C66      1.0000 0.44932  0.26333  0.61427  Biso   1.000  C
  C67      1.0000 0.26126  0.37591  0.63427  Biso   1.000  C
  H80      1.0000 0.34064  0.38770  0.48917  Biso   1.000  H
  H81      1.0000 0.45997  0.31852  0.47340  Biso   1.000  H
  H82      1.0000 0.33712  0.29374  0.50819  Biso   1.000  H
  C68      1.0000 0.40041  0.22772  0.68379  Biso   1.000  C
  C69      1.0000 0.55949  0.22022  0.57051  Biso   1.000  C
  H83      1.0000 0.22458  0.42780  0.61439  Biso   1.000  H
  H84      1.0000 0.21669  0.33482  0.63518  Biso   1.000  H
  H85      1.0000 0.26212  0.38405  0.68528  Biso   1.000  H
  C70      1.0000 0.45837  0.15431  0.71201  Biso   1.000  C
  H86      1.0000 0.32479  0.25454  0.71321  Biso   1.000  H
  H87      1.0000 0.59275  0.24135  0.52241  Biso   1.000  H
  C71      1.0000 0.62279  0.14622  0.59582  Biso   1.000  C
  C72      1.0000 0.40141  0.12174  0.79022  Biso   1.000  C
  C73      1.0000 0.57042  0.11380  0.66660  Biso   1.000  C
  C74      1.0000 0.74696  0.10529  0.54829  Biso   1.000  C
  C75      1.0000 0.43822  0.15590  0.85300  Biso   1.000  C
  H88      1.0000 0.31538  0.13794  0.80119  Biso   1.000  H
  H89      1.0000 0.42514  0.06106  0.79062  Biso   1.000  H
  O5       1.0000 0.63155  0.04091  0.69276  Biso   1.000  O
  H90      1.0000 0.75358  0.11503  0.49442  Biso   1.000  H
  H91      1.0000 0.76294  0.04544  0.55778  Biso   1.000  H
  C76      1.0000 0.83579  0.14204  0.56920  Biso   1.000  C
  C77      1.0000 0.38318  0.23570  0.88071  Biso   1.000  C
  C78      1.0000 0.53148  0.10980  0.87991  Biso   1.000  C
  H92      1.0000 0.61487  0.04222  0.73938  Biso   1.000  H
  C79      1.0000 0.85052  0.22163  0.54218  Biso   1.000  C
  C80      1.0000 0.89964  0.10261  0.61890  Biso   1.000  C
  C81      1.0000 0.41796  0.27256  0.93349  Biso   1.000  C
  H93      1.0000 0.32003  0.26634  0.86351  Biso   1.000  H
  C82      1.0000 0.57364  0.14394  0.92978  Biso   1.000  C
  O6       1.0000 0.58959  0.02944  0.85186  Biso   1.000  O
  H94      1.0000 0.81128  0.24780  0.50699  Biso   1.000  H
  C83      1.0000 0.91933  0.26331  0.56452  Biso   1.000  C
  C84      1.0000 0.96932  0.14280  0.64529  Biso   1.000  C
  O7       1.0000 0.88756  0.02250  0.64701  Biso   1.000  O
  C85      1.0000 0.51417  0.22362  0.95731  Biso   1.000  C
  C86      1.0000 0.35452  0.35925  0.96617  Biso   1.000  C
  C87      1.0000 0.68572  0.10105  0.95011  Biso   1.000  C
  C88      1.0000 0.53759  0.96350  0.89402  Biso   1.000  C
  C89      1.0000 0.97852  0.22253  0.61690  Biso   1.000  C
  C90      1.0000 0.93182  0.35072  0.53361  Biso   1.000  C
  C91      1.0000 0.02513  0.10391  0.70727  Biso   1.000  C
  C92      1.0000 0.97973  0.95627  0.60490  Biso   1.000  C
  H95      1.0000 0.53905  0.24572  0.99302  Biso   1.000  H
  C93      1.0000 0.30504  0.41466  0.90521  Biso   1.000  C
  C94      1.0000 0.43842  0.40473  0.97971  Biso   1.000  C
  C95      1.0000 0.25494  0.35274  0.03306  Biso   1.000  C
  C96      1.0000 0.78830  0.13646  0.90139  Biso   1.000  C
  H96      1.0000 0.70289  0.04136  0.94172  Biso   1.000  H
  H97      1.0000 0.67502  0.10954  0.00370  Biso   1.000  H
  H98      1.0000 0.55225  0.95582  0.94349  Biso   1.000  H
  H99      1.0000 0.45200  0.97793  0.90190  Biso   1.000  H
  C97      1.0000 0.59346  0.88454  0.84872  Biso   1.000  C
  H100     1.0000 0.02577  0.24963  0.63318  Biso   1.000  H
  C98      1.0000 0.95446  0.40115  0.59228  Biso   1.000  C
  C99      1.0000 0.82348  0.39884  0.51482  Biso   1.000  C
  C100     1.0000 0.03946  0.34289  0.46740  Biso   1.000  C
  C101     1.0000 0.95069  0.13701  0.78548  Biso   1.000  C
  H101     1.0000 0.10376  0.11525  0.69608  Biso   1.000  H
  H102     1.0000 0.03496  0.04361  0.70739  Biso   1.000  H
  H103     1.0000 0.96896  0.95131  0.55532  Biso   1.000  H
  C102     1.0000 0.97300  0.87558  0.64992  Biso   1.000  C
  H104     1.0000 0.05734  0.96827  0.59691  Biso   1.000  H
  H105     1.0000 0.26516  0.46945  0.92538  Biso   1.000  H
  H106     1.0000 0.36976  0.41871  0.86037  Biso   1.000  H
  H107     1.0000 0.24952  0.38971  0.89219  Biso   1.000  H
  H108     1.0000 0.39530  0.45921  0.99941  Biso   1.000  H
  H109     1.0000 0.49810  0.41032  0.93246  Biso   1.000  H
  H110     1.0000 0.47620  0.37379  0.01598  Biso   1.000  H
  H111     1.0000 0.21451  0.40752  0.05317  Biso   1.000  H
  H112     1.0000 0.20043  0.32793  0.01901  Biso   1.000  H
  H113     1.0000 0.28430  0.31833  0.07128  Biso   1.000  H
  C103     1.0000 0.81014  0.20787  0.92481  Biso   1.000  C
  C104     1.0000 0.85910  0.10244  0.83181  Biso   1.000  C
  H114     1.0000 0.56987  0.83782  0.88019  Biso   1.000  H
  H115     1.0000 0.67963  0.87480  0.83598  Biso   1.000  H
  N5       1.0000 0.56086  0.88639  0.77948  Biso   1.000  N
  H116     1.0000 0.96172  0.45575  0.57171  Biso   1.000  H
  H117     1.0000 0.88884  0.40660  0.63827  Biso   1.000  H
  H118     1.0000 0.02682  0.37240  0.60370  Biso   1.000  H
  H119     1.0000 0.80720  0.36849  0.47831  Biso   1.000  H
  H120     1.0000 0.75713  0.40693  0.56029  Biso   1.000  H
  H121     1.0000 0.83576  0.45232  0.49351  Biso   1.000  H
  H122     1.0000 0.03162  0.31169  0.42810  Biso   1.000  H
  H123     1.0000 0.04841  0.39772  0.44821  Biso   1.000  H
  H124     1.0000 0.10824  0.31434  0.48288  Biso   1.000  H
  C105     1.0000 0.96722  0.21025  0.81227  Biso   1.000  C
  H125     1.0000 0.89289  0.86692  0.66129  Biso   1.000  H
  H126     1.0000 0.02762  0.82919  0.61890  Biso   1.000  H
  N6       1.0000 0.00259  0.87577  0.72081  Biso   1.000  N
  C106     1.0000 0.89846  0.24692  0.87996  Biso   1.000  C
  H127     1.0000 0.76403  0.23033  0.97211  Biso   1.000  H
  O8       1.0000 0.83882  0.03224  0.80736  Biso   1.000  O
  C107     1.0000 0.47867  0.84792  0.77097  Biso   1.000  C
  H128     1.0000 0.59559  0.91378  0.74109  Biso   1.000  H
  H129     1.0000 0.02800  0.23435  0.78211  Biso   1.000  H
  H130     1.0000 0.94740  0.90009  0.75949  Biso   1.000  H
  C108     1.0000 0.11000  0.84078  0.73041  Biso   1.000  C
  C109     1.0000 0.91280  0.32896  0.90401  Biso   1.000  C
  H131     1.0000 0.85471  0.03363  0.76069  Biso   1.000  H
  N7       1.0000 0.47278  0.84411  0.69870  Biso   1.000  N
  S3       1.0000 0.38698  0.80759  0.84323  Biso   1.000  S
  N8       1.0000 0.11758  0.83664  0.80302  Biso   1.000  N
  S4       1.0000 0.23063  0.80354  0.65792  Biso   1.000  S
  C110     1.0000 0.82493  0.40025  0.88031  Biso   1.000  C
  C111     1.0000 0.88978  0.33136  0.98930  Biso   1.000  C
  C112     1.0000 0.03322  0.34505  0.86357  Biso   1.000  C
  C113     1.0000 0.55481  0.86002  0.62730  Biso   1.000  C
  H132     1.0000 0.41045  0.83013  0.69522  Biso   1.000  H
  C114     1.0000 0.02505  0.85339  0.87197  Biso   1.000  C
  H133     1.0000 0.18871  0.82162  0.80741  Biso   1.000  H
  H134     1.0000 0.83315  0.45235  0.89522  Biso   1.000  H
  H135     1.0000 0.84049  0.39992  0.82587  Biso   1.000  H
  H136     1.0000 0.74524  0.39375  0.90470  Biso   1.000  H
  H137     1.0000 0.94537  0.28609  0.00478  Biso   1.000  H
  H138     1.0000 0.89929  0.38360  0.00290  Biso   1.000  H
  H139     1.0000 0.80984  0.32573  0.01449  Biso   1.000  H
  H140     1.0000 0.09384  0.30101  0.87568  Biso   1.000  H
  H141     1.0000 0.04495  0.34684  0.80941  Biso   1.000  H
  H142     1.0000 0.03815  0.39763  0.87968  Biso   1.000  H
  C115     1.0000 0.67757  0.84190  0.61399  Biso   1.000  C
  C116     1.0000 0.50897  0.89118  0.56692  Biso   1.000  C
  C117     1.0000 0.91762  0.83060  0.88648  Biso   1.000  C
  C118     1.0000 0.04462  0.89243  0.92978  Biso   1.000  C
  H143     1.0000 0.71052  0.81882  0.65289  Biso   1.000  H
  C119     1.0000 0.75059  0.85772  0.54389  Biso   1.000  C
  C120     1.0000 0.58340  0.90339  0.49602  Biso   1.000  C
  H144     1.0000 0.42687  0.90399  0.57468  Biso   1.000  H
  C121     1.0000 0.83104  0.84723  0.95537  Biso   1.000  C
  H145     1.0000 0.90363  0.80352  0.84889  Biso   1.000  H
  C122     1.0000 0.95960  0.90704  0.99981  Biso   1.000  C
  H146     1.0000 0.11594  0.90882  0.92109  Biso   1.000  H
  H147     1.0000 0.83241  0.84798  0.53630  Biso   1.000  H
  C123     1.0000 0.70453  0.88736  0.48528  Biso   1.000  C
  H148     1.0000 0.55230  0.92241  0.45552  Biso   1.000  H
  H149     1.0000 0.75873  0.83229  0.96388  Biso   1.000  H
  C124     1.0000 0.85192  0.88568  0.01130  Biso   1.000  C
  H150     1.0000 0.97463  0.93098  0.03889  Biso   1.000  H
  H151     1.0000 0.75508  0.89696  0.43770  Biso   1.000  H
  H152     1.0000 0.79289  0.89782  0.05768  Biso   1.000  H
