data_image0
_cell_length_a       13.011
_cell_length_b       18.833
_cell_length_c       22.702
_cell_angle_alpha    90
_cell_angle_beta     90.42
_cell_angle_gamma    90

_symmetry_space_group_name_H-M    "P 1"
_symmetry_int_tables_number       1

loop_
  _symmetry_equiv_pos_as_xyz
  'x, y, z'

loop_
  _atom_site_label
  _atom_site_occupancy
  _atom_site_fract_x
  _atom_site_fract_y
  _atom_site_fract_z
  _atom_site_thermal_displace_type
  _atom_site_B_iso_or_equiv
  _atom_site_type_symbol
  O1       1.0000 0.70981  0.52482  0.54296  Biso   1.000  O
  N1       1.0000 0.77297  0.55445  0.51147  Biso   1.000  N
  O2       1.0000 0.75304  0.57782  0.46187  Biso   1.000  O
  C1       1.0000 0.87947  0.56263  0.53389  Biso   1.000  C
  C2       1.0000 0.95141  0.59236  0.49768  Biso   1.000  C
  C3       1.0000 0.90135  0.54134  0.59155  Biso   1.000  C
  H1       1.0000 0.93516  0.60713  0.45909  Biso   1.000  H
  C4       1.0000 0.04901  0.59953  0.52098  Biso   1.000  C
  H2       1.0000 0.84962  0.52121  0.61498  Biso   1.000  H
  C5       1.0000 0.00032  0.55020  0.61410  Biso   1.000  C
  C6       1.0000 0.07556  0.57904  0.57781  Biso   1.000  C
  N2       1.0000 0.12801  0.63309  0.48394  Biso   1.000  N
  C7       1.0000 0.02459  0.52822  0.67881  Biso   1.000  C
  H3       1.0000 0.14330  0.58461  0.59168  Biso   1.000  H
  O3       1.0000 0.21115  0.64791  0.50671  Biso   1.000  O
  O4       1.0000 0.10637  0.64610  0.43284  Biso   1.000  O
  C8       1.0000 0.93123  0.54426  0.71626  Biso   1.000  C
  C9       1.0000 0.12065  0.56566  0.70137  Biso   1.000  C
  C10      1.0000 0.04434  0.44688  0.67864  Biso   1.000  C
  C11      1.0000 0.87684  0.50327  0.75467  Biso   1.000  C
  N3       1.0000 0.88263  0.60957  0.71419  Biso   1.000  N
  C12      1.0000 0.21109  0.54001  0.72383  Biso   1.000  C
  N4       1.0000 0.13008  0.63904  0.69982  Biso   1.000  N
  H4       1.0000 0.98314  0.42240  0.66472  Biso   1.000  H
  H5       1.0000 0.06084  0.43121  0.71828  Biso   1.000  H
  H6       1.0000 0.10135  0.43620  0.65278  Biso   1.000  H
  C13      1.0000 0.79395  0.54458  0.77586  Biso   1.000  C
  H7       1.0000 0.89173  0.45611  0.76520  Biso   1.000  H
  C14      1.0000 0.79769  0.61005  0.74987  Biso   1.000  C
  H8       1.0000 0.90303  0.64552  0.69322  Biso   1.000  H
  H9       1.0000 0.22693  0.49190  0.73031  Biso   1.000  H
  C15      1.0000 0.27680  0.59821  0.73568  Biso   1.000  C
  C16      1.0000 0.22625  0.65943  0.71982  Biso   1.000  C
  H10      1.0000 0.08235  0.66808  0.68802  Biso   1.000  H
  H11      1.0000 0.74450  0.52950  0.80321  Biso   1.000  H
  C17      1.0000 0.72280  0.67175  0.75308  Biso   1.000  C
  H12      1.0000 0.34348  0.59550  0.75158  Biso   1.000  H
  C18      1.0000 0.26220  0.73631  0.71802  Biso   1.000  C
  C19      1.0000 0.68786  0.69277  0.68947  Biso   1.000  C
  C20      1.0000 0.76854  0.73631  0.78374  Biso   1.000  C
  C21      1.0000 0.62732  0.64775  0.78784  Biso   1.000  C
  C22      1.0000 0.25676  0.76345  0.65335  Biso   1.000  C
  C23      1.0000 0.37553  0.73908  0.73912  Biso   1.000  C
  C24      1.0000 0.19906  0.78527  0.75718  Biso   1.000  C
  H13      1.0000 0.74691  0.70849  0.66718  Biso   1.000  H
  H14      1.0000 0.65702  0.65189  0.67018  Biso   1.000  H
  H15      1.0000 0.63785  0.73090  0.69150  Biso   1.000  H
  C25      1.0000 0.73625  0.77460  0.83131  Biso   1.000  C
  N5       1.0000 0.85372  0.77136  0.76185  Biso   1.000  N
  H16      1.0000 0.57925  0.68688  0.79070  Biso   1.000  H
  H17      1.0000 0.59471  0.60829  0.76762  Biso   1.000  H
  H18      1.0000 0.64812  0.63298  0.82709  Biso   1.000  H
  H19      1.0000 0.18656  0.76010  0.63899  Biso   1.000  H
  H20      1.0000 0.27911  0.81262  0.65190  Biso   1.000  H
  H21      1.0000 0.30110  0.73472  0.62890  Biso   1.000  H
  H22      1.0000 0.41755  0.71040  0.71322  Biso   1.000  H
  H23      1.0000 0.39965  0.78782  0.73841  Biso   1.000  H
  H24      1.0000 0.38042  0.72070  0.77898  Biso   1.000  H
  C26      1.0000 0.22499  0.82212  0.80718  Biso   1.000  C
  N6       1.0000 0.09904  0.80428  0.74286  Biso   1.000  N
  C27      1.0000 0.80005  0.83471  0.83779  Biso   1.000  C
  H25      1.0000 0.68061  0.76281  0.85572  Biso   1.000  H
  C28      1.0000 0.87250  0.83253  0.79409  Biso   1.000  C
  H26      1.0000 0.89016  0.75702  0.73211  Biso   1.000  H
  H27      1.0000 0.28850  0.81968  0.82709  Biso   1.000  H
  C29      1.0000 0.14004  0.86460  0.82369  Biso   1.000  C
  C30      1.0000 0.06258  0.85313  0.78290  Biso   1.000  C
  H28      1.0000 0.06430  0.78782  0.71300  Biso   1.000  H
  H29      1.0000 0.79412  0.86991  0.86682  Biso   1.000  H
  C31      1.0000 0.95552  0.88488  0.77704  Biso   1.000  C
  H30      1.0000 0.13693  0.89502  0.85651  Biso   1.000  H
  C32      1.0000 0.94820  0.95120  0.81762  Biso   1.000  C
  C33      1.0000 0.93864  0.91133  0.71291  Biso   1.000  C
  H31      1.0000 0.88203  0.97398  0.81171  Biso   1.000  H
  H32      1.0000 0.95518  0.93671  0.85841  Biso   1.000  H
  H33      1.0000 0.00272  0.98418  0.80788  Biso   1.000  H
  C34      1.0000 0.84526  0.90166  0.68326  Biso   1.000  C
  C35      1.0000 0.01644  0.94812  0.68441  Biso   1.000  C
  H34      1.0000 0.79100  0.87729  0.70150  Biso   1.000  H
  C36      1.0000 0.83301  0.92837  0.62644  Biso   1.000  C
  C37      1.0000 0.00034  0.97377  0.62767  Biso   1.000  C
  H35      1.0000 0.07994  0.95561  0.70348  Biso   1.000  H
  C38      1.0000 0.90857  0.96474  0.59728  Biso   1.000  C
  N7       1.0000 0.73187  0.91903  0.59697  Biso   1.000  N
  N8       1.0000 0.08436  0.01322  0.59847  Biso   1.000  N
  H36      1.0000 0.89855  0.98248  0.55900  Biso   1.000  H
  O5       1.0000 0.71370  0.95455  0.55257  Biso   1.000  O
  O6       1.0000 0.67096  0.87639  0.61824  Biso   1.000  O
  O7       1.0000 0.16425  0.02092  0.62507  Biso   1.000  O
  O8       1.0000 0.06905  0.03648  0.54944  Biso   1.000  O
  O9       1.0000 0.29007  0.47518  0.45702  Biso   1.000  O
  N9       1.0000 0.22698  0.44555  0.48852  Biso   1.000  N
  C39      1.0000 0.12048  0.43737  0.46614  Biso   1.000  C
  O10      1.0000 0.24683  0.42218  0.53812  Biso   1.000  O
  C40      1.0000 0.09853  0.45866  0.40843  Biso   1.000  C
  C41      1.0000 0.04847  0.40764  0.50235  Biso   1.000  C
  C42      1.0000 0.99956  0.44980  0.38592  Biso   1.000  C
  H37      1.0000 0.15026  0.47879  0.38500  Biso   1.000  H
  C43      1.0000 0.95087  0.40047  0.47900  Biso   1.000  C
  H38      1.0000 0.06472  0.39287  0.54089  Biso   1.000  H
  C44      1.0000 0.97529  0.47178  0.32117  Biso   1.000  C
  C45      1.0000 0.92439  0.42096  0.42218  Biso   1.000  C
  N10      1.0000 0.87187  0.36691  0.51609  Biso   1.000  N
  C46      1.0000 0.06865  0.45574  0.28377  Biso   1.000  C
  C47      1.0000 0.87931  0.43434  0.29866  Biso   1.000  C
  C48      1.0000 0.95554  0.55312  0.32139  Biso   1.000  C
  H39      1.0000 0.85658  0.41539  0.40830  Biso   1.000  H
  O11      1.0000 0.78872  0.35209  0.49332  Biso   1.000  O
  O12      1.0000 0.89358  0.35390  0.56719  Biso   1.000  O
  N11      1.0000 0.11733  0.39043  0.28580  Biso   1.000  N
  C49      1.0000 0.12311  0.49673  0.24536  Biso   1.000  C
  C50      1.0000 0.78879  0.45999  0.27615  Biso   1.000  C
  N12      1.0000 0.86980  0.36096  0.30016  Biso   1.000  N
  H40      1.0000 0.01674  0.57760  0.33531  Biso   1.000  H
  H41      1.0000 0.93904  0.56879  0.28170  Biso   1.000  H
  H42      1.0000 0.89861  0.56380  0.34720  Biso   1.000  H
  C51      1.0000 0.20226  0.38995  0.25016  Biso   1.000  C
  H43      1.0000 0.09685  0.35448  0.30681  Biso   1.000  H
  C52      1.0000 0.20600  0.45542  0.22417  Biso   1.000  C
  H44      1.0000 0.10814  0.54389  0.23479  Biso   1.000  H
  H45      1.0000 0.77295  0.50810  0.26972  Biso   1.000  H
  C53      1.0000 0.72308  0.40179  0.26430  Biso   1.000  C
  C54      1.0000 0.77362  0.34057  0.28016  Biso   1.000  C
  H46      1.0000 0.91760  0.33192  0.31201  Biso   1.000  H
  C55      1.0000 0.27708  0.32825  0.24690  Biso   1.000  C
  H47      1.0000 0.25538  0.47050  0.19682  Biso   1.000  H
  H48      1.0000 0.65639  0.40450  0.24840  Biso   1.000  H
  C56      1.0000 0.73768  0.26369  0.28201  Biso   1.000  C
  C57      1.0000 0.23142  0.26369  0.21624  Biso   1.000  C
  C58      1.0000 0.31210  0.30723  0.31051  Biso   1.000  C
  C59      1.0000 0.37255  0.35225  0.21215  Biso   1.000  C
  C60      1.0000 0.80082  0.21473  0.24280  Biso   1.000  C
  C61      1.0000 0.74319  0.23655  0.34663  Biso   1.000  C
  C62      1.0000 0.62435  0.26092  0.26087  Biso   1.000  C
  C63      1.0000 0.26371  0.22540  0.16867  Biso   1.000  C
  N13      1.0000 0.14616  0.22864  0.23818  Biso   1.000  N
  H49      1.0000 0.25297  0.29151  0.33280  Biso   1.000  H
  H50      1.0000 0.34285  0.34811  0.32980  Biso   1.000  H
  H51      1.0000 0.36210  0.26910  0.30848  Biso   1.000  H
  H52      1.0000 0.42071  0.31312  0.20928  Biso   1.000  H
  H53      1.0000 0.40517  0.39171  0.23241  Biso   1.000  H
  H54      1.0000 0.35176  0.36702  0.17290  Biso   1.000  H
  N14      1.0000 0.90084  0.19572  0.25712  Biso   1.000  N
  C64      1.0000 0.77489  0.17788  0.19281  Biso   1.000  C
  H55      1.0000 0.81339  0.23990  0.36099  Biso   1.000  H
  H56      1.0000 0.72077  0.18738  0.34808  Biso   1.000  H
  H57      1.0000 0.69877  0.26528  0.37108  Biso   1.000  H
  H58      1.0000 0.58241  0.28960  0.28681  Biso   1.000  H
  H59      1.0000 0.60030  0.21218  0.26161  Biso   1.000  H
  H60      1.0000 0.61946  0.27930  0.22100  Biso   1.000  H
  C65      1.0000 0.19991  0.16529  0.16224  Biso   1.000  C
  H61      1.0000 0.31927  0.23719  0.14431  Biso   1.000  H
  C66      1.0000 0.12737  0.16747  0.20593  Biso   1.000  C
  H62      1.0000 0.10980  0.24298  0.26791  Biso   1.000  H
  C67      1.0000 0.93729  0.14687  0.21708  Biso   1.000  C
  H63      1.0000 0.93557  0.21218  0.28699  Biso   1.000  H
  C68      1.0000 0.85991  0.13540  0.17629  Biso   1.000  C
  H64      1.0000 0.71138  0.18032  0.17290  Biso   1.000  H
  H65      1.0000 0.20576  0.13009  0.13321  Biso   1.000  H
  C69      1.0000 0.04435  0.11512  0.22294  Biso   1.000  C
  H66      1.0000 0.86295  0.10498  0.14352  Biso   1.000  H
  C70      1.0000 0.05168  0.04880  0.18241  Biso   1.000  C
  C71      1.0000 0.06124  0.08867  0.28707  Biso   1.000  C
  H67      1.0000 0.11785  0.02602  0.18831  Biso   1.000  H
  H68      1.0000 0.04470  0.06329  0.14162  Biso   1.000  H
  H69      1.0000 0.99715  0.01582  0.19210  Biso   1.000  H
  C72      1.0000 0.15469  0.09834  0.31672  Biso   1.000  C
  C73      1.0000 0.98344  0.05188  0.31562  Biso   1.000  C
  H70      1.0000 0.20887  0.12271  0.29848  Biso   1.000  H
  C74      1.0000 0.16687  0.07163  0.37355  Biso   1.000  C
  C75      1.0000 0.99954  0.02623  0.37236  Biso   1.000  C
  H71      1.0000 0.91994  0.04439  0.29650  Biso   1.000  H
  C76      1.0000 0.09139  0.03526  0.40271  Biso   1.000  C
  N15      1.0000 0.26809  0.08097  0.40306  Biso   1.000  N
  N16      1.0000 0.91560  0.98678  0.40156  Biso   1.000  N
  H72      1.0000 0.10133  0.01752  0.44099  Biso   1.000  H
  O13      1.0000 0.28625  0.04545  0.44742  Biso   1.000  O
  O14      1.0000 0.32892  0.12361  0.38174  Biso   1.000  O
  O15      1.0000 0.83563  0.97908  0.37491  Biso   1.000  O
  O16      1.0000 0.93083  0.96352  0.45055  Biso   1.000  O
  C77      1.0000 0.55165  0.45118  0.68238  Biso   1.000  C
  C78      1.0000 0.54433  0.38486  0.72295  Biso   1.000  C
  H73      1.0000 0.49713  0.48420  0.69212  Biso   1.000  H
  H74      1.0000 0.61783  0.47401  0.68828  Biso   1.000  H
  H75      1.0000 0.54468  0.43668  0.64159  Biso   1.000  H
  C79      1.0000 0.43719  0.35316  0.71709  Biso   1.000  C
  C80      1.0000 0.56122  0.41135  0.78709  Biso   1.000  C
  C81      1.0000 0.62735  0.33255  0.70590  Biso   1.000  C
  C82      1.0000 0.35981  0.36463  0.67630  Biso   1.000  C
  N17      1.0000 0.40081  0.30431  0.75713  Biso   1.000  N
  C83      1.0000 0.65459  0.40164  0.81673  Biso   1.000  C
  C84      1.0000 0.48342  0.44810  0.81559  Biso   1.000  C
  C85      1.0000 0.69981  0.33468  0.66225  Biso   1.000  C
  N18      1.0000 0.64613  0.27133  0.73815  Biso   1.000  N
  C86      1.0000 0.27487  0.32215  0.69282  Biso   1.000  C
  H76      1.0000 0.36293  0.39500  0.64348  Biso   1.000  H
  C87      1.0000 0.30079  0.28524  0.74282  Biso   1.000  C
  H77      1.0000 0.43555  0.28779  0.78700  Biso   1.000  H
  H78      1.0000 0.70885  0.37732  0.79850  Biso   1.000  H
  C88      1.0000 0.66685  0.42834  0.87356  Biso   1.000  C
  C89      1.0000 0.49951  0.47380  0.87237  Biso   1.000  C
  H79      1.0000 0.41992  0.45558  0.79652  Biso   1.000  H
  H80      1.0000 0.70574  0.36988  0.63322  Biso   1.000  H
  C90      1.0000 0.76361  0.27457  0.66868  Biso   1.000  C
  C91      1.0000 0.73132  0.23634  0.71626  Biso   1.000  C
  H81      1.0000 0.60970  0.25700  0.76788  Biso   1.000  H
  H82      1.0000 0.21136  0.31970  0.67291  Biso   1.000  H
  C92      1.0000 0.23766  0.23629  0.78198  Biso   1.000  C
  C93      1.0000 0.59129  0.46472  0.90272  Biso   1.000  C
  N19      1.0000 0.76799  0.41905  0.90303  Biso   1.000  N
  N20      1.0000 0.41550  0.51319  0.90153  Biso   1.000  N
  H83      1.0000 0.81925  0.26278  0.64428  Biso   1.000  H
  C94      1.0000 0.77706  0.17172  0.74691  Biso   1.000  C
  C95      1.0000 0.27360  0.15945  0.78017  Biso   1.000  C
  C96      1.0000 0.24309  0.26347  0.84664  Biso   1.000  C
  C97      1.0000 0.12433  0.23910  0.76088  Biso   1.000  C
  H84      1.0000 0.60131  0.48250  0.94100  Biso   1.000  H
  O17      1.0000 0.78616  0.45457  0.94743  Biso   1.000  O
  O18      1.0000 0.82882  0.37636  0.88175  Biso   1.000  O
  O19      1.0000 0.33561  0.52089  0.87492  Biso   1.000  O
  O20      1.0000 0.43080  0.53645  0.95056  Biso   1.000  O
  C98      1.0000 0.81200  0.19275  0.81052  Biso   1.000  C
  C99      1.0000 0.87253  0.14777  0.71216  Biso   1.000  C
  C100     1.0000 0.70216  0.11002  0.75013  Biso   1.000  C
  C101     1.0000 0.22306  0.09823  0.76431  Biso   1.000  C
  N21      1.0000 0.36970  0.13906  0.80017  Biso   1.000  N
  H85      1.0000 0.31330  0.26008  0.86100  Biso   1.000  H
  H86      1.0000 0.22075  0.31259  0.84810  Biso   1.000  H
  H87      1.0000 0.19875  0.23469  0.87109  Biso   1.000  H
  H88      1.0000 0.08231  0.21038  0.78678  Biso   1.000  H
  H89      1.0000 0.10020  0.28779  0.76158  Biso   1.000  H
  H90      1.0000 0.11944  0.22068  0.72101  Biso   1.000  H
  H91      1.0000 0.75295  0.20852  0.83281  Biso   1.000  H
  H92      1.0000 0.84283  0.15191  0.82982  Biso   1.000  H
  H93      1.0000 0.86200  0.23092  0.80850  Biso   1.000  H
  H94      1.0000 0.92061  0.18691  0.70930  Biso   1.000  H
  H95      1.0000 0.90515  0.10832  0.73238  Biso   1.000  H
  H96      1.0000 0.85174  0.13301  0.67291  Biso   1.000  H
  C102     1.0000 0.70590  0.04455  0.72414  Biso   1.000  C
  N22      1.0000 0.61723  0.10959  0.78581  Biso   1.000  N
  C103     1.0000 0.28869  0.04004  0.77616  Biso   1.000  C
  H97      1.0000 0.15629  0.09552  0.74841  Biso   1.000  H
  C104     1.0000 0.37921  0.06568  0.79863  Biso   1.000  C
  H98      1.0000 0.41750  0.16811  0.81202  Biso   1.000  H
  C105     1.0000 0.62301  0.00324  0.74533  Biso   1.000  C
  H99      1.0000 0.75536  0.02952  0.69679  Biso   1.000  H
  C106     1.0000 0.56863  0.04423  0.78374  Biso   1.000  C
  H100     1.0000 0.59682  0.14549  0.80678  Biso   1.000  H
  H101     1.0000 0.27293  0.99188  0.76969  Biso   1.000  H
  C107     1.0000 0.47519  0.02825  0.82118  Biso   1.000  C
  H102     1.0000 0.60812  0.95609  0.73480  Biso   1.000  H
  C108     1.0000 0.49953  0.05018  0.88589  Biso   1.000  C
  C109     1.0000 0.45551  0.94685  0.82136  Biso   1.000  C
  C110     1.0000 0.59851  0.04131  0.90845  Biso   1.000  C
  C111     1.0000 0.42429  0.07906  0.92219  Biso   1.000  C
  H103     1.0000 0.43902  0.93118  0.78171  Biso   1.000  H
  H104     1.0000 0.51672  0.92242  0.83528  Biso   1.000  H
  H105     1.0000 0.39851  0.93618  0.84722  Biso   1.000  H
  H106     1.0000 0.65024  0.02119  0.88501  Biso   1.000  H
  C112     1.0000 0.62038  0.06266  0.96611  Biso   1.000  C
  C113     1.0000 0.45084  0.09951  0.97901  Biso   1.000  C
  H107     1.0000 0.35648  0.08459  0.90831  Biso   1.000  H
  N23      1.0000 0.72689  0.05448  0.98853  Biso   1.000  N
  C114     1.0000 0.54852  0.09239  0.00236  Biso   1.000  C
  N24      1.0000 0.37192  0.13306  0.01606  Biso   1.000  N
  O21      1.0000 0.79004  0.02480  0.95703  Biso   1.000  O
  O22      1.0000 0.74696  0.07779  0.03813  Biso   1.000  O
  H108     1.0000 0.56485  0.10710  0.04091  Biso   1.000  H
  O23      1.0000 0.28870  0.14793  0.99329  Biso   1.000  O
  O24      1.0000 0.39364  0.14613  0.06716  Biso   1.000  O
  C115     1.0000 0.44830  0.54882  0.31760  Biso   1.000  C
  C116     1.0000 0.45555  0.61514  0.27703  Biso   1.000  C
  H109     1.0000 0.50275  0.51580  0.30791  Biso   1.000  H
  H110     1.0000 0.38205  0.52599  0.31170  Biso   1.000  H
  H111     1.0000 0.45528  0.56332  0.35839  Biso   1.000  H
  C117     1.0000 0.56268  0.64684  0.28293  Biso   1.000  C
  C118     1.0000 0.43866  0.58865  0.21294  Biso   1.000  C
  C119     1.0000 0.37253  0.66745  0.29408  Biso   1.000  C
  C120     1.0000 0.64006  0.63537  0.32368  Biso   1.000  C
  N25      1.0000 0.59914  0.69569  0.24285  Biso   1.000  N
  C121     1.0000 0.34528  0.59836  0.18325  Biso   1.000  C
  C122     1.0000 0.51646  0.55190  0.18439  Biso   1.000  C
  C123     1.0000 0.30007  0.66532  0.33778  Biso   1.000  C
  N26      1.0000 0.35374  0.72867  0.26183  Biso   1.000  N
  C124     1.0000 0.72509  0.67785  0.30716  Biso   1.000  C
  H112     1.0000 0.63695  0.60500  0.35650  Biso   1.000  H
  C125     1.0000 0.69909  0.71476  0.25721  Biso   1.000  C
  H113     1.0000 0.56440  0.71221  0.21298  Biso   1.000  H
  H114     1.0000 0.29110  0.62268  0.20149  Biso   1.000  H
  C126     1.0000 0.33311  0.57166  0.12647  Biso   1.000  C
  C127     1.0000 0.50036  0.52620  0.12766  Biso   1.000  C
  H115     1.0000 0.57996  0.54442  0.20351  Biso   1.000  H
  H116     1.0000 0.29414  0.63012  0.36681  Biso   1.000  H
  C128     1.0000 0.23627  0.72543  0.33130  Biso   1.000  C
  C129     1.0000 0.26856  0.76366  0.28373  Biso   1.000  C
  H117     1.0000 0.39018  0.74300  0.23210  Biso   1.000  H
  H118     1.0000 0.78860  0.68030  0.32712  Biso   1.000  H
  C130     1.0000 0.76230  0.76371  0.21800  Biso   1.000  C
  C131     1.0000 0.40859  0.53528  0.09726  Biso   1.000  C
  N27      1.0000 0.23189  0.58095  0.09695  Biso   1.000  N
  N28      1.0000 0.58438  0.48681  0.09845  Biso   1.000  N
  H119     1.0000 0.18063  0.73722  0.35571  Biso   1.000  H
  C132     1.0000 0.22290  0.82828  0.25311  Biso   1.000  C
  C133     1.0000 0.72635  0.84055  0.21981  Biso   1.000  C
  C134     1.0000 0.75678  0.73653  0.15334  Biso   1.000  C
  C135     1.0000 0.87555  0.76090  0.23915  Biso   1.000  C
  H120     1.0000 0.39857  0.51750  0.05898  Biso   1.000  H
  O25      1.0000 0.21372  0.54543  0.05260  Biso   1.000  O
  O26      1.0000 0.17106  0.62364  0.11823  Biso   1.000  O
  O27      1.0000 0.66427  0.47911  0.12506  Biso   1.000  O
  O28      1.0000 0.56907  0.46355  0.04947  Biso   1.000  O
  C136     1.0000 0.18788  0.80725  0.18946  Biso   1.000  C
  C137     1.0000 0.12735  0.85223  0.28782  Biso   1.000  C
  C138     1.0000 0.29772  0.88998  0.24985  Biso   1.000  C
  C139     1.0000 0.77690  0.90177  0.23567  Biso   1.000  C
  N29      1.0000 0.63018  0.86094  0.19981  Biso   1.000  N
  H121     1.0000 0.68658  0.73992  0.13898  Biso   1.000  H
  H122     1.0000 0.77921  0.68741  0.15188  Biso   1.000  H
  H123     1.0000 0.80120  0.76531  0.12889  Biso   1.000  H
  H124     1.0000 0.91757  0.78962  0.21320  Biso   1.000  H
  H125     1.0000 0.89968  0.71221  0.23840  Biso   1.000  H
  H126     1.0000 0.88044  0.77932  0.27901  Biso   1.000  H
  H127     1.0000 0.24701  0.79148  0.16721  Biso   1.000  H
  H128     1.0000 0.15705  0.84809  0.17021  Biso   1.000  H
  H129     1.0000 0.13787  0.76908  0.19149  Biso   1.000  H
  H130     1.0000 0.07927  0.81309  0.29069  Biso   1.000  H
  H131     1.0000 0.09481  0.89168  0.26760  Biso   1.000  H
  H132     1.0000 0.14814  0.86699  0.32712  Biso   1.000  H
  C140     1.0000 0.29397  0.95545  0.27584  Biso   1.000  C
  N30      1.0000 0.38265  0.89041  0.21417  Biso   1.000  N
  C141     1.0000 0.71119  0.95996  0.22382  Biso   1.000  C
  H133     1.0000 0.84358  0.90448  0.25161  Biso   1.000  H
  C142     1.0000 0.62067  0.93432  0.20135  Biso   1.000  C
  H134     1.0000 0.58238  0.83189  0.18801  Biso   1.000  H
  H135     1.0000 0.24460  0.97048  0.30320  Biso   1.000  H
  C143     1.0000 0.37686  0.99676  0.25465  Biso   1.000  C
  C144     1.0000 0.43125  0.95577  0.21624  Biso   1.000  C
  H136     1.0000 0.40306  0.85451  0.19320  Biso   1.000  H
  H137     1.0000 0.72695  0.00812  0.23029  Biso   1.000  H
  C145     1.0000 0.52469  0.97175  0.17880  Biso   1.000  C
  H138     1.0000 0.39176  0.04391  0.26518  Biso   1.000  H
  C146     1.0000 0.50042  0.94982  0.11409  Biso   1.000  C
  C147     1.0000 0.54436  0.05315  0.17862  Biso   1.000  C
  C148     1.0000 0.40137  0.95869  0.09158  Biso   1.000  C
  C149     1.0000 0.57559  0.92094  0.07784  Biso   1.000  C
  H139     1.0000 0.56086  0.06882  0.21831  Biso   1.000  H
  H140     1.0000 0.48316  0.07758  0.16470  Biso   1.000  H
  H141     1.0000 0.60137  0.06382  0.15281  Biso   1.000  H
  H142     1.0000 0.34971  0.97881  0.11501  Biso   1.000  H
  C150     1.0000 0.37950  0.93734  0.03387  Biso   1.000  C
  C151     1.0000 0.54911  0.90049  0.02097  Biso   1.000  C
  H143     1.0000 0.64340  0.91541  0.09171  Biso   1.000  H
  N31      1.0000 0.27299  0.94552  0.01150  Biso   1.000  N
  C152     1.0000 0.45136  0.90761  0.99767  Biso   1.000  C
  N32      1.0000 0.62796  0.86694  0.98392  Biso   1.000  N
  O29      1.0000 0.20991  0.97520  0.04299  Biso   1.000  O
  O30      1.0000 0.25291  0.92221  0.96185  Biso   1.000  O
  H144     1.0000 0.43503  0.89290  0.95912  Biso   1.000  H
  O31      1.0000 0.71118  0.85207  0.00670  Biso   1.000  O
  O32      1.0000 0.60624  0.85387  0.93282  Biso   1.000  O
