data_image0
_cell_length_a       12.865
_cell_length_b       18.623
_cell_length_c       22.483
_cell_angle_alpha    90
_cell_angle_beta     90.14
_cell_angle_gamma    90

_symmetry_space_group_name_H-M    "P 1"
_symmetry_int_tables_number       1

loop_
  _symmetry_equiv_pos_as_xyz
  'x, y, z'

loop_
  _atom_site_label
  _atom_site_occupancy
  _atom_site_fract_x
  _atom_site_fract_y
  _atom_site_fract_z
  _atom_site_thermal_displace_type
  _atom_site_B_iso_or_equiv
  _atom_site_type_symbol
  C1       1.0000 0.55566  0.40939  0.50100  Biso   1.000  C
  C2       1.0000 0.62724  0.43897  0.46369  Biso   1.000  C
  C3       1.0000 0.45428  0.40300  0.47859  Biso   1.000  C
  H1       1.0000 0.57355  0.39398  0.54001  Biso   1.000  H
  C4       1.0000 0.60469  0.46077  0.40640  Biso   1.000  C
  N1       1.0000 0.73437  0.44590  0.48579  Biso   1.000  N
  C5       1.0000 0.42729  0.42378  0.42130  Biso   1.000  C
  N2       1.0000 0.37578  0.36868  0.51661  Biso   1.000  N
  C6       1.0000 0.50316  0.45202  0.38438  Biso   1.000  C
  H2       1.0000 0.65713  0.48139  0.38211  Biso   1.000  H
  O1       1.0000 0.79929  0.47538  0.45310  Biso   1.000  O
  O2       1.0000 0.75503  0.42249  0.53552  Biso   1.000  O
  H3       1.0000 0.35774  0.41868  0.40751  Biso   1.000  H
  O3       1.0000 0.29173  0.35360  0.49362  Biso   1.000  O
  O4       1.0000 0.39846  0.35698  0.56799  Biso   1.000  O
  C7       1.0000 0.47731  0.47468  0.31962  Biso   1.000  C
  C8       1.0000 0.38075  0.43602  0.29778  Biso   1.000  C
  C9       1.0000 0.57096  0.45669  0.27999  Biso   1.000  C
  C10      1.0000 0.45888  0.55571  0.31949  Biso   1.000  C
  N3       1.0000 0.37097  0.36181  0.30041  Biso   1.000  N
  C11      1.0000 0.28808  0.46222  0.27572  Biso   1.000  C
  C12      1.0000 0.62115  0.49632  0.23898  Biso   1.000  C
  N4       1.0000 0.62018  0.39070  0.28426  Biso   1.000  N
  H4       1.0000 0.52075  0.58020  0.33492  Biso   1.000  H
  H5       1.0000 0.39906  0.56699  0.34471  Biso   1.000  H
  H6       1.0000 0.44511  0.57187  0.27870  Biso   1.000  H
  C13      1.0000 0.27380  0.34119  0.28008  Biso   1.000  C
  H7       1.0000 0.41945  0.33212  0.31308  Biso   1.000  H
  C14      1.0000 0.22219  0.40332  0.26451  Biso   1.000  C
  H8       1.0000 0.27150  0.51130  0.26932  Biso   1.000  H
  C15      1.0000 0.70477  0.45369  0.21679  Biso   1.000  C
  H9       1.0000 0.60416  0.54390  0.22711  Biso   1.000  H
  C16      1.0000 0.70404  0.38882  0.24610  Biso   1.000  C
  H10      1.0000 0.60100  0.35542  0.30770  Biso   1.000  H
  C17      1.0000 0.23774  0.26430  0.28270  Biso   1.000  C
  H11      1.0000 0.15365  0.40590  0.24872  Biso   1.000  H
  H12      1.0000 0.75268  0.46781  0.18690  Biso   1.000  H
  C18      1.0000 0.77966  0.32750  0.24361  Biso   1.000  C
  C19      1.0000 0.12199  0.26102  0.26300  Biso   1.000  C
  C20      1.0000 0.24338  0.23718  0.34800  Biso   1.000  C
  C21      1.0000 0.29968  0.21441  0.24432  Biso   1.000  C
  C22      1.0000 0.73375  0.26188  0.21350  Biso   1.000  C
  C23      1.0000 0.81577  0.30752  0.30788  Biso   1.000  C
  C24      1.0000 0.87551  0.35112  0.20740  Biso   1.000  C
  H13      1.0000 0.11661  0.27380  0.22079  Biso   1.000  H
  H14      1.0000 0.08121  0.29480  0.28671  Biso   1.000  H
  H15      1.0000 0.09536  0.21221  0.26892  Biso   1.000  H
  H16      1.0000 0.21518  0.18832  0.35022  Biso   1.000  H
  H17      1.0000 0.20245  0.26902  0.37348  Biso   1.000  H
  H18      1.0000 0.31588  0.23702  0.36139  Biso   1.000  H
  C25      1.0000 0.27327  0.17699  0.19290  Biso   1.000  C
  N5       1.0000 0.40118  0.19438  0.25771  Biso   1.000  N
  N6       1.0000 0.64765  0.22628  0.23667  Biso   1.000  N
  C26      1.0000 0.76752  0.22241  0.16639  Biso   1.000  C
  H19      1.0000 0.75509  0.29571  0.33221  Biso   1.000  H
  H20      1.0000 0.85269  0.34828  0.32558  Biso   1.000  H
  H21      1.0000 0.86240  0.26591  0.30619  Biso   1.000  H
  H22      1.0000 0.92556  0.31150  0.20580  Biso   1.000  H
  H23      1.0000 0.90785  0.39279  0.22662  Biso   1.000  H
  H24      1.0000 0.85388  0.36390  0.16702  Biso   1.000  H
  H25      1.0000 0.20866  0.17978  0.17240  Biso   1.000  H
  C27      1.0000 0.35847  0.13440  0.17649  Biso   1.000  C
  C28      1.0000 0.43731  0.14520  0.21732  Biso   1.000  C
  H26      1.0000 0.43737  0.21098  0.28800  Biso   1.000  H
  C29      1.0000 0.62855  0.16447  0.20500  Biso   1.000  C
  H27      1.0000 0.61078  0.24131  0.26709  Biso   1.000  H
  C30      1.0000 0.70158  0.16082  0.16039  Biso   1.000  C
  H28      1.0000 0.82501  0.23380  0.14171  Biso   1.000  H
  H29      1.0000 0.36151  0.10342  0.14300  Biso   1.000  H
  C31      1.0000 0.54499  0.11190  0.22270  Biso   1.000  C
  H30      1.0000 0.70721  0.12431  0.13112  Biso   1.000  H
  C32      1.0000 0.55119  0.04468  0.18218  Biso   1.000  C
  C33      1.0000 0.56151  0.08629  0.28702  Biso   1.000  C
  H31      1.0000 0.49838  0.00988  0.19441  Biso   1.000  H
  H32      1.0000 0.62038  0.02298  0.18579  Biso   1.000  H
  H33      1.0000 0.53888  0.05880  0.14082  Biso   1.000  H
  C34      1.0000 0.65569  0.09751  0.31749  Biso   1.000  C
  C35      1.0000 0.48359  0.04860  0.31562  Biso   1.000  C
  H34      1.0000 0.71127  0.12238  0.29898  Biso   1.000  H
  C36      1.0000 0.66627  0.07179  0.37451  Biso   1.000  C
  C37      1.0000 0.49860  0.02261  0.37268  Biso   1.000  C
  H35      1.0000 0.41930  0.04038  0.29578  Biso   1.000  H
  C38      1.0000 0.59084  0.03410  0.40448  Biso   1.000  C
  N7       1.0000 0.76838  0.08242  0.40462  Biso   1.000  N
  N8       1.0000 0.41625  0.98260  0.40208  Biso   1.000  N
  H36      1.0000 0.60065  0.01708  0.44398  Biso   1.000  H
  O5       1.0000 0.82884  0.12592  0.38296  Biso   1.000  O
  O6       1.0000 0.78630  0.04741  0.44945  Biso   1.000  O
  O7       1.0000 0.43015  0.96043  0.45252  Biso   1.000  O
  O8       1.0000 0.33576  0.97133  0.37468  Biso   1.000  O
  C39      1.0000 0.44426  0.59061  0.49900  Biso   1.000  C
  C40      1.0000 0.37267  0.56103  0.53632  Biso   1.000  C
  H37      1.0000 0.42637  0.60602  0.45999  Biso   1.000  H
  C41      1.0000 0.54564  0.59700  0.52142  Biso   1.000  C
  N9       1.0000 0.26555  0.55410  0.51421  Biso   1.000  N
  C42      1.0000 0.39523  0.53923  0.59361  Biso   1.000  C
  C43      1.0000 0.57262  0.57622  0.57871  Biso   1.000  C
  N10      1.0000 0.62414  0.63132  0.48339  Biso   1.000  N
  O9       1.0000 0.24489  0.57751  0.46449  Biso   1.000  O
  O10      1.0000 0.20063  0.52462  0.54690  Biso   1.000  O
  C44      1.0000 0.49676  0.54798  0.61558  Biso   1.000  C
  H38      1.0000 0.34271  0.51861  0.61789  Biso   1.000  H
  H39      1.0000 0.64217  0.58132  0.59249  Biso   1.000  H
  O11      1.0000 0.70819  0.64640  0.50638  Biso   1.000  O
  O12      1.0000 0.60146  0.64302  0.43202  Biso   1.000  O
  C45      1.0000 0.52261  0.52532  0.68038  Biso   1.000  C
  C46      1.0000 0.42896  0.54331  0.72001  Biso   1.000  C
  C47      1.0000 0.54103  0.44429  0.68052  Biso   1.000  C
  C48      1.0000 0.61917  0.56398  0.70222  Biso   1.000  C
  C49      1.0000 0.37876  0.50368  0.76102  Biso   1.000  C
  N11      1.0000 0.37974  0.60930  0.71574  Biso   1.000  N
  H40      1.0000 0.47917  0.41980  0.66508  Biso   1.000  H
  H41      1.0000 0.60086  0.43301  0.65530  Biso   1.000  H
  H42      1.0000 0.55481  0.42813  0.72130  Biso   1.000  H
  C50      1.0000 0.71184  0.53778  0.72428  Biso   1.000  C
  N12      1.0000 0.62895  0.63819  0.69960  Biso   1.000  N
  C51      1.0000 0.29514  0.54631  0.78322  Biso   1.000  C
  H43      1.0000 0.39576  0.45610  0.77290  Biso   1.000  H
  C52      1.0000 0.29580  0.61118  0.75391  Biso   1.000  C
  H44      1.0000 0.39891  0.64458  0.69230  Biso   1.000  H
  H45      1.0000 0.72842  0.48870  0.73069  Biso   1.000  H
  C53      1.0000 0.77772  0.59668  0.73549  Biso   1.000  C
  C54      1.0000 0.72612  0.65881  0.71988  Biso   1.000  C
  H46      1.0000 0.58047  0.66788  0.68692  Biso   1.000  H
  H47      1.0000 0.24723  0.53219  0.81311  Biso   1.000  H
  C55      1.0000 0.22025  0.67250  0.75640  Biso   1.000  C
  H48      1.0000 0.84619  0.59410  0.75128  Biso   1.000  H
  C56      1.0000 0.76210  0.73570  0.71730  Biso   1.000  C
  C57      1.0000 0.26616  0.73812  0.78651  Biso   1.000  C
  C58      1.0000 0.18414  0.69248  0.69208  Biso   1.000  C
  C59      1.0000 0.12441  0.64888  0.79260  Biso   1.000  C
  C60      1.0000 0.87792  0.73898  0.73700  Biso   1.000  C
  C61      1.0000 0.75653  0.76282  0.65201  Biso   1.000  C
  C62      1.0000 0.70023  0.78559  0.75568  Biso   1.000  C
  C63      1.0000 0.23240  0.77759  0.83361  Biso   1.000  C
  N13      1.0000 0.35227  0.77372  0.76333  Biso   1.000  N
  H49      1.0000 0.24483  0.70429  0.66780  Biso   1.000  H
  H50      1.0000 0.14722  0.65172  0.67438  Biso   1.000  H
  H51      1.0000 0.13751  0.73409  0.69382  Biso   1.000  H
  H52      1.0000 0.07436  0.68850  0.79420  Biso   1.000  H
  H53      1.0000 0.09199  0.60721  0.77339  Biso   1.000  H
  H54      1.0000 0.14604  0.63610  0.83299  Biso   1.000  H
  H55      1.0000 0.88331  0.72620  0.77921  Biso   1.000  H
  H56      1.0000 0.91871  0.70520  0.71330  Biso   1.000  H
  H57      1.0000 0.90456  0.78779  0.73109  Biso   1.000  H
  H58      1.0000 0.78474  0.81168  0.64978  Biso   1.000  H
  H59      1.0000 0.79747  0.73098  0.62652  Biso   1.000  H
  H60      1.0000 0.68403  0.76298  0.63862  Biso   1.000  H
  C64      1.0000 0.72665  0.82301  0.80710  Biso   1.000  C
  N14      1.0000 0.59874  0.80562  0.74230  Biso   1.000  N
  C65      1.0000 0.29834  0.83918  0.83961  Biso   1.000  C
  H61      1.0000 0.17490  0.76620  0.85830  Biso   1.000  H
  C66      1.0000 0.37129  0.83553  0.79500  Biso   1.000  C
  H62      1.0000 0.38914  0.75869  0.73291  Biso   1.000  H
  H63      1.0000 0.79125  0.82022  0.82761  Biso   1.000  H
  C67      1.0000 0.64145  0.86560  0.82351  Biso   1.000  C
  C68      1.0000 0.56261  0.85480  0.78268  Biso   1.000  C
  H64      1.0000 0.56254  0.78902  0.71201  Biso   1.000  H
  H65      1.0000 0.29271  0.87569  0.86888  Biso   1.000  H
  C69      1.0000 0.45493  0.88810  0.77730  Biso   1.000  C
  H66      1.0000 0.63841  0.89658  0.85701  Biso   1.000  H
  C70      1.0000 0.44873  0.95532  0.81782  Biso   1.000  C
  C71      1.0000 0.43841  0.91371  0.71299  Biso   1.000  C
  H67      1.0000 0.50154  0.99012  0.80559  Biso   1.000  H
  H68      1.0000 0.37954  0.97702  0.81422  Biso   1.000  H
  H69      1.0000 0.46103  0.94120  0.85919  Biso   1.000  H
  C72      1.0000 0.34423  0.90249  0.68252  Biso   1.000  C
  C73      1.0000 0.51633  0.95140  0.68439  Biso   1.000  C
  H70      1.0000 0.28865  0.87762  0.70102  Biso   1.000  H
  C74      1.0000 0.33365  0.92821  0.62550  Biso   1.000  C
  C75      1.0000 0.50132  0.97739  0.62732  Biso   1.000  C
  H71      1.0000 0.58062  0.95962  0.70418  Biso   1.000  H
  C76      1.0000 0.40907  0.96590  0.59552  Biso   1.000  C
  N15      1.0000 0.23154  0.91758  0.59538  Biso   1.000  N
  N16      1.0000 0.58366  0.01740  0.59792  Biso   1.000  N
  H72      1.0000 0.39927  0.98292  0.55602  Biso   1.000  H
  O13      1.0000 0.17108  0.87408  0.61705  Biso   1.000  O
  O14      1.0000 0.21362  0.95259  0.55055  Biso   1.000  O
  O15      1.0000 0.56977  0.03957  0.54748  Biso   1.000  O
  O16      1.0000 0.66415  0.02867  0.62532  Biso   1.000  O
  C77      1.0000 0.79834  0.66080  0.33959  Biso   1.000  C
  C78      1.0000 0.87137  0.66450  0.29498  Biso   1.000  C
  H73      1.0000 0.79279  0.62428  0.36890  Biso   1.000  H
  C79      1.0000 0.73248  0.72239  0.33359  Biso   1.000  C
  C80      1.0000 0.95501  0.61188  0.27732  Biso   1.000  C
  N17      1.0000 0.85227  0.72631  0.26336  Biso   1.000  N
  C81      1.0000 0.76617  0.76191  0.28648  Biso   1.000  C
  H74      1.0000 0.67499  0.73382  0.35832  Biso   1.000  H
  C82      1.0000 0.93849  0.58632  0.21301  Biso   1.000  C
  C83      1.0000 0.94873  0.54470  0.31780  Biso   1.000  C
  C84      1.0000 0.06269  0.64522  0.28270  Biso   1.000  C
  H75      1.0000 0.88914  0.74129  0.23289  Biso   1.000  H
  C85      1.0000 0.72026  0.82753  0.25642  Biso   1.000  C
  C86      1.0000 0.84431  0.59749  0.18249  Biso   1.000  C
  C87      1.0000 0.01641  0.54862  0.18441  Biso   1.000  C
  H76      1.0000 0.87954  0.52301  0.31419  Biso   1.000  H
  H77      1.0000 0.96104  0.55883  0.35921  Biso   1.000  H
  H78      1.0000 0.00154  0.50991  0.30561  Biso   1.000  H
  C88      1.0000 0.14145  0.63438  0.32349  Biso   1.000  C
  N18      1.0000 0.09874  0.69441  0.24232  Biso   1.000  N
  C89      1.0000 0.68415  0.80750  0.19210  Biso   1.000  C
  C90      1.0000 0.62449  0.85110  0.29262  Biso   1.000  C
  C91      1.0000 0.79588  0.88879  0.25388  Biso   1.000  C
  C92      1.0000 0.83373  0.57182  0.12552  Biso   1.000  C
  H79      1.0000 0.78865  0.62240  0.20100  Biso   1.000  H
  C93      1.0000 0.00140  0.52258  0.12730  Biso   1.000  C
  H80      1.0000 0.08070  0.54041  0.20420  Biso   1.000  H
  C94      1.0000 0.22665  0.67701  0.30712  Biso   1.000  C
  H81      1.0000 0.13849  0.60339  0.35698  Biso   1.000  H
  C95      1.0000 0.20031  0.71439  0.25571  Biso   1.000  C
  H82      1.0000 0.06255  0.71100  0.21198  Biso   1.000  H
  H83      1.0000 0.74491  0.79568  0.16782  Biso   1.000  H
  H84      1.0000 0.64731  0.84831  0.17440  Biso   1.000  H
  H85      1.0000 0.63759  0.76588  0.19379  Biso   1.000  H
  H86      1.0000 0.57436  0.81152  0.29418  Biso   1.000  H
  H87      1.0000 0.59207  0.89282  0.27341  Biso   1.000  H
  H88      1.0000 0.64604  0.86388  0.33301  Biso   1.000  H
  C96      1.0000 0.79515  0.95371  0.28319  Biso   1.000  C
  N19      1.0000 0.87982  0.89073  0.21576  Biso   1.000  N
  N20      1.0000 0.73162  0.58240  0.09541  Biso   1.000  N
  C97      1.0000 0.90907  0.53412  0.09549  Biso   1.000  C
  N21      1.0000 0.08367  0.48258  0.09790  Biso   1.000  N
  H89      1.0000 0.29126  0.67980  0.32758  Biso   1.000  H
  C98      1.0000 0.26218  0.76432  0.21732  Biso   1.000  C
  H90      1.0000 0.74724  0.96778  0.31308  Biso   1.000  H
  C99      1.0000 0.87877  0.99629  0.26100  Biso   1.000  C
  C100     1.0000 0.92896  0.95672  0.21999  Biso   1.000  C
  H91      1.0000 0.89899  0.85539  0.19228  Biso   1.000  H
  O17      1.0000 0.71370  0.54739  0.05057  Biso   1.000  O
  O18      1.0000 0.67108  0.62589  0.11707  Biso   1.000  O
  H92      1.0000 0.89927  0.51710  0.05600  Biso   1.000  H
  O19      1.0000 0.06977  0.46040  0.04746  Biso   1.000  O
  O20      1.0000 0.16416  0.47130  0.12530  Biso   1.000  O
  C101     1.0000 0.22620  0.84122  0.21990  Biso   1.000  C
  C102     1.0000 0.37800  0.76099  0.23698  Biso   1.000  C
  C103     1.0000 0.25661  0.73721  0.15198  Biso   1.000  C
  H93      1.0000 0.89576  0.04392  0.27292  Biso   1.000  H
  C104     1.0000 0.02269  0.97471  0.18040  Biso   1.000  C
  C105     1.0000 0.27780  0.90329  0.23551  Biso   1.000  C
  N22      1.0000 0.12895  0.86178  0.19957  Biso   1.000  N
  H94      1.0000 0.38339  0.77377  0.27919  Biso   1.000  H
  H95      1.0000 0.41879  0.79482  0.21332  Biso   1.000  H
  H96      1.0000 0.40456  0.71218  0.23111  Biso   1.000  H
  H97      1.0000 0.28482  0.68829  0.14980  Biso   1.000  H
  H98      1.0000 0.29747  0.76900  0.12650  Biso   1.000  H
  H99      1.0000 0.18411  0.73699  0.13859  Biso   1.000  H
  C106     1.0000 0.11917  0.93599  0.20220  Biso   1.000  C
  C107     1.0000 0.99676  0.95199  0.11560  Biso   1.000  C
  C108     1.0000 0.04111  0.05568  0.18049  Biso   1.000  C
  C109     1.0000 0.21192  0.96220  0.22430  Biso   1.000  C
  H100     1.0000 0.34627  0.90592  0.25130  Biso   1.000  H
  H101     1.0000 0.08047  0.83209  0.18690  Biso   1.000  H
  C110     1.0000 0.89531  0.96080  0.09358  Biso   1.000  C
  C111     1.0000 0.07270  0.92380  0.07868  Biso   1.000  C
  H102     1.0000 0.97917  0.08022  0.16510  Biso   1.000  H
  H103     1.0000 0.10086  0.06701  0.15532  Biso   1.000  H
  H104     1.0000 0.05489  0.07190  0.22128  Biso   1.000  H
  H105     1.0000 0.22850  0.01128  0.23071  Biso   1.000  H
  H106     1.0000 0.84279  0.98142  0.11791  Biso   1.000  H
  C112     1.0000 0.87268  0.93900  0.03629  Biso   1.000  C
  C113     1.0000 0.04572  0.90302  0.02139  Biso   1.000  C
  H107     1.0000 0.14218  0.91870  0.09251  Biso   1.000  H
  N23      1.0000 0.76563  0.94587  0.01419  Biso   1.000  N
  C114     1.0000 0.94419  0.90941  0.99902  Biso   1.000  C
  N24      1.0000 0.12414  0.86871  0.98341  Biso   1.000  N
  O21      1.0000 0.70071  0.97541  0.04688  Biso   1.000  O
  O22      1.0000 0.74482  0.92252  0.96451  Biso   1.000  O
  H108     1.0000 0.92630  0.89400  0.96001  Biso   1.000  H
  O23      1.0000 0.10146  0.85700  0.93199  Biso   1.000  O
  O24      1.0000 0.20819  0.85362  0.00640  Biso   1.000  O
  C115     1.0000 0.20158  0.33920  0.66041  Biso   1.000  C
  C116     1.0000 0.26744  0.27761  0.66642  Biso   1.000  C
  C117     1.0000 0.12854  0.33550  0.70498  Biso   1.000  C
  H109     1.0000 0.20713  0.37572  0.63110  Biso   1.000  H
  H110     1.0000 0.32493  0.26618  0.64169  Biso   1.000  H
  C118     1.0000 0.23375  0.23809  0.71352  Biso   1.000  C
  N25      1.0000 0.14765  0.27369  0.73665  Biso   1.000  N
  C119     1.0000 0.04490  0.38812  0.72268  Biso   1.000  C
  C120     1.0000 0.27966  0.17247  0.74359  Biso   1.000  C
  H111     1.0000 0.11070  0.25871  0.76712  Biso   1.000  H
  C121     1.0000 0.05111  0.45530  0.68221  Biso   1.000  C
  C122     1.0000 0.06143  0.41368  0.78700  Biso   1.000  C
  C123     1.0000 0.93723  0.35478  0.71730  Biso   1.000  C
  C124     1.0000 0.31569  0.19250  0.80790  Biso   1.000  C
  C125     1.0000 0.37543  0.14890  0.70738  Biso   1.000  C
  C126     1.0000 0.20404  0.11121  0.74612  Biso   1.000  C
  H112     1.0000 0.12030  0.47699  0.68581  Biso   1.000  H
  H113     1.0000 0.03880  0.44117  0.64080  Biso   1.000  H
  H114     1.0000 0.99830  0.49009  0.69439  Biso   1.000  H
  C127     1.0000 0.15561  0.40251  0.81751  Biso   1.000  C
  C128     1.0000 0.98351  0.45138  0.81560  Biso   1.000  C
  C129     1.0000 0.85847  0.36562  0.67651  Biso   1.000  C
  N26      1.0000 0.90110  0.30559  0.75769  Biso   1.000  N
  H115     1.0000 0.25501  0.20432  0.83219  Biso   1.000  H
  H116     1.0000 0.35261  0.15169  0.82560  Biso   1.000  H
  H117     1.0000 0.36232  0.23412  0.80621  Biso   1.000  H
  H118     1.0000 0.42556  0.18848  0.70578  Biso   1.000  H
  H119     1.0000 0.40784  0.10718  0.72660  Biso   1.000  H
  H120     1.0000 0.35380  0.13612  0.66699  Biso   1.000  H
  C130     1.0000 0.20477  0.04629  0.71681  Biso   1.000  C
  N27      1.0000 0.12010  0.10927  0.78424  Biso   1.000  N
  H121     1.0000 0.21126  0.37760  0.79901  Biso   1.000  H
  C131     1.0000 0.16619  0.42818  0.87449  Biso   1.000  C
  C132     1.0000 0.99852  0.47742  0.87271  Biso   1.000  C
  H122     1.0000 0.91922  0.45959  0.79580  Biso   1.000  H
  C133     1.0000 0.77327  0.32299  0.69288  Biso   1.000  C
  H123     1.0000 0.86143  0.39661  0.64302  Biso   1.000  H
  C134     1.0000 0.79960  0.28561  0.74430  Biso   1.000  C
  H124     1.0000 0.93729  0.28900  0.78802  Biso   1.000  H
  H125     1.0000 0.25260  0.03222  0.68692  Biso   1.000  H
  C135     1.0000 0.12115  0.00371  0.73901  Biso   1.000  C
  C136     1.0000 0.07096  0.04328  0.78001  Biso   1.000  C
  H126     1.0000 0.10092  0.14461  0.80768  Biso   1.000  H
  C137     1.0000 0.09084  0.46588  0.90451  Biso   1.000  C
  N28      1.0000 0.26830  0.41760  0.90460  Biso   1.000  N
  N29      1.0000 0.91625  0.51742  0.90211  Biso   1.000  N
  H127     1.0000 0.70866  0.32020  0.67242  Biso   1.000  H
  C138     1.0000 0.73774  0.23568  0.78268  Biso   1.000  C
  H128     1.0000 0.10415  0.95608  0.72708  Biso   1.000  H
  C139     1.0000 0.97723  0.02529  0.81960  Biso   1.000  C
  H129     1.0000 0.10065  0.48290  0.94400  Biso   1.000  H
  O25      1.0000 0.32884  0.37411  0.88294  Biso   1.000  O
  O26      1.0000 0.28622  0.45261  0.94943  Biso   1.000  O
  O27      1.0000 0.93015  0.53960  0.95254  Biso   1.000  O
  O28      1.0000 0.83568  0.52870  0.87471  Biso   1.000  O
  C140     1.0000 0.77372  0.15878  0.78010  Biso   1.000  C
  C141     1.0000 0.62191  0.23901  0.76298  Biso   1.000  C
  C142     1.0000 0.74330  0.26279  0.84802  Biso   1.000  C
  C143     1.0000 0.00315  0.04801  0.88440  Biso   1.000  C
  C144     1.0000 0.95880  0.94432  0.81951  Biso   1.000  C
  C145     1.0000 0.88075  0.06401  0.79781  Biso   1.000  C
  N30      1.0000 0.87097  0.13822  0.80043  Biso   1.000  N
  C146     1.0000 0.72211  0.09671  0.76449  Biso   1.000  C
  H130     1.0000 0.61653  0.22623  0.72081  Biso   1.000  H
  H131     1.0000 0.58113  0.20518  0.78669  Biso   1.000  H
  H132     1.0000 0.59535  0.28782  0.76889  Biso   1.000  H
  H133     1.0000 0.71510  0.31171  0.85020  Biso   1.000  H
  H134     1.0000 0.70245  0.23100  0.87351  Biso   1.000  H
  H135     1.0000 0.81580  0.26301  0.86141  Biso   1.000  H
  C147     1.0000 0.10461  0.03920  0.90642  Biso   1.000  C
  C148     1.0000 0.92721  0.07620  0.92132  Biso   1.000  C
  H136     1.0000 0.89906  0.93299  0.84469  Biso   1.000  H
  H137     1.0000 0.94503  0.92810  0.77868  Biso   1.000  H
  H138     1.0000 0.02074  0.91978  0.83490  Biso   1.000  H
  C149     1.0000 0.78800  0.03780  0.77570  Biso   1.000  C
  H139     1.0000 0.91945  0.16791  0.81311  Biso   1.000  H
  H140     1.0000 0.65364  0.09408  0.74870  Biso   1.000  H
  H141     1.0000 0.15713  0.01858  0.88209  Biso   1.000  H
  C150     1.0000 0.12724  0.06100  0.96371  Biso   1.000  C
  C151     1.0000 0.95420  0.09698  0.97861  Biso   1.000  C
  H142     1.0000 0.85774  0.08130  0.90749  Biso   1.000  H
  H143     1.0000 0.77142  0.98872  0.76929  Biso   1.000  H
  N31      1.0000 0.23429  0.05413  0.98581  Biso   1.000  N
  C152     1.0000 0.05565  0.09059  0.00098  Biso   1.000  C
  N32      1.0000 0.87578  0.13129  0.01659  Biso   1.000  N
  O29      1.0000 0.29921  0.02459  0.95308  Biso   1.000  O
  O30      1.0000 0.25510  0.07748  0.03550  Biso   1.000  O
  H144     1.0000 0.07362  0.10600  0.03999  Biso   1.000  H
  O31      1.0000 0.79173  0.14638  0.99360  Biso   1.000  O
  O32      1.0000 0.89846  0.14300  0.06801  Biso   1.000  O
