data_image0
_cell_length_a       12.773
_cell_length_b       19.067
_cell_length_c       23.221
_cell_angle_alpha    90
_cell_angle_beta     91.69
_cell_angle_gamma    90

_symmetry_space_group_name_H-M    "P 1"
_symmetry_int_tables_number       1

loop_
  _symmetry_equiv_pos_as_xyz
  'x, y, z'

loop_
  _atom_site_label
  _atom_site_occupancy
  _atom_site_fract_x
  _atom_site_fract_y
  _atom_site_fract_z
  _atom_site_thermal_displace_type
  _atom_site_B_iso_or_equiv
  _atom_site_type_symbol
  O1       1.0000 0.69297  0.43782  0.55246  Biso   1.000  O
  N1       1.0000 0.71137  0.40971  0.59924  Biso   1.000  N
  C1       1.0000 0.81392  0.42324  0.62815  Biso   1.000  C
  O2       1.0000 0.64962  0.37101  0.62285  Biso   1.000  O
  C2       1.0000 0.83291  0.39608  0.68304  Biso   1.000  C
  C3       1.0000 0.88613  0.46295  0.59950  Biso   1.000  C
  C4       1.0000 0.92900  0.40851  0.71139  Biso   1.000  C
  H1       1.0000 0.78126  0.36949  0.70101  Biso   1.000  H
  C5       1.0000 0.98000  0.47480  0.62876  Biso   1.000  C
  H2       1.0000 0.87224  0.48078  0.56228  Biso   1.000  H
  C6       1.0000 0.95400  0.38255  0.77317  Biso   1.000  C
  C7       1.0000 0.00343  0.44873  0.68304  Biso   1.000  C
  N2       1.0000 0.06071  0.51670  0.59937  Biso   1.000  N
  C8       1.0000 0.87520  0.32769  0.79140  Biso   1.000  C
  C9       1.0000 0.06571  0.35533  0.77726  Biso   1.000  C
  C10      1.0000 0.94496  0.44716  0.81337  Biso   1.000  C
  H3       1.0000 0.06890  0.45791  0.70092  Biso   1.000  H
  O3       1.0000 0.14447  0.52489  0.62393  Biso   1.000  O
  O4       1.0000 0.03917  0.54109  0.55237  Biso   1.000  O
  N3       1.0000 0.85565  0.26743  0.75964  Biso   1.000  N
  C11      1.0000 0.80912  0.32648  0.83646  Biso   1.000  C
  N4       1.0000 0.10213  0.30697  0.73819  Biso   1.000  N
  C12      1.0000 0.14747  0.37148  0.81423  Biso   1.000  C
  H4       1.0000 0.95899  0.43300  0.85300  Biso   1.000  H
  H5       1.0000 0.99550  0.48251  0.80251  Biso   1.000  H
  H6       1.0000 0.87478  0.46651  0.80971  Biso   1.000  H
  C13      1.0000 0.77590  0.22909  0.78351  Biso   1.000  C
  H7       1.0000 0.88893  0.25531  0.72901  Biso   1.000  H
  C14      1.0000 0.74732  0.26501  0.83159  Biso   1.000  C
  H8       1.0000 0.80527  0.36052  0.86558  Biso   1.000  H
  C15      1.0000 0.20642  0.29249  0.75004  Biso   1.000  C
  H9       1.0000 0.06470  0.28840  0.71018  Biso   1.000  H
  C16      1.0000 0.23551  0.33193  0.79747  Biso   1.000  C
  H10      1.0000 0.14568  0.40310  0.84521  Biso   1.000  H
  C17      1.0000 0.72739  0.16542  0.75344  Biso   1.000  C
  H11      1.0000 0.69537  0.25122  0.85710  Biso   1.000  H
  C18      1.0000 0.27110  0.24540  0.71229  Biso   1.000  C
  H12      1.0000 0.30216  0.33262  0.81561  Biso   1.000  H
  C19      1.0000 0.80458  0.10610  0.74599  Biso   1.000  C
  C20      1.0000 0.63641  0.13872  0.78980  Biso   1.000  C
  C21      1.0000 0.68191  0.18781  0.69364  Biso   1.000  C
  C22      1.0000 0.23710  0.16914  0.71466  Biso   1.000  C
  C23      1.0000 0.38710  0.25043  0.73229  Biso   1.000  C
  C24      1.0000 0.26147  0.27141  0.64935  Biso   1.000  C
  N5       1.0000 0.88970  0.11077  0.71126  Biso   1.000  N
  C25      1.0000 0.80260  0.03855  0.76606  Biso   1.000  C
  H13      1.0000 0.66318  0.12498  0.82771  Biso   1.000  H
  H14      1.0000 0.58503  0.17570  0.79368  Biso   1.000  H
  H15      1.0000 0.60369  0.09860  0.77089  Biso   1.000  H
  H16      1.0000 0.64641  0.14821  0.67550  Biso   1.000  H
  H17      1.0000 0.63253  0.22589  0.69838  Biso   1.000  H
  H18      1.0000 0.73832  0.20328  0.66960  Biso   1.000  H
  N6       1.0000 0.13935  0.14727  0.69498  Biso   1.000  N
  C26      1.0000 0.29160  0.10940  0.72957  Biso   1.000  C
  H19      1.0000 0.42911  0.22070  0.70820  Biso   1.000  H
  H20      1.0000 0.41058  0.29858  0.72918  Biso   1.000  H
  H21      1.0000 0.39448  0.23512  0.77201  Biso   1.000  H
  H22      1.0000 0.18918  0.26769  0.63569  Biso   1.000  H
  H23      1.0000 0.28391  0.31992  0.64750  Biso   1.000  H
  H24      1.0000 0.30543  0.24288  0.62531  Biso   1.000  H
  C27      1.0000 0.94078  0.04699  0.70906  Biso   1.000  C
  H25      1.0000 0.90869  0.14848  0.69321  Biso   1.000  H
  C28      1.0000 0.88739  0.00136  0.74280  Biso   1.000  C
  H26      1.0000 0.75322  0.01998  0.79118  Biso   1.000  H
  C29      1.0000 0.13221  0.07489  0.69618  Biso   1.000  C
  H27      1.0000 0.08917  0.17522  0.68339  Biso   1.000  H
  C30      1.0000 0.22669  0.05061  0.71768  Biso   1.000  C
  H28      1.0000 0.36038  0.10778  0.74499  Biso   1.000  H
  C31      1.0000 0.03630  0.03640  0.67270  Biso   1.000  C
  H29      1.0000 0.90387  0.95390  0.74930  Biso   1.000  H
  H30      1.0000 0.24500  0.00330  0.72341  Biso   1.000  H
  C32      1.0000 0.01040  0.05864  0.61006  Biso   1.000  C
  C33      1.0000 0.06173  0.95673  0.67085  Biso   1.000  C
  C34      1.0000 0.91039  0.04773  0.58606  Biso   1.000  C
  C35      1.0000 0.08650  0.08753  0.57507  Biso   1.000  C
  H31      1.0000 0.07938  0.94032  0.70949  Biso   1.000  H
  H32      1.0000 0.00111  0.93129  0.65581  Biso   1.000  H
  H33      1.0000 0.12053  0.94892  0.64621  Biso   1.000  H
  C36      1.0000 0.88839  0.06519  0.52919  Biso   1.000  C
  H34      1.0000 0.85773  0.02843  0.60859  Biso   1.000  H
  C37      1.0000 0.06028  0.10426  0.51833  Biso   1.000  C
  H35      1.0000 0.15470  0.09551  0.58990  Biso   1.000  H
  N7       1.0000 0.78179  0.05302  0.50494  Biso   1.000  N
  C38      1.0000 0.96203  0.09393  0.49365  Biso   1.000  C
  N8       1.0000 0.14111  0.13589  0.48249  Biso   1.000  N
  O5       1.0000 0.76038  0.07343  0.45617  Biso   1.000  O
  O6       1.0000 0.71958  0.02239  0.53466  Biso   1.000  O
  H36      1.0000 0.94603  0.10568  0.45509  Biso   1.000  H
  O7       1.0000 0.21641  0.16395  0.50696  Biso   1.000  O
  O8       1.0000 0.12766  0.13337  0.43027  Biso   1.000  O
  O9       1.0000 0.30701  0.56218  0.44755  Biso   1.000  O
  N9       1.0000 0.28861  0.59029  0.40076  Biso   1.000  N
  C39      1.0000 0.18607  0.57676  0.37185  Biso   1.000  C
  O10      1.0000 0.35037  0.62899  0.37715  Biso   1.000  O
  C40      1.0000 0.16708  0.60392  0.31696  Biso   1.000  C
  C41      1.0000 0.11393  0.53705  0.40050  Biso   1.000  C
  C42      1.0000 0.07098  0.59149  0.28861  Biso   1.000  C
  H37      1.0000 0.21872  0.63051  0.29900  Biso   1.000  H
  C43      1.0000 0.01998  0.52520  0.37125  Biso   1.000  C
  H38      1.0000 0.12783  0.51922  0.43768  Biso   1.000  H
  C44      1.0000 0.04598  0.61745  0.22679  Biso   1.000  C
  C45      1.0000 0.99664  0.55127  0.31696  Biso   1.000  C
  N10      1.0000 0.93928  0.48330  0.40063  Biso   1.000  N
  C46      1.0000 0.05502  0.55284  0.18664  Biso   1.000  C
  C47      1.0000 0.12478  0.67231  0.20861  Biso   1.000  C
  C48      1.0000 0.93428  0.64467  0.22274  Biso   1.000  C
  H39      1.0000 0.93109  0.54209  0.29908  Biso   1.000  H
  O11      1.0000 0.85552  0.47511  0.37607  Biso   1.000  O
  O12      1.0000 0.96082  0.45891  0.44763  Biso   1.000  O
  H40      1.0000 0.04100  0.56700  0.14700  Biso   1.000  H
  H41      1.0000 0.00448  0.51749  0.19749  Biso   1.000  H
  H42      1.0000 0.12521  0.53349  0.19030  Biso   1.000  H
  C49      1.0000 0.19087  0.67352  0.16354  Biso   1.000  C
  N11      1.0000 0.14434  0.73257  0.24036  Biso   1.000  N
  C50      1.0000 0.85252  0.62852  0.18573  Biso   1.000  C
  N12      1.0000 0.89785  0.69303  0.26182  Biso   1.000  N
  C51      1.0000 0.25267  0.73499  0.16837  Biso   1.000  C
  H43      1.0000 0.19471  0.63948  0.13442  Biso   1.000  H
  C52      1.0000 0.22409  0.77091  0.21649  Biso   1.000  C
  H44      1.0000 0.11106  0.74469  0.27099  Biso   1.000  H
  H45      1.0000 0.85430  0.59690  0.15480  Biso   1.000  H
  C53      1.0000 0.76448  0.66807  0.20253  Biso   1.000  C
  C54      1.0000 0.79356  0.70751  0.24997  Biso   1.000  C
  H46      1.0000 0.93529  0.71160  0.28982  Biso   1.000  H
  H47      1.0000 0.30462  0.74878  0.14291  Biso   1.000  H
  C55      1.0000 0.27259  0.83458  0.24657  Biso   1.000  C
  H48      1.0000 0.69782  0.66738  0.18440  Biso   1.000  H
  C56      1.0000 0.72888  0.75460  0.28771  Biso   1.000  C
  C57      1.0000 0.19541  0.89390  0.25402  Biso   1.000  C
  C58      1.0000 0.36357  0.86128  0.21016  Biso   1.000  C
  C59      1.0000 0.31808  0.81219  0.30632  Biso   1.000  C
  C60      1.0000 0.76289  0.83086  0.28534  Biso   1.000  C
  C61      1.0000 0.61288  0.74957  0.26772  Biso   1.000  C
  C62      1.0000 0.73852  0.72859  0.35065  Biso   1.000  C
  C63      1.0000 0.19738  0.96145  0.23390  Biso   1.000  C
  N13      1.0000 0.11029  0.88923  0.28874  Biso   1.000  N
  H49      1.0000 0.33680  0.87502  0.17229  Biso   1.000  H
  H50      1.0000 0.41504  0.82430  0.20628  Biso   1.000  H
  H51      1.0000 0.39630  0.90140  0.22912  Biso   1.000  H
  H52      1.0000 0.35358  0.85179  0.32450  Biso   1.000  H
  H53      1.0000 0.36754  0.77411  0.30158  Biso   1.000  H
  H54      1.0000 0.26167  0.79672  0.33041  Biso   1.000  H
  C64      1.0000 0.70838  0.89060  0.27043  Biso   1.000  C
  N14      1.0000 0.86064  0.85273  0.30503  Biso   1.000  N
  H55      1.0000 0.57088  0.77930  0.29180  Biso   1.000  H
  H56      1.0000 0.58940  0.70142  0.27082  Biso   1.000  H
  H57      1.0000 0.60551  0.76488  0.22800  Biso   1.000  H
  H58      1.0000 0.81081  0.73231  0.36431  Biso   1.000  H
  H59      1.0000 0.71607  0.68008  0.35251  Biso   1.000  H
  H60      1.0000 0.69464  0.75712  0.37469  Biso   1.000  H
  C65      1.0000 0.11259  0.99864  0.25721  Biso   1.000  C
  H61      1.0000 0.24677  0.98002  0.20878  Biso   1.000  H
  C66      1.0000 0.05921  0.95301  0.29094  Biso   1.000  C
  H62      1.0000 0.09129  0.85152  0.30680  Biso   1.000  H
  H63      1.0000 0.63960  0.89222  0.25501  Biso   1.000  H
  C67      1.0000 0.77330  0.94939  0.28232  Biso   1.000  C
  C68      1.0000 0.86777  0.92511  0.30382  Biso   1.000  C
  H64      1.0000 0.91081  0.82478  0.31662  Biso   1.000  H
  H65      1.0000 0.09612  0.04610  0.25070  Biso   1.000  H
  C69      1.0000 0.96368  0.96360  0.32730  Biso   1.000  C
  H66      1.0000 0.75498  0.99670  0.27659  Biso   1.000  H
  C70      1.0000 0.98959  0.94136  0.38995  Biso   1.000  C
  C71      1.0000 0.93834  0.04327  0.32911  Biso   1.000  C
  C72      1.0000 0.08960  0.95227  0.41394  Biso   1.000  C
  C73      1.0000 0.91349  0.91247  0.42493  Biso   1.000  C
  H67      1.0000 0.92061  0.05968  0.29051  Biso   1.000  H
  H68      1.0000 0.99888  0.06871  0.34419  Biso   1.000  H
  H69      1.0000 0.87953  0.05108  0.35380  Biso   1.000  H
  C74      1.0000 0.11160  0.93481  0.47081  Biso   1.000  C
  H70      1.0000 0.14234  0.97157  0.39141  Biso   1.000  H
  H71      1.0000 0.84529  0.90449  0.41011  Biso   1.000  H
  C75      1.0000 0.93971  0.89574  0.48167  Biso   1.000  C
  C76      1.0000 0.03803  0.90607  0.50636  Biso   1.000  C
  N15      1.0000 0.21820  0.94698  0.49507  Biso   1.000  N
  N16      1.0000 0.85887  0.86411  0.51752  Biso   1.000  N
  H72      1.0000 0.05403  0.89432  0.54492  Biso   1.000  H
  O13      1.0000 0.23960  0.92657  0.54384  Biso   1.000  O
  O14      1.0000 0.28041  0.97761  0.46534  Biso   1.000  O
  O15      1.0000 0.78358  0.83605  0.49304  Biso   1.000  O
  O16      1.0000 0.87232  0.86663  0.56973  Biso   1.000  O
  C77      1.0000 0.69738  0.53857  0.73392  Biso   1.000  C
  C78      1.0000 0.61259  0.50134  0.75723  Biso   1.000  C
  H73      1.0000 0.74676  0.52001  0.70880  Biso   1.000  H
  C79      1.0000 0.69540  0.60613  0.75404  Biso   1.000  C
  C80      1.0000 0.55920  0.54697  0.79096  Biso   1.000  C
  H74      1.0000 0.59611  0.45393  0.75068  Biso   1.000  H
  N17      1.0000 0.61029  0.61079  0.78877  Biso   1.000  N
  C81      1.0000 0.77259  0.66544  0.74659  Biso   1.000  C
  C82      1.0000 0.46368  0.53637  0.82728  Biso   1.000  C
  H75      1.0000 0.59129  0.64850  0.80682  Biso   1.000  H
  C83      1.0000 0.86357  0.63870  0.71018  Biso   1.000  C
  C84      1.0000 0.81807  0.68779  0.80635  Biso   1.000  C
  C85      1.0000 0.72408  0.72911  0.71647  Biso   1.000  C
  C86      1.0000 0.36777  0.57487  0.80380  Biso   1.000  C
  C87      1.0000 0.48958  0.55866  0.88993  Biso   1.000  C
  C88      1.0000 0.43833  0.45676  0.82914  Biso   1.000  C
  H76      1.0000 0.83680  0.62501  0.67231  Biso   1.000  H
  H77      1.0000 0.91503  0.67572  0.70631  Biso   1.000  H
  H78      1.0000 0.89629  0.59863  0.72910  Biso   1.000  H
  H79      1.0000 0.85357  0.64819  0.82448  Biso   1.000  H
  H80      1.0000 0.86753  0.72591  0.80161  Biso   1.000  H
  H81      1.0000 0.76174  0.70331  0.83039  Biso   1.000  H
  C89      1.0000 0.75274  0.76499  0.66839  Biso   1.000  C
  N18      1.0000 0.64433  0.76740  0.74034  Biso   1.000  N
  C90      1.0000 0.27329  0.55058  0.78235  Biso   1.000  C
  N19      1.0000 0.36063  0.64724  0.80501  Biso   1.000  N
  C91      1.0000 0.41348  0.58756  0.92491  Biso   1.000  C
  C92      1.0000 0.58959  0.54770  0.91392  Biso   1.000  C
  H82      1.0000 0.42060  0.44029  0.79049  Biso   1.000  H
  H83      1.0000 0.49888  0.43132  0.84422  Biso   1.000  H
  H84      1.0000 0.37953  0.44889  0.85378  Biso   1.000  H
  H85      1.0000 0.80461  0.75119  0.64289  Biso   1.000  H
  C93      1.0000 0.69086  0.82645  0.66352  Biso   1.000  C
  C94      1.0000 0.62478  0.82771  0.70859  Biso   1.000  C
  H86      1.0000 0.61113  0.75528  0.77102  Biso   1.000  H
  C95      1.0000 0.20838  0.60938  0.77046  Biso   1.000  C
  H87      1.0000 0.25498  0.50328  0.77662  Biso   1.000  H
  C96      1.0000 0.26288  0.66917  0.78532  Biso   1.000  C
  H88      1.0000 0.41081  0.67520  0.81660  Biso   1.000  H
  H89      1.0000 0.34528  0.59548  0.91009  Biso   1.000  H
  C97      1.0000 0.43970  0.60429  0.98169  Biso   1.000  C
  C98      1.0000 0.61159  0.56516  0.97084  Biso   1.000  C
  H90      1.0000 0.64233  0.52840  0.89139  Biso   1.000  H
  H91      1.0000 0.69470  0.86049  0.63440  Biso   1.000  H
  C99      1.0000 0.54598  0.88252  0.72681  Biso   1.000  C
  H92      1.0000 0.13959  0.60780  0.75499  Biso   1.000  H
  C100     1.0000 0.22888  0.74537  0.78769  Biso   1.000  C
  C101     1.0000 0.53802  0.59391  0.00634  Biso   1.000  C
  N20      1.0000 0.35887  0.63592  0.01750  Biso   1.000  N
  N21      1.0000 0.71819  0.55305  0.99505  Biso   1.000  N
  C102     1.0000 0.57097  0.90853  0.78860  Biso   1.000  C
  C103     1.0000 0.55502  0.94719  0.68662  Biso   1.000  C
  C104     1.0000 0.43427  0.85530  0.72272  Biso   1.000  C
  C105     1.0000 0.29363  0.79247  0.74995  Biso   1.000  C
  C106     1.0000 0.11288  0.75041  0.76774  Biso   1.000  C
  C107     1.0000 0.23852  0.77139  0.85068  Biso   1.000  C
  H93      1.0000 0.55403  0.60571  0.04490  Biso   1.000  H
  O17      1.0000 0.28357  0.66392  0.99307  Biso   1.000  O
  O18      1.0000 0.37232  0.63335  0.06976  Biso   1.000  O
  O19      1.0000 0.78040  0.52237  0.96532  Biso   1.000  O
  O20      1.0000 0.73960  0.57345  0.04386  Biso   1.000  O
  C108     1.0000 0.66707  0.89610  0.81699  Biso   1.000  C
  C109     1.0000 0.49663  0.94871  0.81699  Biso   1.000  C
  H94      1.0000 0.54099  0.93303  0.64698  Biso   1.000  H
  H95      1.0000 0.50448  0.98248  0.69752  Biso   1.000  H
  H96      1.0000 0.62520  0.96649  0.69028  Biso   1.000  H
  N22      1.0000 0.39785  0.80700  0.76180  Biso   1.000  N
  C110     1.0000 0.35251  0.87145  0.68576  Biso   1.000  C
  C111     1.0000 0.26447  0.83196  0.70256  Biso   1.000  C
  H97      1.0000 0.07087  0.72072  0.79178  Biso   1.000  H
  H98      1.0000 0.08940  0.79860  0.77080  Biso   1.000  H
  H99      1.0000 0.10550  0.73509  0.72802  Biso   1.000  H
  H100     1.0000 0.31080  0.76771  0.86429  Biso   1.000  H
  H101     1.0000 0.21607  0.81990  0.85249  Biso   1.000  H
  H102     1.0000 0.19463  0.74291  0.87472  Biso   1.000  H
  H103     1.0000 0.71872  0.86951  0.79902  Biso   1.000  H
  C112     1.0000 0.68606  0.92327  0.87183  Biso   1.000  C
  C113     1.0000 0.51998  0.97477  0.87127  Biso   1.000  C
  H104     1.0000 0.43109  0.95789  0.79911  Biso   1.000  H
  H105     1.0000 0.43528  0.78838  0.78980  Biso   1.000  H
  H106     1.0000 0.35430  0.90308  0.65478  Biso   1.000  H
  H107     1.0000 0.19782  0.83259  0.68442  Biso   1.000  H
  C114     1.0000 0.61393  0.96292  0.90048  Biso   1.000  C
  N23      1.0000 0.78861  0.90969  0.90074  Biso   1.000  N
  N24      1.0000 0.43927  0.01673  0.90061  Biso   1.000  N
  H108     1.0000 0.62782  0.98080  0.93771  Biso   1.000  H
  O21      1.0000 0.80701  0.93785  0.94753  Biso   1.000  O
  O22      1.0000 0.85037  0.87103  0.87717  Biso   1.000  O
  O23      1.0000 0.35551  0.02491  0.87610  Biso   1.000  O
  O24      1.0000 0.46081  0.04107  0.94766  Biso   1.000  O
  C115     1.0000 0.30261  0.46143  0.26608  Biso   1.000  C
  C116     1.0000 0.30458  0.39387  0.24596  Biso   1.000  C
  C117     1.0000 0.38740  0.49866  0.24277  Biso   1.000  C
  H109     1.0000 0.25322  0.47999  0.29120  Biso   1.000  H
  C118     1.0000 0.22740  0.33456  0.25342  Biso   1.000  C
  N25      1.0000 0.38970  0.38921  0.21124  Biso   1.000  N
  C119     1.0000 0.44079  0.45303  0.20904  Biso   1.000  C
  H110     1.0000 0.40388  0.54607  0.24928  Biso   1.000  H
  C120     1.0000 0.27591  0.27089  0.28353  Biso   1.000  C
  C121     1.0000 0.13642  0.36130  0.28982  Biso   1.000  C
  C122     1.0000 0.18192  0.31221  0.19366  Biso   1.000  C
  H111     1.0000 0.40870  0.35150  0.19319  Biso   1.000  H
  C123     1.0000 0.53631  0.46363  0.17272  Biso   1.000  C
  C124     1.0000 0.24733  0.23501  0.33161  Biso   1.000  C
  N26      1.0000 0.35566  0.23260  0.25962  Biso   1.000  N
  H112     1.0000 0.16319  0.37499  0.32769  Biso   1.000  H
  H113     1.0000 0.08503  0.32428  0.29370  Biso   1.000  H
  H114     1.0000 0.10370  0.40137  0.27091  Biso   1.000  H
  H115     1.0000 0.14642  0.35181  0.17552  Biso   1.000  H
  H116     1.0000 0.13253  0.27409  0.19840  Biso   1.000  H
  H117     1.0000 0.23833  0.29669  0.16962  Biso   1.000  H
  C125     1.0000 0.63222  0.42513  0.19620  Biso   1.000  C
  C126     1.0000 0.51040  0.44134  0.11008  Biso   1.000  C
  C127     1.0000 0.56173  0.54324  0.17087  Biso   1.000  C
  H118     1.0000 0.19538  0.24881  0.35712  Biso   1.000  H
  C128     1.0000 0.30912  0.17355  0.33648  Biso   1.000  C
  C129     1.0000 0.37521  0.17229  0.29141  Biso   1.000  C
  H119     1.0000 0.38893  0.24472  0.22899  Biso   1.000  H
  C130     1.0000 0.72669  0.44942  0.21766  Biso   1.000  C
  N27      1.0000 0.63936  0.35276  0.19495  Biso   1.000  N
  C131     1.0000 0.58650  0.41244  0.07509  Biso   1.000  C
  C132     1.0000 0.41039  0.45230  0.08608  Biso   1.000  C
  H120     1.0000 0.57938  0.55971  0.20951  Biso   1.000  H
  H121     1.0000 0.50111  0.56868  0.15579  Biso   1.000  H
  H122     1.0000 0.62054  0.55111  0.14618  Biso   1.000  H
  H123     1.0000 0.30528  0.13951  0.36560  Biso   1.000  H
  C133     1.0000 0.45401  0.11748  0.27319  Biso   1.000  C
  C134     1.0000 0.79161  0.39062  0.22955  Biso   1.000  C
  H124     1.0000 0.74501  0.49672  0.22339  Biso   1.000  H
  C135     1.0000 0.73710  0.33083  0.21468  Biso   1.000  C
  H125     1.0000 0.58918  0.32480  0.18341  Biso   1.000  H
  H126     1.0000 0.65471  0.40452  0.08991  Biso   1.000  H
  C136     1.0000 0.56029  0.39571  0.01831  Biso   1.000  C
  C137     1.0000 0.38840  0.43484  0.02917  Biso   1.000  C
  H127     1.0000 0.35774  0.47160  0.10861  Biso   1.000  H
  C138     1.0000 0.42901  0.09147  0.21141  Biso   1.000  C
  C139     1.0000 0.44497  0.05281  0.31339  Biso   1.000  C
  C140     1.0000 0.56571  0.14470  0.27724  Biso   1.000  C
  H128     1.0000 0.86039  0.39220  0.24501  Biso   1.000  H
  C141     1.0000 0.77111  0.25463  0.21227  Biso   1.000  C
  C142     1.0000 0.46196  0.40609  0.99367  Biso   1.000  C
  N28      1.0000 0.64112  0.36408  0.98251  Biso   1.000  N
  N29      1.0000 0.28179  0.44695  0.00491  Biso   1.000  N
  C143     1.0000 0.33292  0.10390  0.18302  Biso   1.000  C
  C144     1.0000 0.50343  0.05129  0.18302  Biso   1.000  C
  H129     1.0000 0.45899  0.06697  0.35298  Biso   1.000  H
  H130     1.0000 0.49551  0.01752  0.30249  Biso   1.000  H
  H131     1.0000 0.37478  0.03351  0.30968  Biso   1.000  H
  C145     1.0000 0.64748  0.12855  0.31425  Biso   1.000  C
  N30      1.0000 0.60214  0.19300  0.23821  Biso   1.000  N
  C146     1.0000 0.70643  0.20753  0.25005  Biso   1.000  C
  C147     1.0000 0.88711  0.24959  0.23226  Biso   1.000  C
  C148     1.0000 0.76147  0.22861  0.14933  Biso   1.000  C
  H132     1.0000 0.44604  0.39429  0.95511  Biso   1.000  H
  O25      1.0000 0.71641  0.33608  0.00694  Biso   1.000  O
  O26      1.0000 0.62767  0.36665  0.93025  Biso   1.000  O
  O27      1.0000 0.21958  0.47763  0.03464  Biso   1.000  O
  O28      1.0000 0.26039  0.42655  0.95614  Biso   1.000  O
  H133     1.0000 0.28127  0.13049  0.20098  Biso   1.000  H
  C149     1.0000 0.31392  0.07673  0.12813  Biso   1.000  C
  C150     1.0000 0.48001  0.02523  0.12873  Biso   1.000  C
  H134     1.0000 0.56890  0.04211  0.20090  Biso   1.000  H
  H135     1.0000 0.64569  0.09692  0.34518  Biso   1.000  H
  C151     1.0000 0.73551  0.16804  0.29745  Biso   1.000  C
  H136     1.0000 0.56470  0.21162  0.21020  Biso   1.000  H
  H137     1.0000 0.92912  0.27928  0.20822  Biso   1.000  H
  H138     1.0000 0.91059  0.20140  0.22920  Biso   1.000  H
  H139     1.0000 0.89449  0.26491  0.27198  Biso   1.000  H
  H140     1.0000 0.68918  0.23229  0.13571  Biso   1.000  H
  H141     1.0000 0.78392  0.18010  0.14752  Biso   1.000  H
  H142     1.0000 0.80543  0.25709  0.12529  Biso   1.000  H
  C152     1.0000 0.38614  0.03708  0.09948  Biso   1.000  C
  N31      1.0000 0.21138  0.09031  0.09922  Biso   1.000  N
  N32      1.0000 0.56072  0.98327  0.09939  Biso   1.000  N
  H143     1.0000 0.80217  0.16741  0.31558  Biso   1.000  H
  H144     1.0000 0.37217  0.01920  0.06230  Biso   1.000  H
  O29      1.0000 0.19298  0.06215  0.05248  Biso   1.000  O
  O30      1.0000 0.14962  0.12897  0.12283  Biso   1.000  O
  O31      1.0000 0.64447  0.97509  0.12391  Biso   1.000  O
  O32      1.0000 0.53917  0.95893  0.05235  Biso   1.000  O
