data_image0
_cell_length_a       9.658
_cell_length_b       9.935
_cell_length_c       12.355
_cell_angle_alpha    90.13
_cell_angle_beta     104.7
_cell_angle_gamma    109.77

_symmetry_space_group_name_H-M    "P 1"
_symmetry_int_tables_number       1

loop_
  _symmetry_equiv_pos_as_xyz
  'x, y, z'

loop_
  _atom_site_label
  _atom_site_occupancy
  _atom_site_fract_x
  _atom_site_fract_y
  _atom_site_fract_z
  _atom_site_thermal_displace_type
  _atom_site_B_iso_or_equiv
  _atom_site_type_symbol
  C1       1.0000 0.53960  0.41046  0.37833  Biso   1.000  C
  C2       1.0000 0.53884  0.40496  0.26643  Biso   1.000  C
  C3       1.0000 0.66774  0.40846  0.46072  Biso   1.000  C
  H1       1.0000 0.45493  0.41543  0.39859  Biso   1.000  H
  N1       1.0000 0.40761  0.40915  0.18269  Biso   1.000  N
  C4       1.0000 0.66591  0.39864  0.23692  Biso   1.000  C
  C5       1.0000 0.79320  0.39954  0.43096  Biso   1.000  C
  H2       1.0000 0.66861  0.41307  0.53596  Biso   1.000  H
  C6       1.0000 0.33106  0.29563  0.09853  Biso   1.000  C
  C7       1.0000 0.40107  0.55121  0.16209  Biso   1.000  C
  C8       1.0000 0.79200  0.39475  0.31788  Biso   1.000  C
  H3       1.0000 0.66613  0.39714  0.16167  Biso   1.000  H
  H4       1.0000 0.87792  0.39673  0.48602  Biso   1.000  H
  N2       1.0000 0.36021  0.17487  0.12098  Biso   1.000  N
  C9       1.0000 0.22785  0.30755  0.00034  Biso   1.000  C
  H5       1.0000 0.30918  0.54221  0.10492  Biso   1.000  H
  H6       1.0000 0.48820  0.60678  0.13746  Biso   1.000  H
  H7       1.0000 0.40151  0.59824  0.23011  Biso   1.000  H
  N3       1.0000 0.92272  0.38953  0.28694  Biso   1.000  N
  C10      1.0000 0.28725  0.05933  0.04557  Biso   1.000  C
  C11      1.0000 0.14966  0.18446  0.92618  Biso   1.000  C
  H8       1.0000 0.21205  0.39381  0.98520  Biso   1.000  H
  C12      1.0000 0.96326  0.26832  0.30317  Biso   1.000  C
  C13      1.0000 0.01086  0.51165  0.24003  Biso   1.000  C
  N4       1.0000 0.33237  0.94229  0.06953  Biso   1.000  N
  C14      1.0000 0.17556  0.05880  0.94703  Biso   1.000  C
  H9       1.0000 0.07796  0.18760  0.86078  Biso   1.000  H
  N5       1.0000 0.85803  0.15273  0.32587  Biso   1.000  N
  C15      1.0000 0.10472  0.26788  0.29350  Biso   1.000  C
  H10      1.0000 0.94691  0.52893  0.17218  Biso   1.000  H
  H11      1.0000 0.09450  0.49236  0.22330  Biso   1.000  H
  H12      1.0000 0.04982  0.59494  0.29341  Biso   1.000  H
  C16      1.0000 0.26219  0.81206  0.99294  Biso   1.000  C
  C17      1.0000 0.40174  0.92558  0.18437  Biso   1.000  C
  H13      1.0000 0.12137  0.97590  0.89768  Biso   1.000  H
  C18      1.0000 0.88888  0.03140  0.34201  Biso   1.000  C
  C19      1.0000 0.13668  0.14303  0.31494  Biso   1.000  C
  H14      1.0000 0.17402  0.34788  0.27357  Biso   1.000  H
  H15      1.0000 0.21946  0.83471  0.91929  Biso   1.000  H
  H16      1.0000 0.33788  0.77092  0.98983  Biso   1.000  H
  H17      1.0000 0.18261  0.74469  0.01900  Biso   1.000  H
  C20      1.0000 0.55229  0.93395  0.21657  Biso   1.000  C
  C21      1.0000 0.31437  0.89389  0.26020  Biso   1.000  C
  N6       1.0000 0.77311  0.91581  0.36126  Biso   1.000  N
  C22      1.0000 0.03122  0.02362  0.34133  Biso   1.000  C
  H18      1.0000 0.23053  0.13970  0.31132  Biso   1.000  H
  C23      1.0000 0.61777  0.91138  0.32637  Biso   1.000  C
  H19      1.0000 0.61030  0.95465  0.16512  Biso   1.000  H
  C24      1.0000 0.37849  0.87118  0.36883  Biso   1.000  C
  H20      1.0000 0.21273  0.88784  0.23809  Biso   1.000  H
  C25      1.0000 0.79841  0.78206  0.38766  Biso   1.000  C
  H21      1.0000 0.05359  0.94076  0.35807  Biso   1.000  H
  C26      1.0000 0.53101  0.88036  0.40237  Biso   1.000  C
  H22      1.0000 0.31972  0.84958  0.41986  Biso   1.000  H
  H23      1.0000 0.90618  0.79942  0.40952  Biso   1.000  H
  H24      1.0000 0.75010  0.71337  0.32267  Biso   1.000  H
  H25      1.0000 0.75569  0.74528  0.44827  Biso   1.000  H
  H26      1.0000 0.57396  0.86556  0.47560  Biso   1.000  H
  C27      1.0000 0.46025  0.58946  0.62172  Biso   1.000  C
  C28      1.0000 0.33211  0.59146  0.53933  Biso   1.000  C
  C29      1.0000 0.46100  0.59496  0.73362  Biso   1.000  C
  H27      1.0000 0.54489  0.58448  0.60137  Biso   1.000  H
  C30      1.0000 0.20661  0.60037  0.56900  Biso   1.000  C
  H28      1.0000 0.33121  0.58685  0.46400  Biso   1.000  H
  N7       1.0000 0.59231  0.59077  0.81727  Biso   1.000  N
  C31      1.0000 0.33394  0.60129  0.76313  Biso   1.000  C
  C32      1.0000 0.20782  0.60517  0.68208  Biso   1.000  C
  H29      1.0000 0.12193  0.60320  0.51402  Biso   1.000  H
  C33      1.0000 0.66889  0.70430  0.90151  Biso   1.000  C
  C34      1.0000 0.59875  0.44871  0.83787  Biso   1.000  C
  H30      1.0000 0.33383  0.60289  0.83829  Biso   1.000  H
  N8       1.0000 0.07723  0.61039  0.71310  Biso   1.000  N
  N9       1.0000 0.63971  0.82505  0.87898  Biso   1.000  N
  C35      1.0000 0.77200  0.69238  0.99971  Biso   1.000  C
  H31      1.0000 0.69067  0.45771  0.89512  Biso   1.000  H
  H32      1.0000 0.51172  0.39314  0.86250  Biso   1.000  H
  H33      1.0000 0.59844  0.40169  0.76994  Biso   1.000  H
  C36      1.0000 0.03656  0.73159  0.69679  Biso   1.000  C
  C37      1.0000 0.98899  0.48828  0.76002  Biso   1.000  C
  C38      1.0000 0.71257  0.94058  0.95439  Biso   1.000  C
  C39      1.0000 0.85015  0.81545  0.07377  Biso   1.000  C
  H34      1.0000 0.78787  0.60611  0.01476  Biso   1.000  H
  N10      1.0000 0.14189  0.84719  0.67409  Biso   1.000  N
  C40      1.0000 0.89510  0.73204  0.70646  Biso   1.000  C
  H35      1.0000 0.05301  0.47099  0.82778  Biso   1.000  H
  H36      1.0000 0.90532  0.50756  0.77666  Biso   1.000  H
  H37      1.0000 0.95002  0.40498  0.70663  Biso   1.000  H
  C41      1.0000 0.82439  0.94113  0.05301  Biso   1.000  C
  N11      1.0000 0.66748  0.05764  0.93052  Biso   1.000  N
  H38      1.0000 0.92196  0.81231  0.13918  Biso   1.000  H
  C42      1.0000 0.11107  0.96852  0.65804  Biso   1.000  C
  C43      1.0000 0.86331  0.85700  0.68511  Biso   1.000  C
  H39      1.0000 0.82579  0.65204  0.72639  Biso   1.000  H
  H40      1.0000 0.87844  0.02402  0.10228  Biso   1.000  H
  C44      1.0000 0.59808  0.07433  0.81559  Biso   1.000  C
  C45      1.0000 0.73776  0.18787  0.00711  Biso   1.000  C
  C46      1.0000 0.96863  0.97631  0.65871  Biso   1.000  C
  N12      1.0000 0.22671  0.08411  0.63870  Biso   1.000  N
  H41      1.0000 0.76931  0.86023  0.68872  Biso   1.000  H
  C47      1.0000 0.44752  0.06596  0.78339  Biso   1.000  C
  C48      1.0000 0.68544  0.10602  0.73975  Biso   1.000  C
  H42      1.0000 0.81732  0.25523  0.98096  Biso   1.000  H
  H43      1.0000 0.78036  0.16520  0.08067  Biso   1.000  H
  H44      1.0000 0.66207  0.22901  0.01022  Biso   1.000  H
  H45      1.0000 0.94623  0.05915  0.64189  Biso   1.000  H
  C49      1.0000 0.20141  0.21786  0.61230  Biso   1.000  C
  C50      1.0000 0.38215  0.08853  0.67359  Biso   1.000  C
  H46      1.0000 0.38955  0.04528  0.83492  Biso   1.000  H
  C51      1.0000 0.62146  0.12875  0.63122  Biso   1.000  C
  H47      1.0000 0.78709  0.11207  0.76187  Biso   1.000  H
  H48      1.0000 0.09367  0.20051  0.59053  Biso   1.000  H
  H49      1.0000 0.24972  0.28654  0.67729  Biso   1.000  H
  H50      1.0000 0.24413  0.25464  0.55168  Biso   1.000  H
  C52      1.0000 0.46881  0.11956  0.59759  Biso   1.000  C
  H51      1.0000 0.68010  0.15034  0.58010  Biso   1.000  H
  H52      1.0000 0.42586  0.13435  0.52436  Biso   1.000  H
