data_image0
_cell_length_a       13.735
_cell_length_b       16.385
_cell_length_c       16.825
_cell_angle_alpha    103.44
_cell_angle_beta     107.06
_cell_angle_gamma    114.03

_symmetry_space_group_name_H-M    "P 1"
_symmetry_int_tables_number       1

loop_
  _symmetry_equiv_pos_as_xyz
  'x, y, z'

loop_
  _atom_site_label
  _atom_site_occupancy
  _atom_site_fract_x
  _atom_site_fract_y
  _atom_site_fract_z
  _atom_site_thermal_displace_type
  _atom_site_B_iso_or_equiv
  _atom_site_type_symbol
  C1       1.0000 0.59700  0.31181  0.38925  Biso   1.000  C
  C2       1.0000 0.69882  0.33992  0.37607  Biso   1.000  C
  H1       1.0000 0.52946  0.30759  0.34741  Biso   1.000  H
  C3       1.0000 0.59348  0.28939  0.46445  Biso   1.000  C
  C4       1.0000 0.70325  0.36278  0.29510  Biso   1.000  C
  C5       1.0000 0.79782  0.34705  0.43850  Biso   1.000  C
  H2       1.0000 0.52360  0.26850  0.47328  Biso   1.000  H
  C6       1.0000 0.69297  0.29816  0.52464  Biso   1.000  C
  C7       1.0000 0.61779  0.29220  0.20821  Biso   1.000  C
  C8       1.0000 0.78596  0.45767  0.31147  Biso   1.000  C
  C9       1.0000 0.79580  0.32639  0.51391  Biso   1.000  C
  H3       1.0000 0.86765  0.36619  0.42947  Biso   1.000  H
  N1       1.0000 0.69003  0.27522  0.60419  Biso   1.000  N
  N2       1.0000 0.60920  0.30489  0.12846  Biso   1.000  N
  C10      1.0000 0.51430  0.20091  0.18444  Biso   1.000  C
  N3       1.0000 0.80351  0.49075  0.24591  Biso   1.000  N
  C11      1.0000 0.85198  0.53959  0.40046  Biso   1.000  C
  H4       1.0000 0.86335  0.33166  0.55677  Biso   1.000  H
  O1       1.0000 0.59711  0.24313  0.61003  Biso   1.000  O
  O2       1.0000 0.78261  0.29068  0.66118  Biso   1.000  O
  H5       1.0000 0.66301  0.35363  0.12357  Biso   1.000  H
  C12      1.0000 0.50344  0.22962  0.05788  Biso   1.000  C
  C13      1.0000 0.44305  0.16444  0.09361  Biso   1.000  C
  H6       1.0000 0.49821  0.17121  0.22479  Biso   1.000  H
  C14      1.0000 0.87399  0.59048  0.29041  Biso   1.000  C
  H7       1.0000 0.85841  0.53580  0.45712  Biso   1.000  H
  C15      1.0000 0.90201  0.62131  0.38626  Biso   1.000  C
  C16      1.0000 0.46267  0.21428  0.96556  Biso   1.000  C
  H8       1.0000 0.36730  0.10653  0.06019  Biso   1.000  H
  C17      1.0000 0.91550  0.65602  0.25026  Biso   1.000  C
  H9       1.0000 0.94703  0.68661  0.43055  Biso   1.000  H
  C18      1.0000 0.53356  0.26522  0.92765  Biso   1.000  C
  C19      1.0000 0.33493  0.14129  0.90734  Biso   1.000  C
  C20      1.0000 0.90458  0.62952  0.16147  Biso   1.000  C
  C21      1.0000 0.96034  0.76019  0.30393  Biso   1.000  C
  N4       1.0000 0.64218  0.34818  0.97554  Biso   1.000  N
  C22      1.0000 0.50212  0.23165  0.82963  Biso   1.000  C
  C23      1.0000 0.24876  0.15972  0.92181  Biso   1.000  C
  C24      1.0000 0.29641  0.05294  0.83791  Biso   1.000  C
  N5       1.0000 0.83933  0.53616  0.09497  Biso   1.000  N
  C25      1.0000 0.96044  0.69393  0.12289  Biso   1.000  C
  C26      1.0000 0.88228  0.78700  0.32356  Biso   1.000  C
  C27      1.0000 0.07877  0.83413  0.33640  Biso   1.000  C
  C28      1.0000 0.68081  0.37046  0.91189  Biso   1.000  C
  C29      1.0000 0.59635  0.29572  0.82127  Biso   1.000  C
  H10      1.0000 0.43060  0.17651  0.78194  Biso   1.000  H
  O3       1.0000 0.27747  0.23932  0.99558  Biso   1.000  O
  C30      1.0000 0.13016  0.09102  0.86780  Biso   1.000  C
  C31      1.0000 0.17576  0.98191  0.78316  Biso   1.000  C
  H11      1.0000 0.35404  0.04033  0.82732  Biso   1.000  H
  H12      1.0000 0.79798  0.48310  0.10190  Biso   1.000  H
  C32      1.0000 0.84834  0.53813  0.01590  Biso   1.000  C
  C33      1.0000 0.92659  0.63673  0.03451  Biso   1.000  C
  H13      1.0000 0.01112  0.76281  0.15278  Biso   1.000  H
  O4       1.0000 0.76915  0.72119  0.30862  Biso   1.000  O
  C34      1.0000 0.92244  0.88468  0.37336  Biso   1.000  C
  C35      1.0000 0.11943  0.93099  0.38585  Biso   1.000  C
  H14      1.0000 0.13253  0.81691  0.32410  Biso   1.000  H
  C36      1.0000 0.77967  0.45844  0.93051  Biso   1.000  C
  H15      1.0000 0.60486  0.29214  0.76672  Biso   1.000  H
  C37      1.0000 0.34764  0.33693  0.00217  Biso   1.000  C
  H16      1.0000 0.07202  0.10344  0.87765  Biso   1.000  H
  C38      1.0000 0.09447  0.00395  0.79946  Biso   1.000  C
  C39      1.0000 0.14090  0.88611  0.71115  Biso   1.000  C
  H17      1.0000 0.95110  0.65943  0.99280  Biso   1.000  H
  C40      1.0000 0.68946  0.66986  0.21602  Biso   1.000  C
  H18      1.0000 0.86962  0.90279  0.38647  Biso   1.000  H
  C41      1.0000 0.03832  0.95400  0.40318  Biso   1.000  C
  C42      1.0000 0.24921  0.00937  0.41901  Biso   1.000  C
  C43      1.0000 0.80910  0.47723  0.85510  Biso   1.000  C
  C44      1.0000 0.41883  0.40492  0.10006  Biso   1.000  C
  H19      1.0000 0.40078  0.33780  0.97303  Biso   1.000  H
  H20      1.0000 0.29485  0.35749  0.97052  Biso   1.000  H
  H21      1.0000 0.01234  0.95850  0.76305  Biso   1.000  H
  C45      1.0000 0.19410  0.83279  0.75823  Biso   1.000  C
  C46      1.0000 0.00376  0.81605  0.65864  Biso   1.000  C
  C47      1.0000 0.18708  0.90443  0.64084  Biso   1.000  C
  C48      1.0000 0.58831  0.57344  0.20509  Biso   1.000  C
  H22      1.0000 0.65727  0.70900  0.19469  Biso   1.000  H
  H23      1.0000 0.73027  0.65595  0.17961  Biso   1.000  H
  H24      1.0000 0.06446  0.02009  0.43680  Biso   1.000  H
  C49      1.0000 0.32403  0.95963  0.40291  Biso   1.000  C
  C50      1.0000 0.33374  0.98822  0.47940  Biso   1.000  C
  C51      1.0000 0.30668  0.07398  0.51710  Biso   1.000  C
  C52      1.0000 0.25216  0.06605  0.35889  Biso   1.000  C
  C53      1.0000 0.27279  0.11200  0.47838  Biso   1.000  C
  C54      1.0000 0.27727  0.02135  0.34007  Biso   1.000  C
  C55      1.0000 0.72892  0.48255  0.78425  Biso   1.000  C
  C56      1.0000 0.91626  0.49489  0.85592  Biso   1.000  C
  H25      1.0000 0.36529  0.41020  0.12690  Biso   1.000  H
  H26      1.0000 0.46271  0.37880  0.13308  Biso   1.000  H
  C57      1.0000 0.50643  0.50601  0.11053  Biso   1.000  C
  H27      1.0000 0.28042  0.87529  0.79186  Biso   1.000  H
  H28      1.0000 0.16058  0.81712  0.80042  Biso   1.000  H
  H29      1.0000 0.17486  0.77241  0.71217  Biso   1.000  H
  H30      1.0000 0.98572  0.75497  0.61421  Biso   1.000  H
  H31      1.0000 0.97130  0.80180  0.70164  Biso   1.000  H
  H32      1.0000 0.96812  0.84708  0.62692  Biso   1.000  H
  H33      1.0000 0.27301  0.94949  0.67175  Biso   1.000  H
  H34      1.0000 0.16915  0.84252  0.59805  Biso   1.000  H
  H35      1.0000 0.14868  0.93314  0.60762  Biso   1.000  H
  H36      1.0000 0.54309  0.58879  0.23620  Biso   1.000  H
  H37      1.0000 0.62344  0.54051  0.23552  Biso   1.000  H
  H38      1.0000 0.30971  0.90950  0.42757  Biso   1.000  H
  H39      1.0000 0.29975  0.92952  0.33756  Biso   1.000  H
  H40      1.0000 0.33204  0.93123  0.44271  Biso   1.000  H
  H41      1.0000 0.40848  0.00928  0.43361  Biso   1.000  H
  H42      1.0000 0.30961  0.97497  0.52641  Biso   1.000  H
  H43      1.0000 0.41424  0.04480  0.50820  Biso   1.000  H
  H44      1.0000 0.26606  0.10978  0.52770  Biso   1.000  H
  H45      1.0000 0.30169  0.03432  0.55297  Biso   1.000  H
  H46      1.0000 0.39002  0.12052  0.53537  Biso   1.000  H
  H47      1.0000 0.26137  0.10938  0.53279  Biso   1.000  H
  H48      1.0000 0.33451  0.11476  0.37675  Biso   1.000  H
  H49      1.0000 0.21639  0.02087  0.29530  Biso   1.000  H
  H50      1.0000 0.20765  0.09895  0.36602  Biso   1.000  H
  H51      1.0000 0.35126  0.08315  0.36255  Biso   1.000  H
  H52      1.0000 0.21269  0.02146  0.29557  Biso   1.000  H
  H53      1.0000 0.35420  0.16270  0.49638  Biso   1.000  H
  H54      1.0000 0.21721  0.12709  0.44271  Biso   1.000  H
  H55      1.0000 0.28606  0.96715  0.31120  Biso   1.000  H
  H56      1.0000 0.65375  0.46896  0.78187  Biso   1.000  H
  C58      1.0000 0.75942  0.50751  0.71829  Biso   1.000  C
  C59      1.0000 0.94856  0.52026  0.79016  Biso   1.000  C
  H57      1.0000 0.96968  0.48975  0.90252  Biso   1.000  H
  H58      1.0000 0.46142  0.53444  0.08281  Biso   1.000  H
  H59      1.0000 0.55271  0.49887  0.07676  Biso   1.000  H
  H60      1.0000 0.70611  0.51182  0.67087  Biso   1.000  H
  C60      1.0000 0.86966  0.52634  0.72304  Biso   1.000  C
  H61      1.0000 0.02327  0.53296  0.79186  Biso   1.000  H
  N6       1.0000 0.90259  0.55376  0.65321  Biso   1.000  N
  O5       1.0000 0.82988  0.55717  0.59336  Biso   1.000  O
  O6       1.0000 0.99940  0.57113  0.65721  Biso   1.000  O
  C61      1.0000 0.40301  0.68820  0.61071  Biso   1.000  C
  C62      1.0000 0.30119  0.66010  0.62389  Biso   1.000  C
  H62      1.0000 0.47045  0.69236  0.65256  Biso   1.000  H
  C63      1.0000 0.40653  0.71062  0.53551  Biso   1.000  C
  C64      1.0000 0.29665  0.63717  0.70486  Biso   1.000  C
  C65      1.0000 0.20209  0.65290  0.56146  Biso   1.000  C
  H63      1.0000 0.47641  0.73152  0.52668  Biso   1.000  H
  C66      1.0000 0.30700  0.70179  0.47532  Biso   1.000  C
  C67      1.0000 0.21402  0.54227  0.68849  Biso   1.000  C
  C68      1.0000 0.38219  0.70775  0.79175  Biso   1.000  C
  C69      1.0000 0.20417  0.67356  0.48605  Biso   1.000  C
  H64      1.0000 0.13236  0.63383  0.57049  Biso   1.000  H
  N7       1.0000 0.30995  0.72473  0.39577  Biso   1.000  N
  C70      1.0000 0.14800  0.46036  0.59950  Biso   1.000  C
  N8       1.0000 0.19646  0.50919  0.75405  Biso   1.000  N
  N9       1.0000 0.39081  0.69512  0.87150  Biso   1.000  N
  C71      1.0000 0.48571  0.79911  0.81553  Biso   1.000  C
  H65      1.0000 0.13663  0.66829  0.44319  Biso   1.000  H
  O7       1.0000 0.40286  0.75681  0.38993  Biso   1.000  O
  O8       1.0000 0.21733  0.70933  0.33878  Biso   1.000  O
  H66      1.0000 0.14156  0.46415  0.54285  Biso   1.000  H
  C72      1.0000 0.09800  0.37870  0.61370  Biso   1.000  C
  C73      1.0000 0.12598  0.40946  0.70955  Biso   1.000  C
  H67      1.0000 0.33700  0.64639  0.87639  Biso   1.000  H
  C74      1.0000 0.49657  0.77040  0.94208  Biso   1.000  C
  C75      1.0000 0.55696  0.83558  0.90635  Biso   1.000  C
  H68      1.0000 0.50180  0.82880  0.77517  Biso   1.000  H
  H69      1.0000 0.05298  0.31341  0.56941  Biso   1.000  H
  C76      1.0000 0.08444  0.34399  0.74970  Biso   1.000  C
  C77      1.0000 0.53731  0.78566  0.03440  Biso   1.000  C
  H70      1.0000 0.63271  0.89349  0.93977  Biso   1.000  H
  C78      1.0000 0.09540  0.37043  0.83849  Biso   1.000  C
  C79      1.0000 0.03963  0.23976  0.69603  Biso   1.000  C
  C80      1.0000 0.46641  0.73473  0.07231  Biso   1.000  C
  C81      1.0000 0.66497  0.85866  0.09262  Biso   1.000  C
  N10      1.0000 0.16061  0.46385  0.90499  Biso   1.000  N
  C82      1.0000 0.03957  0.30608  0.87707  Biso   1.000  C
  C83      1.0000 0.11765  0.21301  0.67640  Biso   1.000  C
  C84      1.0000 0.92124  0.16589  0.66356  Biso   1.000  C
  N11      1.0000 0.35782  0.65184  0.02442  Biso   1.000  N
  C85      1.0000 0.49789  0.76837  0.17034  Biso   1.000  C
  C86      1.0000 0.75125  0.84030  0.07815  Biso   1.000  C
  C87      1.0000 0.70360  0.94707  0.16205  Biso   1.000  C
  H71      1.0000 0.20192  0.51685  0.89806  Biso   1.000  H
  C88      1.0000 0.15167  0.46189  0.98407  Biso   1.000  C
  C89      1.0000 0.07338  0.36321  0.96545  Biso   1.000  C
  H72      1.0000 0.98886  0.23714  0.84718  Biso   1.000  H
  O9       1.0000 0.23083  0.27876  0.69135  Biso   1.000  O
  C90      1.0000 0.07754  0.11526  0.62661  Biso   1.000  C
  C91      1.0000 0.88055  0.06895  0.61411  Biso   1.000  C
  H73      1.0000 0.86744  0.18304  0.67586  Biso   1.000  H
  C92      1.0000 0.31920  0.62956  0.08807  Biso   1.000  C
  C93      1.0000 0.40355  0.70423  0.17869  Biso   1.000  C
  H74      1.0000 0.56937  0.82344  0.21802  Biso   1.000  H
  O10      1.0000 0.72254  0.76070  0.00438  Biso   1.000  O
  C94      1.0000 0.86985  0.90900  0.13216  Biso   1.000  C
  H75      1.0000 0.64590  0.95968  0.17265  Biso   1.000  H
  C95      1.0000 0.82422  0.01803  0.21680  Biso   1.000  C
  C96      1.0000 0.22027  0.54158  0.06946  Biso   1.000  C
  H76      1.0000 0.04891  0.34059  0.00716  Biso   1.000  H
  C97      1.0000 0.31055  0.33016  0.78394  Biso   1.000  C
  H77      1.0000 0.13036  0.09716  0.61350  Biso   1.000  H
  C98      1.0000 0.96165  0.04595  0.59678  Biso   1.000  C
  C99      1.0000 0.75072  0.99064  0.58096  Biso   1.000  C
  H78      1.0000 0.39508  0.70788  0.23324  Biso   1.000  H
  C100     1.0000 0.65237  0.66309  0.99779  Biso   1.000  C
  H79      1.0000 0.92799  0.89658  0.12231  Biso   1.000  H
  C101     1.0000 0.90547  0.99607  0.20050  Biso   1.000  C
  C102     1.0000 0.85900  0.11384  0.28881  Biso   1.000  C
  C103     1.0000 0.19088  0.52272  0.14486  Biso   1.000  C
  C104     1.0000 0.41163  0.42658  0.79487  Biso   1.000  C
  H80      1.0000 0.34271  0.29095  0.80527  Biso   1.000  H
  H81      1.0000 0.26974  0.34406  0.82035  Biso   1.000  H
  H82      1.0000 0.93555  0.97993  0.56316  Biso   1.000  H
  C105     1.0000 0.69333  0.92603  0.48286  Biso   1.000  C
  C106     1.0000 0.74782  0.93389  0.64108  Biso   1.000  C
  C107     1.0000 0.72722  0.88801  0.52158  Biso   1.000  C
  C108     1.0000 0.72271  0.97860  0.65989  Biso   1.000  C
  C109     1.0000 0.67598  0.04039  0.59706  Biso   1.000  C
  C110     1.0000 0.66624  0.01173  0.52056  Biso   1.000  C
  C111     1.0000 0.58118  0.59509  0.89990  Biso   1.000  C
  H83      1.0000 0.59919  0.66215  0.02693  Biso   1.000  H
  H84      1.0000 0.70513  0.64245  0.02944  Biso   1.000  H
  H85      1.0000 0.98763  0.04144  0.23691  Biso   1.000  H
  C112     1.0000 0.80588  0.16716  0.24173  Biso   1.000  C
  C113     1.0000 0.99625  0.18397  0.34132  Biso   1.000  C
  C114     1.0000 0.81293  0.09558  0.35912  Biso   1.000  C
  C115     1.0000 0.27109  0.51746  0.21571  Biso   1.000  C
  C116     1.0000 0.08372  0.50506  0.14405  Biso   1.000  C
  C117     1.0000 0.49355  0.49393  0.88944  Biso   1.000  C
  H86      1.0000 0.45681  0.41116  0.76376  Biso   1.000  H
  H87      1.0000 0.37654  0.45943  0.76444  Biso   1.000  H
  H88      1.0000 0.73395  0.89024  0.47226  Biso   1.000  H
  H89      1.0000 0.69829  0.96563  0.44699  Biso   1.000  H
  H90      1.0000 0.60995  0.87943  0.46459  Biso   1.000  H
  H91      1.0000 0.73861  0.89057  0.46717  Biso   1.000  H
  H92      1.0000 0.66550  0.88526  0.62321  Biso   1.000  H
  H93      1.0000 0.78362  0.97914  0.70466  Biso   1.000  H
  H94      1.0000 0.79233  0.90100  0.63394  Biso   1.000  H
  H95      1.0000 0.64872  0.91680  0.63741  Biso   1.000  H
  H96      1.0000 0.78729  0.97849  0.70439  Biso   1.000  H
  H97      1.0000 0.64581  0.83731  0.50358  Biso   1.000  H
  H98      1.0000 0.78276  0.87286  0.55725  Biso   1.000  H
  H99      1.0000 0.71391  0.03280  0.68876  Biso   1.000  H
  H100     1.0000 0.59153  0.99073  0.56635  Biso   1.000  H
  H101     1.0000 0.69027  0.09045  0.57240  Biso   1.000  H
  H102     1.0000 0.70026  0.07050  0.66241  Biso   1.000  H
  H103     1.0000 0.66793  0.06871  0.55725  Biso   1.000  H
  H104     1.0000 0.58569  0.95522  0.49176  Biso   1.000  H
  H105     1.0000 0.69039  0.02504  0.47356  Biso   1.000  H
  H106     1.0000 0.63461  0.58975  0.87306  Biso   1.000  H
  H107     1.0000 0.53727  0.62115  0.86688  Biso   1.000  H
  H108     1.0000 0.71956  0.12466  0.20811  Biso   1.000  H
  H109     1.0000 0.83935  0.18289  0.19955  Biso   1.000  H
  H110     1.0000 0.82511  0.22753  0.28779  Biso   1.000  H
  H111     1.0000 0.01426  0.24498  0.38575  Biso   1.000  H
  H112     1.0000 0.02860  0.19815  0.29832  Biso   1.000  H
  H113     1.0000 0.03186  0.15287  0.37305  Biso   1.000  H
  H114     1.0000 0.72690  0.05046  0.32821  Biso   1.000  H
  H115     1.0000 0.83086  0.15749  0.40192  Biso   1.000  H
  H116     1.0000 0.85133  0.06687  0.39234  Biso   1.000  H
  H117     1.0000 0.34625  0.53105  0.21809  Biso   1.000  H
  C118     1.0000 0.24056  0.49244  0.28168  Biso   1.000  C
  C119     1.0000 0.05145  0.47975  0.20980  Biso   1.000  C
  H118     1.0000 0.03033  0.51026  0.09744  Biso   1.000  H
  H119     1.0000 0.53852  0.46558  0.91715  Biso   1.000  H
  H120     1.0000 0.44727  0.50107  0.92320  Biso   1.000  H
  H121     1.0000 0.29387  0.48812  0.32909  Biso   1.000  H
  C120     1.0000 0.13032  0.47361  0.27692  Biso   1.000  C
  H122     1.0000 0.97667  0.46705  0.20811  Biso   1.000  H
  N12      1.0000 0.09732  0.44619  0.34676  Biso   1.000  N
  O11      1.0000 0.17013  0.44285  0.40660  Biso   1.000  O
  O12      1.0000 0.00058  0.42882  0.34275  Biso   1.000  O
