data_image0
_cell_length_a       24.435
_cell_length_b       30.662
_cell_length_c       16.78
_cell_angle_alpha    90
_cell_angle_beta     105.13
_cell_angle_gamma    90

_symmetry_space_group_name_H-M    "P 1"
_symmetry_int_tables_number       1

loop_
  _symmetry_equiv_pos_as_xyz
  'x, y, z'

loop_
  _atom_site_label
  _atom_site_occupancy
  _atom_site_fract_x
  _atom_site_fract_y
  _atom_site_fract_z
  _atom_site_thermal_displace_type
  _atom_site_B_iso_or_equiv
  _atom_site_type_symbol
  C1       1.0000 0.57149  0.49547  0.63118  Biso   1.000  C
  C2       1.0000 0.56068  0.44593  0.62408  Biso   1.000  C
  H1       1.0000 0.54647  0.50991  0.58518  Biso   1.000  H
  H2       1.0000 0.61011  0.50130  0.63130  Biso   1.000  H
  H3       1.0000 0.56466  0.50600  0.68167  Biso   1.000  H
  C3       1.0000 0.50029  0.43650  0.62871  Biso   1.000  C
  C4       1.0000 0.60353  0.42081  0.69168  Biso   1.000  C
  C5       1.0000 0.56809  0.43255  0.54049  Biso   1.000  C
  H4       1.0000 0.49498  0.44769  0.67970  Biso   1.000  H
  H5       1.0000 0.49390  0.40562  0.62618  Biso   1.000  H
  H6       1.0000 0.47388  0.45039  0.58321  Biso   1.000  H
  C6       1.0000 0.60146  0.37502  0.69310  Biso   1.000  C
  C7       1.0000 0.64541  0.44032  0.75199  Biso   1.000  C
  H7       1.0000 0.54478  0.45069  0.49838  Biso   1.000  H
  H8       1.0000 0.55699  0.40262  0.52993  Biso   1.000  H
  H9       1.0000 0.60707  0.43591  0.54018  Biso   1.000  H
  C8       1.0000 0.64028  0.35047  0.75008  Biso   1.000  C
  H10      1.0000 0.57290  0.36071  0.65433  Biso   1.000  H
  H11      1.0000 0.64717  0.47062  0.75360  Biso   1.000  H
  C9       1.0000 0.68553  0.41677  0.81119  Biso   1.000  C
  C10      1.0000 0.64132  0.30187  0.75063  Biso   1.000  C
  C11      1.0000 0.68310  0.37118  0.80910  Biso   1.000  C
  H12      1.0000 0.71331  0.43119  0.85114  Biso   1.000  H
  C12      1.0000 0.60639  0.28002  0.79162  Biso   1.000  C
  C13      1.0000 0.68398  0.28260  0.71989  Biso   1.000  C
  O1       1.0000 0.71873  0.34417  0.86311  Biso   1.000  O
  N1       1.0000 0.60668  0.23664  0.80854  Biso   1.000  N
  C14      1.0000 0.56372  0.30093  0.82299  Biso   1.000  C
  N2       1.0000 0.70156  0.24007  0.72668  Biso   1.000  N
  C15      1.0000 0.71813  0.30595  0.67643  Biso   1.000  C
  C16      1.0000 0.77572  0.35696  0.90478  Biso   1.000  C
  C17      1.0000 0.56591  0.22940  0.84891  Biso   1.000  C
  H13      1.0000 0.62858  0.21740  0.79601  Biso   1.000  H
  H14      1.0000 0.55517  0.33051  0.82052  Biso   1.000  H
  C18      1.0000 0.53812  0.26936  0.85712  Biso   1.000  C
  H15      1.0000 0.68739  0.21929  0.74921  Biso   1.000  H
  C19      1.0000 0.74570  0.23658  0.69118  Biso   1.000  C
  C20      1.0000 0.75557  0.27790  0.65859  Biso   1.000  C
  H16      1.0000 0.71499  0.33540  0.66278  Biso   1.000  H
  C21      1.0000 0.81395  0.31854  0.90182  Biso   1.000  C
  H17      1.0000 0.77808  0.36482  0.96158  Biso   1.000  H
  H18      1.0000 0.78708  0.38200  0.87750  Biso   1.000  H
  C22      1.0000 0.55547  0.18890  0.88268  Biso   1.000  C
  H19      1.0000 0.50820  0.27311  0.88108  Biso   1.000  H
  C23      1.0000 0.77701  0.19868  0.68982  Biso   1.000  C
  H20      1.0000 0.78269  0.28429  0.63043  Biso   1.000  H
  C24      1.0000 0.80229  0.27722  0.94368  Biso   1.000  C
  H21      1.0000 0.81110  0.31192  0.84441  Biso   1.000  H
  H22      1.0000 0.85277  0.32731  0.92689  Biso   1.000  H
  C25      1.0000 0.58890  0.15156  0.88491  Biso   1.000  C
  C26      1.0000 0.50676  0.18717  0.92121  Biso   1.000  C
  C27      1.0000 0.76811  0.15912  0.72582  Biso   1.000  C
  C28      1.0000 0.82697  0.20057  0.65389  Biso   1.000  C
  C29      1.0000 0.83987  0.23909  0.93232  Biso   1.000  C
  H23      1.0000 0.76289  0.26910  0.92158  Biso   1.000  H
  H24      1.0000 0.80830  0.28279  0.00232  Biso   1.000  H
  N3       1.0000 0.63415  0.14790  0.85243  Biso   1.000  N
  C30      1.0000 0.58374  0.11173  0.92781  Biso   1.000  C
  C31      1.0000 0.45290  0.18812  0.87392  Biso   1.000  C
  C32      1.0000 0.51427  0.18554  0.00492  Biso   1.000  C
  N4       1.0000 0.72849  0.15224  0.76959  Biso   1.000  N
  C33      1.0000 0.80019  0.11982  0.72828  Biso   1.000  C
  C34      1.0000 0.81964  0.19891  0.57012  Biso   1.000  C
  C35      1.0000 0.88008  0.20400  0.70248  Biso   1.000  C
  C36      1.0000 0.82989  0.19689  0.97343  Biso   1.000  C
  H25      1.0000 0.83379  0.23381  0.87373  Biso   1.000  H
  H26      1.0000 0.87918  0.24751  0.95411  Biso   1.000  H
  H27      1.0000 0.64517  0.16721  0.82280  Biso   1.000  H
  C37      1.0000 0.65905  0.10851  0.87490  Biso   1.000  C
  H28      1.0000 0.55538  0.10511  0.95362  Biso   1.000  H
  C38      1.0000 0.62717  0.08600  0.92380  Biso   1.000  C
  H29      1.0000 0.44579  0.18880  0.81669  Biso   1.000  H
  C39      1.0000 0.40707  0.18789  0.91139  Biso   1.000  C
  C40      1.0000 0.46879  0.18505  0.04023  Biso   1.000  C
  H30      1.0000 0.55099  0.18479  0.03918  Biso   1.000  H
  C41      1.0000 0.73617  0.11118  0.80193  Biso   1.000  C
  H31      1.0000 0.70330  0.17070  0.77564  Biso   1.000  H
  C42      1.0000 0.78083  0.09054  0.77483  Biso   1.000  C
  H32      1.0000 0.82921  0.11519  0.70273  Biso   1.000  H
  H33      1.0000 0.78331  0.19741  0.53499  Biso   1.000  H
  C43      1.0000 0.86699  0.19943  0.53722  Biso   1.000  C
  C44      1.0000 0.92678  0.20589  0.67099  Biso   1.000  C
  H34      1.0000 0.88549  0.20521  0.75940  Biso   1.000  H
  C45      1.0000 0.86833  0.15977  0.96072  Biso   1.000  C
  H35      1.0000 0.79070  0.18821  0.95158  Biso   1.000  H
  H36      1.0000 0.83609  0.20201  0.03220  Biso   1.000  H
  C46      1.0000 0.70732  0.09191  0.85540  Biso   1.000  C
  H37      1.0000 0.63528  0.05870  0.94800  Biso   1.000  H
  H38      1.0000 0.36987  0.18870  0.87879  Biso   1.000  H
  C47      1.0000 0.41730  0.18675  0.99202  Biso   1.000  C
  H39      1.0000 0.47479  0.18361  0.09721  Biso   1.000  H
  H40      1.0000 0.79410  0.06219  0.78699  Biso   1.000  H
  H41      1.0000 0.86239  0.19770  0.48048  Biso   1.000  H
  C48      1.0000 0.91919  0.20243  0.58963  Biso   1.000  C
  H42      1.0000 0.96297  0.20961  0.70581  Biso   1.000  H
  H43      1.0000 0.86199  0.15511  0.90182  Biso   1.000  H
  H44      1.0000 0.90739  0.16900  0.98201  Biso   1.000  H
  C49      1.0000 0.86090  0.11656  0.00010  Biso   1.000  C
  C50      1.0000 0.73641  0.05332  0.90238  Biso   1.000  C
  N5       1.0000 0.36711  0.18681  0.02362  Biso   1.000  N
  N6       1.0000 0.96934  0.20227  0.55549  Biso   1.000  N
  O2       1.0000 0.80261  0.10400  0.97053  Biso   1.000  O
  H45      1.0000 0.88520  0.09461  0.98541  Biso   1.000  H
  H46      1.0000 0.87098  0.11940  0.05974  Biso   1.000  H
  C51      1.0000 0.71525  0.01106  0.88960  Biso   1.000  C
  C52      1.0000 0.78733  0.06144  0.96158  Biso   1.000  C
  O3       1.0000 0.32400  0.19376  0.99344  Biso   1.000  O
  O4       1.0000 0.37800  0.18371  0.10129  Biso   1.000  O
  O5       1.0000 0.96253  0.19275  0.48369  Biso   1.000  O
  O6       1.0000 0.01549  0.21137  0.60222  Biso   1.000  O
  H47      1.0000 0.68138  0.00600  0.84972  Biso   1.000  H
  C53      1.0000 0.74361  0.97609  0.93503  Biso   1.000  C
  C54      1.0000 0.81649  0.02681  0.00689  Biso   1.000  C
  C55      1.0000 0.79340  0.98500  0.99313  Biso   1.000  C
  C56      1.0000 0.71808  0.93037  0.91793  Biso   1.000  C
  H48      1.0000 0.85088  0.03141  0.04579  Biso   1.000  H
  H49      1.0000 0.81261  0.96210  0.02473  Biso   1.000  H
  C57      1.0000 0.65877  0.92975  0.93318  Biso   1.000  C
  C58      1.0000 0.75619  0.89560  0.97072  Biso   1.000  C
  C59      1.0000 0.71138  0.91827  0.82620  Biso   1.000  C
  H50      1.0000 0.66177  0.93650  0.99010  Biso   1.000  H
  H51      1.0000 0.64238  0.90131  0.92071  Biso   1.000  H
  H52      1.0000 0.63520  0.95101  0.89849  Biso   1.000  H
  H53      1.0000 0.79246  0.89570  0.95868  Biso   1.000  H
  H54      1.0000 0.73899  0.86739  0.95831  Biso   1.000  H
  H55      1.0000 0.76100  0.90200  0.02813  Biso   1.000  H
  H56      1.0000 0.68738  0.93931  0.79138  Biso   1.000  H
  H57      1.0000 0.69461  0.88980  0.81552  Biso   1.000  H
  H58      1.0000 0.74789  0.91820  0.81502  Biso   1.000  H
  O7       1.0000 0.46255  0.69275  0.48369  Biso   1.000  O
  N7       1.0000 0.46932  0.70227  0.55549  Biso   1.000  N
  C60      1.0000 0.41921  0.70243  0.58963  Biso   1.000  C
  O8       1.0000 0.51551  0.71137  0.60222  Biso   1.000  O
  C61      1.0000 0.36701  0.69943  0.53722  Biso   1.000  C
  C62      1.0000 0.42680  0.70589  0.67099  Biso   1.000  C
  C63      1.0000 0.31966  0.69891  0.57012  Biso   1.000  C
  H59      1.0000 0.36241  0.69770  0.48048  Biso   1.000  H
  C64      1.0000 0.38010  0.70400  0.70248  Biso   1.000  C
  H60      1.0000 0.46300  0.70961  0.70581  Biso   1.000  H
  C65      1.0000 0.32699  0.70057  0.65389  Biso   1.000  C
  H61      1.0000 0.28329  0.69741  0.53499  Biso   1.000  H
  H62      1.0000 0.38547  0.70521  0.75940  Biso   1.000  H
  C66      1.0000 0.27699  0.69868  0.68982  Biso   1.000  C
  C67      1.0000 0.26814  0.65912  0.72582  Biso   1.000  C
  C68      1.0000 0.24568  0.73658  0.69118  Biso   1.000  C
  N8       1.0000 0.22851  0.65224  0.76959  Biso   1.000  N
  C69      1.0000 0.30017  0.61982  0.72828  Biso   1.000  C
  N9       1.0000 0.20154  0.74007  0.72668  Biso   1.000  N
  C70      1.0000 0.25555  0.77790  0.65859  Biso   1.000  C
  C71      1.0000 0.23619  0.61118  0.80193  Biso   1.000  C
  H63      1.0000 0.20328  0.67070  0.77564  Biso   1.000  H
  C72      1.0000 0.28085  0.59054  0.77483  Biso   1.000  C
  H64      1.0000 0.32919  0.61519  0.70273  Biso   1.000  H
  H65      1.0000 0.18741  0.71929  0.74921  Biso   1.000  H
  C73      1.0000 0.18395  0.78260  0.71989  Biso   1.000  C
  H66      1.0000 0.28272  0.78429  0.63043  Biso   1.000  H
  C74      1.0000 0.21815  0.80595  0.67643  Biso   1.000  C
  C75      1.0000 0.20734  0.59191  0.85540  Biso   1.000  C
  H67      1.0000 0.29408  0.56219  0.78699  Biso   1.000  H
  C76      1.0000 0.14134  0.80187  0.75063  Biso   1.000  C
  H68      1.0000 0.21497  0.83540  0.66278  Biso   1.000  H
  C77      1.0000 0.23639  0.55332  0.90238  Biso   1.000  C
  C78      1.0000 0.15907  0.60851  0.87490  Biso   1.000  C
  C79      1.0000 0.10641  0.78002  0.79162  Biso   1.000  C
  C80      1.0000 0.14030  0.85050  0.75008  Biso   1.000  C
  C81      1.0000 0.21527  0.51106  0.88960  Biso   1.000  C
  C82      1.0000 0.28735  0.56144  0.96158  Biso   1.000  C
  N10      1.0000 0.13417  0.64790  0.85243  Biso   1.000  N
  C83      1.0000 0.12715  0.58600  0.92380  Biso   1.000  C
  N11      1.0000 0.10670  0.73668  0.80854  Biso   1.000  N
  C84      1.0000 0.06370  0.80093  0.82299  Biso   1.000  C
  C85      1.0000 0.18312  0.87118  0.80910  Biso   1.000  C
  C86      1.0000 0.10144  0.87502  0.69310  Biso   1.000  C
  C87      1.0000 0.24359  0.47609  0.93503  Biso   1.000  C
  H69      1.0000 0.18140  0.50600  0.84972  Biso   1.000  H
  C88      1.0000 0.31647  0.52681  0.00689  Biso   1.000  C
  O9       1.0000 0.30263  0.60400  0.97053  Biso   1.000  O
  H70      1.0000 0.14519  0.66721  0.82280  Biso   1.000  H
  C89      1.0000 0.08888  0.65156  0.88491  Biso   1.000  C
  C90      1.0000 0.08372  0.61173  0.92781  Biso   1.000  C
  H71      1.0000 0.13530  0.55870  0.94800  Biso   1.000  H
  C91      1.0000 0.06589  0.72940  0.84891  Biso   1.000  C
  H72      1.0000 0.12860  0.71740  0.79601  Biso   1.000  H
  C92      1.0000 0.03814  0.76936  0.85712  Biso   1.000  C
  H73      1.0000 0.05519  0.83051  0.82052  Biso   1.000  H
  O10      1.0000 0.21875  0.84417  0.86311  Biso   1.000  O
  C93      1.0000 0.18555  0.91677  0.81119  Biso   1.000  C
  H74      1.0000 0.07288  0.86071  0.65433  Biso   1.000  H
  C94      1.0000 0.10351  0.92081  0.69168  Biso   1.000  C
  C95      1.0000 0.21810  0.43037  0.91793  Biso   1.000  C
  C96      1.0000 0.29338  0.48500  0.99313  Biso   1.000  C
  H75      1.0000 0.35090  0.53141  0.04579  Biso   1.000  H
  C97      1.0000 0.36092  0.61656  0.00010  Biso   1.000  C
  C98      1.0000 0.05545  0.68890  0.88268  Biso   1.000  C
  H76      1.0000 0.05540  0.60511  0.95362  Biso   1.000  H
  H77      1.0000 0.00818  0.77311  0.88108  Biso   1.000  H
  C99      1.0000 0.27570  0.85696  0.90478  Biso   1.000  C
  C100     1.0000 0.14543  0.94032  0.75199  Biso   1.000  C
  H78      1.0000 0.21329  0.93122  0.85114  Biso   1.000  H
  C101     1.0000 0.06070  0.94593  0.62408  Biso   1.000  C
  C102     1.0000 0.21140  0.41827  0.82620  Biso   1.000  C
  C103     1.0000 0.15879  0.42975  0.93318  Biso   1.000  C
  C104     1.0000 0.25617  0.39564  0.97072  Biso   1.000  C
  H79      1.0000 0.31259  0.46210  0.02473  Biso   1.000  H
  H80      1.0000 0.38518  0.59461  0.98541  Biso   1.000  H
  C105     1.0000 0.36831  0.65977  0.96072  Biso   1.000  C
  H81      1.0000 0.37100  0.61940  0.05974  Biso   1.000  H
  C106     1.0000 0.00674  0.68717  0.92121  Biso   1.000  C
  C107     1.0000 0.31392  0.81854  0.90182  Biso   1.000  C
  H82      1.0000 0.27806  0.86482  0.96158  Biso   1.000  H
  H83      1.0000 0.28710  0.88200  0.87750  Biso   1.000  H
  H84      1.0000 0.14719  0.97062  0.75360  Biso   1.000  H
  C108     1.0000 0.00031  0.93650  0.62871  Biso   1.000  C
  C109     1.0000 0.07147  0.99547  0.63118  Biso   1.000  C
  C110     1.0000 0.06811  0.93255  0.54049  Biso   1.000  C
  H85      1.0000 0.18740  0.43931  0.79138  Biso   1.000  H
  H86      1.0000 0.19459  0.38980  0.81552  Biso   1.000  H
  H87      1.0000 0.24791  0.41820  0.81502  Biso   1.000  H
  H88      1.0000 0.16179  0.43650  0.99010  Biso   1.000  H
  H89      1.0000 0.14240  0.40131  0.92071  Biso   1.000  H
  H90      1.0000 0.13518  0.45101  0.89849  Biso   1.000  H
  H91      1.0000 0.29248  0.39570  0.95868  Biso   1.000  H
  H92      1.0000 0.23901  0.36739  0.95831  Biso   1.000  H
  H93      1.0000 0.26098  0.40200  0.02813  Biso   1.000  H
  H94      1.0000 0.36197  0.65511  0.90182  Biso   1.000  H
  H95      1.0000 0.40741  0.66900  0.98201  Biso   1.000  H
  C111     1.0000 0.32987  0.69689  0.97343  Biso   1.000  C
  C112     1.0000 0.95288  0.68812  0.87392  Biso   1.000  C
  C113     1.0000 0.01429  0.68554  0.00492  Biso   1.000  C
  C114     1.0000 0.30227  0.77722  0.94368  Biso   1.000  C
  H96      1.0000 0.31108  0.81192  0.84441  Biso   1.000  H
  H97      1.0000 0.35279  0.82731  0.92689  Biso   1.000  H
  H98      1.0000 0.99500  0.94769  0.67970  Biso   1.000  H
  H99      1.0000 0.99388  0.90562  0.62618  Biso   1.000  H
  H100     1.0000 0.97390  0.95039  0.58321  Biso   1.000  H
  H101     1.0000 0.04649  0.00991  0.58518  Biso   1.000  H
  H102     1.0000 0.11009  0.00130  0.63130  Biso   1.000  H
  H103     1.0000 0.06468  0.00600  0.68167  Biso   1.000  H
  H104     1.0000 0.04480  0.95069  0.49838  Biso   1.000  H
  H105     1.0000 0.05701  0.90262  0.52993  Biso   1.000  H
  H106     1.0000 0.10709  0.93591  0.54018  Biso   1.000  H
  H107     1.0000 0.29068  0.68821  0.95158  Biso   1.000  H
  C115     1.0000 0.33989  0.73909  0.93232  Biso   1.000  C
  H108     1.0000 0.33607  0.70201  0.03220  Biso   1.000  H
  H109     1.0000 0.94577  0.68880  0.81669  Biso   1.000  H
  C116     1.0000 0.90709  0.68789  0.91139  Biso   1.000  C
  C117     1.0000 0.96877  0.68505  0.04023  Biso   1.000  C
  H110     1.0000 0.05097  0.68479  0.03918  Biso   1.000  H
  H111     1.0000 0.26287  0.76910  0.92158  Biso   1.000  H
  H112     1.0000 0.30828  0.78279  0.00232  Biso   1.000  H
  H113     1.0000 0.33377  0.73381  0.87373  Biso   1.000  H
  H114     1.0000 0.37920  0.74751  0.95411  Biso   1.000  H
  H115     1.0000 0.86990  0.68870  0.87879  Biso   1.000  H
  C118     1.0000 0.91728  0.68675  0.99202  Biso   1.000  C
  H116     1.0000 0.97477  0.68361  0.09721  Biso   1.000  H
  N12      1.0000 0.86708  0.68681  0.02362  Biso   1.000  N
  O11      1.0000 0.82398  0.69376  0.99344  Biso   1.000  O
  O12      1.0000 0.87798  0.68371  0.10129  Biso   1.000  O
