data_image0
_cell_length_a       10.402
_cell_length_b       12.544
_cell_length_c       20.097
_cell_angle_alpha    90
_cell_angle_beta     90
_cell_angle_gamma    90

_symmetry_space_group_name_H-M    "P 1"
_symmetry_int_tables_number       1

loop_
  _symmetry_equiv_pos_as_xyz
  'x, y, z'

loop_
  _atom_site_label
  _atom_site_occupancy
  _atom_site_fract_x
  _atom_site_fract_y
  _atom_site_fract_z
  _atom_site_thermal_displace_type
  _atom_site_B_iso_or_equiv
  _atom_site_type_symbol
  C1       1.0000 0.61873  0.59040  0.49032  Biso   1.000  C
  C2       1.0000 0.54163  0.64102  0.44330  Biso   1.000  C
  C3       1.0000 0.75043  0.58857  0.48291  Biso   1.000  C
  H1       1.0000 0.58027  0.55676  0.52769  Biso   1.000  H
  C4       1.0000 0.59662  0.69045  0.38807  Biso   1.000  C
  H2       1.0000 0.45087  0.64190  0.44892  Biso   1.000  H
  C5       1.0000 0.80706  0.63680  0.42773  Biso   1.000  C
  H3       1.0000 0.80254  0.55461  0.51540  Biso   1.000  H
  N1       1.0000 0.52423  0.74027  0.33876  Biso   1.000  N
  C6       1.0000 0.73149  0.68710  0.38016  Biso   1.000  C
  H4       1.0000 0.89781  0.63520  0.42260  Biso   1.000  H
  C7       1.0000 0.38646  0.75638  0.34567  Biso   1.000  C
  H5       1.0000 0.56297  0.79576  0.32338  Biso   1.000  H
  S1       1.0000 0.79417  0.74530  0.30676  Biso   1.000  S
  H6       1.0000 0.36753  0.79440  0.38772  Biso   1.000  H
  H7       1.0000 0.34147  0.68678  0.34652  Biso   1.000  H
  C8       1.0000 0.34176  0.82207  0.28646  Biso   1.000  C
  C9       1.0000 0.95866  0.77296  0.32886  Biso   1.000  C
  N2       1.0000 0.40137  0.92881  0.28616  Biso   1.000  N
  H8       1.0000 0.36435  0.78436  0.24481  Biso   1.000  H
  H9       1.0000 0.24716  0.82956  0.28800  Biso   1.000  H
  H10      1.0000 0.96087  0.81601  0.36951  Biso   1.000  H
  H11      1.0000 0.00029  0.81218  0.29258  Biso   1.000  H
  H12      1.0000 0.00442  0.70568  0.33642  Biso   1.000  H
  C10      1.0000 0.41377  0.96987  0.21789  Biso   1.000  C
  C11      1.0000 0.32763  0.00279  0.32801  Biso   1.000  C
  C12      1.0000 0.53576  0.93096  0.18500  Biso   1.000  C
  H13      1.0000 0.33878  0.94651  0.19132  Biso   1.000  H
  H14      1.0000 0.41396  0.04879  0.21889  Biso   1.000  H
  H15      1.0000 0.29100  0.96317  0.36622  Biso   1.000  H
  C13      1.0000 0.40886  0.09439  0.35398  Biso   1.000  C
  H16      1.0000 0.25514  0.03197  0.30179  Biso   1.000  H
  N3       1.0000 0.64670  0.98238  0.21416  Biso   1.000  N
  H17      1.0000 0.54307  0.85276  0.19048  Biso   1.000  H
  H18      1.0000 0.53259  0.94675  0.13669  Biso   1.000  H
  N4       1.0000 0.50933  0.05405  0.39732  Biso   1.000  N
  H19      1.0000 0.44809  0.13297  0.31612  Biso   1.000  H
  H20      1.0000 0.35387  0.14485  0.37881  Biso   1.000  H
  H21      1.0000 0.63997  0.98796  0.25661  Biso   1.000  H
  C14      1.0000 0.77014  0.95679  0.19232  Biso   1.000  C
  H22      1.0000 0.53999  0.99227  0.38802  Biso   1.000  H
  C15      1.0000 0.60162  0.12221  0.42360  Biso   1.000  C
  C16      1.0000 0.79302  0.88887  0.13888  Biso   1.000  C
  C17      1.0000 0.87675  0.00606  0.22317  Biso   1.000  C
  C18      1.0000 0.71727  0.08187  0.44982  Biso   1.000  C
  C19      1.0000 0.58075  0.23286  0.42593  Biso   1.000  C
  C20      1.0000 0.91684  0.86910  0.11624  Biso   1.000  C
  H23      1.0000 0.72236  0.85531  0.11748  Biso   1.000  H
  S2       1.0000 0.84032  0.09399  0.28965  Biso   1.000  S
  C21      1.0000 0.00010  0.98565  0.20053  Biso   1.000  C
  S3       1.0000 0.75130  0.94348  0.44454  Biso   1.000  S
  C22      1.0000 0.80840  0.15131  0.47639  Biso   1.000  C
  C23      1.0000 0.67314  0.29990  0.45260  Biso   1.000  C
  H24      1.0000 0.50298  0.26180  0.40912  Biso   1.000  H
  H25      1.0000 0.93011  0.82286  0.07941  Biso   1.000  H
  C24      1.0000 0.02048  0.91645  0.14704  Biso   1.000  C
  C25      1.0000 0.99154  0.10507  0.33209  Biso   1.000  C
  H26      1.0000 0.07143  0.01897  0.22148  Biso   1.000  H
  C26      1.0000 0.65901  0.89342  0.51381  Biso   1.000  C
  H27      1.0000 0.88618  0.12325  0.49400  Biso   1.000  H
  C27      1.0000 0.78754  0.26044  0.47753  Biso   1.000  C
  H28      1.0000 0.65747  0.37444  0.45380  Biso   1.000  H
  H29      1.0000 0.10536  0.90218  0.13201  Biso   1.000  H
  H30      1.0000 0.97972  0.14589  0.37329  Biso   1.000  H
  H31      1.0000 0.02375  0.03380  0.34279  Biso   1.000  H
  H32      1.0000 0.05336  0.14190  0.30338  Biso   1.000  H
  H33      1.0000 0.69092  0.92506  0.55521  Biso   1.000  H
  H34      1.0000 0.66756  0.81569  0.51610  Biso   1.000  H
  H35      1.0000 0.56816  0.91215  0.50779  Biso   1.000  H
  H36      1.0000 0.85070  0.30740  0.49520  Biso   1.000  H
  C28      1.0000 0.30840  0.34869  0.52361  Biso   1.000  C
  C29      1.0000 0.28754  0.23948  0.52247  Biso   1.000  C
  C30      1.0000 0.21727  0.41805  0.55018  Biso   1.000  C
  H37      1.0000 0.38618  0.37667  0.50600  Biso   1.000  H
  H38      1.0000 0.35070  0.19260  0.50480  Biso   1.000  H
  C31      1.0000 0.17314  0.20010  0.54740  Biso   1.000  C
  S4       1.0000 0.25130  0.55644  0.55546  Biso   1.000  S
  C32      1.0000 0.10162  0.37779  0.57640  Biso   1.000  C
  H39      1.0000 0.15747  0.12548  0.54620  Biso   1.000  H
  C33      1.0000 0.08075  0.26706  0.57407  Biso   1.000  C
  C34      1.0000 0.15901  0.60658  0.48619  Biso   1.000  C
  N5       1.0000 0.00933  0.44595  0.60268  Biso   1.000  N
  H40      1.0000 0.00298  0.23820  0.59088  Biso   1.000  H
  H41      1.0000 0.19092  0.57486  0.44479  Biso   1.000  H
  H42      1.0000 0.16756  0.68431  0.48390  Biso   1.000  H
  H43      1.0000 0.06816  0.58777  0.49221  Biso   1.000  H
  H44      1.0000 0.03999  0.50765  0.61198  Biso   1.000  H
  C35      1.0000 0.90886  0.40561  0.64602  Biso   1.000  C
  H45      1.0000 0.94809  0.36703  0.68388  Biso   1.000  H
  H46      1.0000 0.85387  0.35507  0.62119  Biso   1.000  H
  C36      1.0000 0.82763  0.49721  0.67199  Biso   1.000  C
  N6       1.0000 0.90137  0.57119  0.71384  Biso   1.000  N
  H47      1.0000 0.79100  0.53683  0.63378  Biso   1.000  H
  H48      1.0000 0.75514  0.46795  0.69821  Biso   1.000  H
  C37      1.0000 0.91377  0.53005  0.78211  Biso   1.000  C
  C38      1.0000 0.84176  0.67785  0.71354  Biso   1.000  C
  C39      1.0000 0.03576  0.56896  0.81500  Biso   1.000  C
  H49      1.0000 0.91396  0.45121  0.78111  Biso   1.000  H
  H50      1.0000 0.83878  0.55349  0.80868  Biso   1.000  H
  C40      1.0000 0.88646  0.74362  0.65433  Biso   1.000  C
  H51      1.0000 0.86435  0.71556  0.75519  Biso   1.000  H
  H52      1.0000 0.74716  0.67036  0.71200  Biso   1.000  H
  N7       1.0000 0.14670  0.51762  0.78584  Biso   1.000  N
  H53      1.0000 0.04307  0.64716  0.80952  Biso   1.000  H
  H54      1.0000 0.03259  0.55317  0.86331  Biso   1.000  H
  N8       1.0000 0.02423  0.75965  0.66124  Biso   1.000  N
  H55      1.0000 0.86753  0.70560  0.61228  Biso   1.000  H
  H56      1.0000 0.84147  0.81322  0.65348  Biso   1.000  H
  H57      1.0000 0.13997  0.51196  0.74339  Biso   1.000  H
  C41      1.0000 0.27014  0.54321  0.80768  Biso   1.000  C
  H58      1.0000 0.06297  0.70416  0.67662  Biso   1.000  H
  C42      1.0000 0.09662  0.80947  0.61193  Biso   1.000  C
  C43      1.0000 0.37675  0.49386  0.77683  Biso   1.000  C
  C44      1.0000 0.29302  0.61113  0.86112  Biso   1.000  C
  C45      1.0000 0.23149  0.81290  0.61984  Biso   1.000  C
  C46      1.0000 0.04163  0.85898  0.55670  Biso   1.000  C
  S5       1.0000 0.34032  0.40601  0.71035  Biso   1.000  S
  C47      1.0000 0.50010  0.51427  0.79947  Biso   1.000  C
  C48      1.0000 0.41684  0.63090  0.88376  Biso   1.000  C
  H59      1.0000 0.22236  0.64469  0.88252  Biso   1.000  H
  S6       1.0000 0.29417  0.75470  0.69324  Biso   1.000  S
  C49      1.0000 0.30706  0.86320  0.57227  Biso   1.000  C
  C50      1.0000 0.11873  0.90960  0.50968  Biso   1.000  C
  H60      1.0000 0.95087  0.85810  0.55108  Biso   1.000  H
  C51      1.0000 0.49154  0.39493  0.66791  Biso   1.000  C
  H61      1.0000 0.57143  0.48103  0.77852  Biso   1.000  H
  C52      1.0000 0.52048  0.58347  0.85296  Biso   1.000  C
  H62      1.0000 0.43011  0.67706  0.92059  Biso   1.000  H
  C53      1.0000 0.45866  0.72696  0.67114  Biso   1.000  C
  H63      1.0000 0.39781  0.86480  0.57740  Biso   1.000  H
  C54      1.0000 0.25043  0.91135  0.51709  Biso   1.000  C
  H64      1.0000 0.08027  0.94316  0.47231  Biso   1.000  H
  H65      1.0000 0.52375  0.46620  0.65721  Biso   1.000  H
  H66      1.0000 0.47972  0.35411  0.62671  Biso   1.000  H
  H67      1.0000 0.55336  0.35810  0.69662  Biso   1.000  H
  H68      1.0000 0.60536  0.59782  0.86799  Biso   1.000  H
  H69      1.0000 0.46087  0.68399  0.63049  Biso   1.000  H
  H70      1.0000 0.50029  0.68782  0.70742  Biso   1.000  H
  H71      1.0000 0.50442  0.79432  0.66358  Biso   1.000  H
  H72      1.0000 0.30254  0.94539  0.48460  Biso   1.000  H
  C55      1.0000 0.46424  0.43096  0.31502  Biso   1.000  C
  C56      1.0000 0.58623  0.46987  0.28208  Biso   1.000  C
  N9       1.0000 0.35330  0.48238  0.28586  Biso   1.000  N
  H73      1.0000 0.45693  0.35276  0.30950  Biso   1.000  H
  H74      1.0000 0.46741  0.44683  0.36329  Biso   1.000  H
  N10      1.0000 0.59863  0.42881  0.21381  Biso   1.000  N
  H75      1.0000 0.58604  0.54879  0.28109  Biso   1.000  H
  H76      1.0000 0.66122  0.44651  0.30870  Biso   1.000  H
  H77      1.0000 0.36003  0.48796  0.24342  Biso   1.000  H
  C57      1.0000 0.22986  0.45679  0.30771  Biso   1.000  C
  C58      1.0000 0.65824  0.32207  0.21356  Biso   1.000  C
  C59      1.0000 0.67237  0.50279  0.17197  Biso   1.000  C
  C60      1.0000 0.12325  0.50606  0.27681  Biso   1.000  C
  C61      1.0000 0.20698  0.38887  0.36110  Biso   1.000  C
  C62      1.0000 0.61354  0.25638  0.15430  Biso   1.000  C
  H78      1.0000 0.63565  0.28436  0.25521  Biso   1.000  H
  H79      1.0000 0.75284  0.32956  0.21202  Biso   1.000  H
  C63      1.0000 0.59114  0.59439  0.14604  Biso   1.000  C
  H80      1.0000 0.70900  0.46317  0.13380  Biso   1.000  H
  H81      1.0000 0.74486  0.53197  0.19819  Biso   1.000  H
  S7       1.0000 0.15968  0.59399  0.21038  Biso   1.000  S
  C64      1.0000 0.99990  0.48573  0.29950  Biso   1.000  C
  C65      1.0000 0.08316  0.36910  0.38379  Biso   1.000  C
  H82      1.0000 0.27764  0.35531  0.38249  Biso   1.000  H
  N11      1.0000 0.47577  0.24035  0.16127  Biso   1.000  N
  H83      1.0000 0.63247  0.29440  0.11231  Biso   1.000  H
  H84      1.0000 0.65853  0.18678  0.15351  Biso   1.000  H
  N12      1.0000 0.49067  0.55405  0.10265  Biso   1.000  N
  H85      1.0000 0.55191  0.63297  0.18391  Biso   1.000  H
  H86      1.0000 0.64613  0.64485  0.12121  Biso   1.000  H
  C66      1.0000 0.00846  0.60507  0.16789  Biso   1.000  C
  H87      1.0000 0.92857  0.51897  0.27850  Biso   1.000  H
  C67      1.0000 0.97952  0.41645  0.35299  Biso   1.000  C
  H88      1.0000 0.06989  0.32286  0.42061  Biso   1.000  H
  C68      1.0000 0.40338  0.19053  0.11196  Biso   1.000  C
  H89      1.0000 0.43703  0.29576  0.17659  Biso   1.000  H
  H90      1.0000 0.46001  0.49227  0.11201  Biso   1.000  H
  C69      1.0000 0.39838  0.62221  0.07643  Biso   1.000  C
  H91      1.0000 0.02028  0.64589  0.12669  Biso   1.000  H
  H92      1.0000 0.97625  0.53380  0.15719  Biso   1.000  H
  H93      1.0000 0.94664  0.64190  0.19660  Biso   1.000  H
  H94      1.0000 0.89464  0.40218  0.36802  Biso   1.000  H
  C70      1.0000 0.26851  0.18710  0.11982  Biso   1.000  C
  C71      1.0000 0.45837  0.14102  0.05668  Biso   1.000  C
  C72      1.0000 0.28273  0.58187  0.05021  Biso   1.000  C
  C73      1.0000 0.41925  0.73286  0.07409  Biso   1.000  C
  S8       1.0000 0.20583  0.24530  0.19321  Biso   1.000  S
  C74      1.0000 0.19294  0.13680  0.07230  Biso   1.000  C
  C75      1.0000 0.38127  0.09040  0.00970  Biso   1.000  C
  H95      1.0000 0.54913  0.14190  0.05110  Biso   1.000  H
  S9       1.0000 0.24870  0.44348  0.05548  Biso   1.000  S
  C76      1.0000 0.19160  0.65131  0.02364  Biso   1.000  C
  C77      1.0000 0.32686  0.79990  0.04742  Biso   1.000  C
  H96      1.0000 0.49702  0.76180  0.09091  Biso   1.000  H
  C78      1.0000 0.04134  0.27296  0.17117  Biso   1.000  C
  H97      1.0000 0.10219  0.13520  0.07742  Biso   1.000  H
  C79      1.0000 0.24957  0.08857  0.01707  Biso   1.000  C
  H98      1.0000 0.41973  0.05676  0.97228  Biso   1.000  H
  C80      1.0000 0.34099  0.39342  0.98617  Biso   1.000  C
  H99      1.0000 0.11382  0.62333  0.00602  Biso   1.000  H
  C81      1.0000 0.21246  0.76052  0.02244  Biso   1.000  C
  H100     1.0000 0.34253  0.87452  0.04618  Biso   1.000  H
  H101     1.0000 0.03913  0.31601  0.13052  Biso   1.000  H
  H102     1.0000 0.99971  0.31218  0.20739  Biso   1.000  H
  H103     1.0000 0.99558  0.20568  0.16361  Biso   1.000  H
  H104     1.0000 0.19746  0.05461  0.98462  Biso   1.000  H
  H105     1.0000 0.30908  0.42506  0.94482  Biso   1.000  H
  H106     1.0000 0.33244  0.31569  0.98388  Biso   1.000  H
  H107     1.0000 0.43184  0.41223  0.99219  Biso   1.000  H
  H108     1.0000 0.14930  0.80740  0.00478  Biso   1.000  H
  C82      1.0000 0.58316  0.13090  0.61621  Biso   1.000  C
  C83      1.0000 0.47952  0.08347  0.64701  Biso   1.000  C
  H109     1.0000 0.56989  0.17714  0.57939  Biso   1.000  H
  C84      1.0000 0.70698  0.11113  0.63890  Biso   1.000  C
  C85      1.0000 0.49990  0.01427  0.70050  Biso   1.000  C
  H110     1.0000 0.39464  0.09782  0.63198  Biso   1.000  H
  H111     1.0000 0.77764  0.14469  0.61751  Biso   1.000  H
  C86      1.0000 0.72986  0.04321  0.69229  Biso   1.000  C
  C87      1.0000 0.62325  0.99386  0.72319  Biso   1.000  C
  H112     1.0000 0.42857  0.98103  0.72150  Biso   1.000  H
  N13      1.0000 0.85330  0.01762  0.71414  Biso   1.000  N
  S10      1.0000 0.65968  0.90601  0.78962  Biso   1.000  S
  H113     1.0000 0.86003  0.01204  0.75658  Biso   1.000  H
  C88      1.0000 0.96424  0.06904  0.68498  Biso   1.000  C
  C89      1.0000 0.50846  0.89493  0.83211  Biso   1.000  C
  H114     1.0000 0.95693  0.14716  0.69050  Biso   1.000  H
  H115     1.0000 0.96741  0.05317  0.63671  Biso   1.000  H
  C90      1.0000 0.08623  0.03013  0.71792  Biso   1.000  C
  H116     1.0000 0.47625  0.96620  0.84281  Biso   1.000  H
  H117     1.0000 0.52028  0.85411  0.87331  Biso   1.000  H
  H118     1.0000 0.44664  0.85810  0.80340  Biso   1.000  H
  H119     1.0000 0.08604  0.95121  0.71891  Biso   1.000  H
  N14      1.0000 0.09863  0.07119  0.78619  Biso   1.000  N
  H120     1.0000 0.16122  0.05349  0.69130  Biso   1.000  H
  C91      1.0000 0.17237  0.99721  0.82803  Biso   1.000  C
  C92      1.0000 0.15824  0.17793  0.78644  Biso   1.000  C
  C93      1.0000 0.09114  0.90561  0.85396  Biso   1.000  C
  H121     1.0000 0.24486  0.96803  0.80181  Biso   1.000  H
  H122     1.0000 0.20900  0.03683  0.86620  Biso   1.000  H
  C94      1.0000 0.11354  0.24362  0.84570  Biso   1.000  C
  H123     1.0000 0.13565  0.21556  0.74479  Biso   1.000  H
  H124     1.0000 0.25284  0.17036  0.78798  Biso   1.000  H
  N15      1.0000 0.99067  0.94595  0.89735  Biso   1.000  N
  H125     1.0000 0.05191  0.86703  0.81609  Biso   1.000  H
  H126     1.0000 0.14613  0.85507  0.87879  Biso   1.000  H
  N16      1.0000 0.97577  0.25965  0.83873  Biso   1.000  N
  H127     1.0000 0.13247  0.20560  0.88769  Biso   1.000  H
  H128     1.0000 0.15853  0.31322  0.84649  Biso   1.000  H
  H129     1.0000 0.96001  0.00773  0.88799  Biso   1.000  H
  C95      1.0000 0.89838  0.87779  0.92357  Biso   1.000  C
  H130     1.0000 0.93703  0.20416  0.82341  Biso   1.000  H
  C96      1.0000 0.90338  0.30947  0.88804  Biso   1.000  C
  C97      1.0000 0.78273  0.91805  0.94979  Biso   1.000  C
  C98      1.0000 0.91925  0.76714  0.92591  Biso   1.000  C
  C99      1.0000 0.76851  0.31290  0.88018  Biso   1.000  C
  C100     1.0000 0.95837  0.35898  0.94332  Biso   1.000  C
  S11      1.0000 0.74870  0.05652  0.94452  Biso   1.000  S
  C101     1.0000 0.69160  0.84869  0.97636  Biso   1.000  C
  C102     1.0000 0.82686  0.70010  0.95258  Biso   1.000  C
  H131     1.0000 0.99702  0.73820  0.90909  Biso   1.000  H
  S12      1.0000 0.70583  0.25470  0.80679  Biso   1.000  S
  C103     1.0000 0.69294  0.36320  0.92770  Biso   1.000  C
  C104     1.0000 0.88127  0.40960  0.99030  Biso   1.000  C
  H132     1.0000 0.04913  0.35810  0.94890  Biso   1.000  H
  C105     1.0000 0.84099  0.10658  0.01383  Biso   1.000  C
  H133     1.0000 0.61382  0.87667  0.99398  Biso   1.000  H
  C106     1.0000 0.71246  0.73948  0.97756  Biso   1.000  C
  H134     1.0000 0.84253  0.62548  0.95382  Biso   1.000  H
  C107     1.0000 0.54134  0.22696  0.82883  Biso   1.000  C
  H135     1.0000 0.60219  0.36480  0.92258  Biso   1.000  H
  C108     1.0000 0.74957  0.41143  0.98293  Biso   1.000  C
  H136     1.0000 0.91973  0.44316  0.02772  Biso   1.000  H
  H137     1.0000 0.80908  0.07494  0.05518  Biso   1.000  H
  H138     1.0000 0.83244  0.18431  0.01612  Biso   1.000  H
  H139     1.0000 0.93184  0.08777  0.00781  Biso   1.000  H
  H140     1.0000 0.64930  0.69260  0.99522  Biso   1.000  H
  H141     1.0000 0.53913  0.18399  0.86948  Biso   1.000  H
  H142     1.0000 0.49971  0.18782  0.79261  Biso   1.000  H
  H143     1.0000 0.49558  0.29432  0.83639  Biso   1.000  H
  H144     1.0000 0.69746  0.44539  0.01538  Biso   1.000  H
