data_image0
_cell_length_a       20.98
_cell_length_b       17.52
_cell_length_c       18.03
_cell_angle_alpha    90
_cell_angle_beta     113.21
_cell_angle_gamma    90

_symmetry_space_group_name_H-M    "P 1"
_symmetry_int_tables_number       1

loop_
  _symmetry_equiv_pos_as_xyz
  'x, y, z'

loop_
  _atom_site_label
  _atom_site_occupancy
  _atom_site_fract_x
  _atom_site_fract_y
  _atom_site_fract_z
  _atom_site_thermal_displace_type
  _atom_site_B_iso_or_equiv
  _atom_site_type_symbol
  C1       1.0000 0.49777  0.39720  0.46558  Biso   1.000  C
  C2       1.0000 0.45688  0.34332  0.40197  Biso   1.000  C
  H1       1.0000 0.54632  0.38933  0.47861  Biso   1.000  H
  H2       1.0000 0.48821  0.38898  0.51277  Biso   1.000  H
  H3       1.0000 0.48550  0.44857  0.44681  Biso   1.000  H
  C3       1.0000 0.37919  0.35251  0.37681  Biso   1.000  C
  C4       1.0000 0.47282  0.36102  0.33113  Biso   1.000  C
  C5       1.0000 0.48257  0.26752  0.42478  Biso   1.000  C
  C6       1.0000 0.33440  0.29058  0.34742  Biso   1.000  C
  C7       1.0000 0.34849  0.42289  0.37820  Biso   1.000  C
  H4       1.0000 0.52172  0.35611  0.34531  Biso   1.000  H
  H5       1.0000 0.45862  0.41239  0.31381  Biso   1.000  H
  H6       1.0000 0.44828  0.32620  0.28822  Biso   1.000  H
  H7       1.0000 0.53180  0.26678  0.43939  Biso   1.000  H
  H8       1.0000 0.46060  0.23350  0.38031  Biso   1.000  H
  H9       1.0000 0.47271  0.25143  0.46998  Biso   1.000  H
  C8       1.0000 0.26239  0.29652  0.31918  Biso   1.000  C
  H10      1.0000 0.35358  0.24292  0.34651  Biso   1.000  H
  C9       1.0000 0.27722  0.43231  0.35170  Biso   1.000  C
  H11      1.0000 0.37700  0.46518  0.39763  Biso   1.000  H
  C10      1.0000 0.21870  0.22871  0.27772  Biso   1.000  C
  C11      1.0000 0.23481  0.36838  0.32400  Biso   1.000  C
  C12      1.0000 0.24682  0.51187  0.35201  Biso   1.000  C
  C13      1.0000 0.23291  0.20639  0.20470  Biso   1.000  C
  H12      1.0000 0.16999  0.24132  0.26112  Biso   1.000  H
  H13      1.0000 0.22910  0.18607  0.31489  Biso   1.000  H
  O1       1.0000 0.16295  0.37825  0.29437  Biso   1.000  O
  H14      1.0000 0.19979  0.50651  0.34881  Biso   1.000  H
  H15      1.0000 0.27391  0.53699  0.40258  Biso   1.000  H
  C14      1.0000 0.24591  0.56182  0.28291  Biso   1.000  C
  C15      1.0000 0.27712  0.14629  0.20772  Biso   1.000  C
  C16      1.0000 0.20671  0.25040  0.13409  Biso   1.000  C
  C17      1.0000 0.13178  0.35942  0.35068  Biso   1.000  C
  C18      1.0000 0.29112  0.62449  0.29860  Biso   1.000  C
  C19      1.0000 0.20335  0.54640  0.20283  Biso   1.000  C
  C20      1.0000 0.29800  0.13002  0.14538  Biso   1.000  C
  H16      1.0000 0.29339  0.11570  0.25352  Biso   1.000  H
  O2       1.0000 0.16163  0.30788  0.13355  Biso   1.000  O
  C21      1.0000 0.22618  0.23710  0.06970  Biso   1.000  C
  H17      1.0000 0.16270  0.37409  0.40481  Biso   1.000  H
  H18      1.0000 0.12409  0.30479  0.35019  Biso   1.000  H
  C22      1.0000 0.06369  0.40103  0.32750  Biso   1.000  C
  H19      1.0000 0.32088  0.63430  0.35170  Biso   1.000  H
  C23      1.0000 0.29311  0.67272  0.23831  Biso   1.000  C
  O3       1.0000 0.15637  0.48699  0.17953  Biso   1.000  O
  C24      1.0000 0.20604  0.59098  0.14013  Biso   1.000  C
  C25      1.0000 0.27223  0.17711  0.07773  Biso   1.000  C
  C26      1.0000 0.34790  0.06393  0.15002  Biso   1.000  C
  H20      1.0000 0.15170  0.33328  0.09227  Biso   1.000  H
  C27      1.0000 0.19898  0.28527  0.99487  Biso   1.000  C
  N1       1.0000 0.07581  0.48328  0.34078  Biso   1.000  N
  H21      1.0000 0.03509  0.39150  0.27108  Biso   1.000  H
  H22      1.0000 0.03920  0.38208  0.35949  Biso   1.000  H
  C28      1.0000 0.24959  0.65400  0.15950  Biso   1.000  C
  C29      1.0000 0.34430  0.74030  0.25859  Biso   1.000  C
  H23      1.0000 0.16320  0.45862  0.21797  Biso   1.000  H
  C30      1.0000 0.16851  0.56513  0.05353  Biso   1.000  C
  H24      1.0000 0.28648  0.16809  0.03579  Biso   1.000  H
  C31      1.0000 0.40987  0.09509  0.13807  Biso   1.000  C
  C32      1.0000 0.31020  0.00639  0.08443  Biso   1.000  C
  C33      1.0000 0.37191  0.02169  0.22908  Biso   1.000  C
  C34      1.0000 0.22471  0.36729  0.00863  Biso   1.000  C
  H25      1.0000 0.14871  0.28550  0.97381  Biso   1.000  H
  H26      1.0000 0.21257  0.26239  0.95438  Biso   1.000  H
  C35      1.0000 0.02451  0.52671  0.32201  Biso   1.000  C
  H27      1.0000 0.24980  0.68522  0.11792  Biso   1.000  H
  C36      1.0000 0.41611  0.70947  0.28019  Biso   1.000  C
  C37      1.0000 0.32932  0.79298  0.18720  Biso   1.000  C
  C38      1.0000 0.34358  0.78562  0.32781  Biso   1.000  C
  C39      1.0000 0.21002  0.50068  0.03621  Biso   1.000  C
  H28      1.0000 0.16379  0.60759  0.01708  Biso   1.000  H
  H29      1.0000 0.12240  0.54720  0.04502  Biso   1.000  H
  H30      1.0000 0.43329  0.13151  0.17977  Biso   1.000  H
  H31      1.0000 0.39500  0.11969  0.08642  Biso   1.000  H
  H32      1.0000 0.44103  0.05411  0.14043  Biso   1.000  H
  H33      1.0000 0.29569  0.03071  0.03259  Biso   1.000  H
  H34      1.0000 0.34091  0.96478  0.08702  Biso   1.000  H
  H35      1.0000 0.27040  0.98739  0.09203  Biso   1.000  H
  H36      1.0000 0.39727  0.05582  0.27229  Biso   1.000  H
  H37      1.0000 0.33227  0.00223  0.23729  Biso   1.000  H
  H38      1.0000 0.40128  0.98002  0.22811  Biso   1.000  H
  C40      1.0000 0.29319  0.38299  0.02112  Biso   1.000  C
  C41      1.0000 0.18283  0.42768  0.01249  Biso   1.000  C
  C42      1.0000 0.02960  0.60919  0.33607  Biso   1.000  C
  H39      1.0000 0.98062  0.50531  0.29769  Biso   1.000  H
  H40      1.0000 0.42780  0.67591  0.32569  Biso   1.000  H
  H41      1.0000 0.44860  0.75103  0.29353  Biso   1.000  H
  H42      1.0000 0.41800  0.68191  0.23511  Biso   1.000  H
  H43      1.0000 0.36191  0.83442  0.20222  Biso   1.000  H
  H44      1.0000 0.28309  0.81301  0.17060  Biso   1.000  H
  H45      1.0000 0.33319  0.76513  0.14332  Biso   1.000  H
  H46      1.0000 0.35342  0.75268  0.37361  Biso   1.000  H
  H47      1.0000 0.29869  0.80839  0.31362  Biso   1.000  H
  H48      1.0000 0.37809  0.82489  0.34090  Biso   1.000  H
  C43      1.0000 0.27880  0.51330  0.04858  Biso   1.000  C
  C44      1.0000 0.32129  0.45611  0.03880  Biso   1.000  C
  H49      1.0000 0.32132  0.34321  0.01762  Biso   1.000  H
  O4       1.0000 0.11284  0.41330  0.99499  Biso   1.000  O
  C45      1.0000 0.09480  0.64521  0.36757  Biso   1.000  C
  C46      1.0000 0.97171  0.65188  0.32262  Biso   1.000  C
  H50      1.0000 0.29739  0.56182  0.06421  Biso   1.000  H
  C47      1.0000 0.39500  0.47317  0.04689  Biso   1.000  C
  C48      1.0000 0.07152  0.41729  0.90930  Biso   1.000  C
  H51      1.0000 0.13468  0.61672  0.37669  Biso   1.000  H
  C49      1.0000 0.10029  0.72180  0.38477  Biso   1.000  C
  C50      1.0000 0.97631  0.73042  0.33988  Biso   1.000  C
  H52      1.0000 0.92842  0.62860  0.30162  Biso   1.000  H
  C51      1.0000 0.44540  0.41518  0.09408  Biso   1.000  C
  C52      1.0000 0.42012  0.54909  0.07712  Biso   1.000  C
  C53      1.0000 0.39480  0.46638  0.96198  Biso   1.000  C
  C54      1.0000 0.99711  0.40108  0.89071  Biso   1.000  C
  H53      1.0000 0.08889  0.38071  0.88148  Biso   1.000  H
  H54      1.0000 0.07579  0.46792  0.88981  Biso   1.000  H
  O5       1.0000 0.16121  0.76176  0.41688  Biso   1.000  O
  C55      1.0000 0.03943  0.76490  0.37071  Biso   1.000  C
  H55      1.0000 0.93631  0.75862  0.33040  Biso   1.000  H
  H56      1.0000 0.44928  0.41621  0.14888  Biso   1.000  H
  H57      1.0000 0.48992  0.42603  0.09281  Biso   1.000  H
  H58      1.0000 0.43009  0.36558  0.07139  Biso   1.000  H
  H59      1.0000 0.42149  0.55468  0.13059  Biso   1.000  H
  H60      1.0000 0.38969  0.58670  0.04230  Biso   1.000  H
  H61      1.0000 0.46588  0.55582  0.07827  Biso   1.000  H
  H62      1.0000 0.44047  0.47671  0.96427  Biso   1.000  H
  H63      1.0000 0.36258  0.50251  0.92680  Biso   1.000  H
  H64      1.0000 0.38118  0.41558  0.94189  Biso   1.000  H
  N2       1.0000 0.98556  0.32169  0.90670  Biso   1.000  N
  H65      1.0000 0.98130  0.43419  0.92312  Biso   1.000  H
  H66      1.0000 0.96989  0.41250  0.83441  Biso   1.000  H
  C56      1.0000 0.22369  0.72009  0.44289  Biso   1.000  C
  O6       1.0000 0.04960  0.84070  0.38990  Biso   1.000  O
  C57      1.0000 0.93819  0.28590  0.85058  Biso   1.000  C
  H67      1.0000 0.26219  0.75468  0.46353  Biso   1.000  H
  H68      1.0000 0.22599  0.69212  0.39817  Biso   1.000  H
  H69      1.0000 0.22528  0.68522  0.48459  Biso   1.000  H
  C58      1.0000 0.99401  0.87888  0.40058  Biso   1.000  C
  H70      1.0000 0.91478  0.31102  0.80200  Biso   1.000  H
  C59      1.0000 0.91847  0.20651  0.85879  Biso   1.000  C
  H71      1.0000 0.00611  0.93162  0.41350  Biso   1.000  H
  H72      1.0000 0.98538  0.85531  0.44391  Biso   1.000  H
  H73      1.0000 0.95300  0.87568  0.35182  Biso   1.000  H
  C60      1.0000 0.87972  0.16393  0.79011  Biso   1.000  C
  C61      1.0000 0.93809  0.17237  0.93289  Biso   1.000  C
  H74      1.0000 0.86599  0.18602  0.73930  Biso   1.000  H
  C62      1.0000 0.86169  0.08921  0.79711  Biso   1.000  C
  C63      1.0000 0.91890  0.09749  0.94068  Biso   1.000  C
  H75      1.0000 0.96468  0.19971  0.97888  Biso   1.000  H
  O7       1.0000 0.82630  0.04030  0.73441  Biso   1.000  O
  C64      1.0000 0.88210  0.05622  0.87412  Biso   1.000  C
  H76      1.0000 0.93129  0.07608  0.99161  Biso   1.000  H
  C65      1.0000 0.80980  0.06147  0.65880  Biso   1.000  C
  O8       1.0000 0.86147  0.98134  0.87399  Biso   1.000  O
  H77      1.0000 0.78491  0.02100  0.62331  Biso   1.000  H
  H78      1.0000 0.85132  0.07249  0.65053  Biso   1.000  H
  H79      1.0000 0.78129  0.10628  0.64781  Biso   1.000  H
  C66      1.0000 0.88248  0.94378  0.94967  Biso   1.000  C
  H80      1.0000 0.86520  0.89252  0.94158  Biso   1.000  H
  H81      1.0000 0.86430  0.97072  0.98353  Biso   1.000  H
  H82      1.0000 0.93217  0.94298  0.97508  Biso   1.000  H
  C67      1.0000 0.50220  0.60280  0.53437  Biso   1.000  C
  C68      1.0000 0.54309  0.65668  0.59798  Biso   1.000  C
  H83      1.0000 0.45371  0.61067  0.52140  Biso   1.000  H
  H84      1.0000 0.51181  0.61102  0.48718  Biso   1.000  H
  H85      1.0000 0.51448  0.55143  0.55320  Biso   1.000  H
  C69      1.0000 0.62080  0.64749  0.62321  Biso   1.000  C
  C70      1.0000 0.52721  0.63898  0.66889  Biso   1.000  C
  C71      1.0000 0.51742  0.73248  0.57523  Biso   1.000  C
  C72      1.0000 0.66559  0.70942  0.65259  Biso   1.000  C
  C73      1.0000 0.65150  0.57711  0.62182  Biso   1.000  C
  H86      1.0000 0.47832  0.64389  0.65471  Biso   1.000  H
  H87      1.0000 0.54142  0.58761  0.68621  Biso   1.000  H
  H88      1.0000 0.55171  0.67380  0.71180  Biso   1.000  H
  H89      1.0000 0.46819  0.73322  0.56063  Biso   1.000  H
  H90      1.0000 0.53939  0.76650  0.61971  Biso   1.000  H
  H91      1.0000 0.52732  0.74857  0.53003  Biso   1.000  H
  C74      1.0000 0.73758  0.70348  0.68078  Biso   1.000  C
  H92      1.0000 0.64640  0.75708  0.65350  Biso   1.000  H
  H93      1.0000 0.62299  0.53482  0.60239  Biso   1.000  H
  C75      1.0000 0.72282  0.56769  0.64831  Biso   1.000  C
  C76      1.0000 0.78129  0.77129  0.72230  Biso   1.000  C
  C77      1.0000 0.76518  0.63162  0.67601  Biso   1.000  C
  C78      1.0000 0.75322  0.48813  0.64801  Biso   1.000  C
  C79      1.0000 0.76708  0.79361  0.79532  Biso   1.000  C
  H94      1.0000 0.83000  0.75868  0.73889  Biso   1.000  H
  H95      1.0000 0.77089  0.81393  0.68512  Biso   1.000  H
  O9       1.0000 0.83704  0.62175  0.70564  Biso   1.000  O
  H96      1.0000 0.80020  0.49349  0.65121  Biso   1.000  H
  H97      1.0000 0.72611  0.46301  0.59738  Biso   1.000  H
  C80      1.0000 0.75412  0.43818  0.71711  Biso   1.000  C
  C81      1.0000 0.72292  0.85371  0.79230  Biso   1.000  C
  C82      1.0000 0.79328  0.74960  0.86592  Biso   1.000  C
  C83      1.0000 0.86819  0.64058  0.64928  Biso   1.000  C
  C84      1.0000 0.70891  0.37551  0.70142  Biso   1.000  C
  C85      1.0000 0.79664  0.45360  0.79719  Biso   1.000  C
  C86      1.0000 0.70197  0.86998  0.85458  Biso   1.000  C
  H98      1.0000 0.70659  0.88430  0.74650  Biso   1.000  H
  O10      1.0000 0.83836  0.69212  0.86647  Biso   1.000  O
  C87      1.0000 0.77381  0.76290  0.93031  Biso   1.000  C
  H99      1.0000 0.83729  0.62591  0.59520  Biso   1.000  H
  H100     1.0000 0.87590  0.69521  0.64982  Biso   1.000  H
  C88      1.0000 0.93630  0.59897  0.67251  Biso   1.000  C
  H101     1.0000 0.67911  0.36570  0.64831  Biso   1.000  H
  C89      1.0000 0.70688  0.32728  0.76170  Biso   1.000  C
  O11      1.0000 0.84366  0.51301  0.82048  Biso   1.000  O
  C90      1.0000 0.79395  0.40902  0.85989  Biso   1.000  C
  C91      1.0000 0.72781  0.82289  0.92229  Biso   1.000  C
  C92      1.0000 0.65209  0.93607  0.84999  Biso   1.000  C
  H102     1.0000 0.84832  0.66672  0.90768  Biso   1.000  H
  C93      1.0000 0.80099  0.71473  0.00508  Biso   1.000  C
  N3       1.0000 0.92416  0.51672  0.65917  Biso   1.000  N
  H103     1.0000 0.96488  0.60850  0.72887  Biso   1.000  H
  H104     1.0000 0.96079  0.61792  0.64053  Biso   1.000  H
  C94      1.0000 0.75040  0.34600  0.84052  Biso   1.000  C
  C95      1.0000 0.65569  0.25970  0.74143  Biso   1.000  C
  H105     1.0000 0.83677  0.54138  0.78198  Biso   1.000  H
  C96      1.0000 0.83148  0.43487  0.94649  Biso   1.000  C
  H106     1.0000 0.71351  0.83191  0.96423  Biso   1.000  H
  C97      1.0000 0.59010  0.90491  0.86188  Biso   1.000  C
  C98      1.0000 0.68979  0.99361  0.91559  Biso   1.000  C
  C99      1.0000 0.62810  0.97831  0.77088  Biso   1.000  C
  C100     1.0000 0.77528  0.63271  0.99138  Biso   1.000  C
  H107     1.0000 0.85128  0.71450  0.02620  Biso   1.000  H
  H108     1.0000 0.78739  0.73761  0.04558  Biso   1.000  H
  C101     1.0000 0.97548  0.47329  0.67800  Biso   1.000  C
  H109     1.0000 0.75018  0.31478  0.88210  Biso   1.000  H
  C102     1.0000 0.58393  0.29053  0.71982  Biso   1.000  C
  C103     1.0000 0.67072  0.20702  0.81282  Biso   1.000  C
  C104     1.0000 0.65641  0.21438  0.67221  Biso   1.000  C
  H110     1.0000 0.83618  0.39241  0.98288  Biso   1.000  H
  H111     1.0000 0.87759  0.45280  0.95499  Biso   1.000  H
  C105     1.0000 0.79001  0.49932  0.96381  Biso   1.000  C
  H112     1.0000 0.56668  0.86849  0.82018  Biso   1.000  H
  H113     1.0000 0.60499  0.88031  0.91360  Biso   1.000  H
  H114     1.0000 0.55901  0.94589  0.85959  Biso   1.000  H
  H115     1.0000 0.70430  0.96929  0.96743  Biso   1.000  H
  H116     1.0000 0.65908  0.03522  0.91299  Biso   1.000  H
  H117     1.0000 0.72959  0.01261  0.90798  Biso   1.000  H
  H118     1.0000 0.60272  0.94418  0.72773  Biso   1.000  H
  H119     1.0000 0.66772  0.99777  0.76273  Biso   1.000  H
  H120     1.0000 0.59871  0.01998  0.77190  Biso   1.000  H
  C106     1.0000 0.70680  0.61701  0.97889  Biso   1.000  C
  C107     1.0000 0.81716  0.57232  0.98752  Biso   1.000  C
  C108     1.0000 0.97042  0.39081  0.66388  Biso   1.000  C
  H121     1.0000 0.01942  0.49469  0.70232  Biso   1.000  H
  H122     1.0000 0.57219  0.32409  0.67432  Biso   1.000  H
  H123     1.0000 0.55138  0.24897  0.70648  Biso   1.000  H
  H124     1.0000 0.58199  0.31809  0.76490  Biso   1.000  H
  H125     1.0000 0.63808  0.16558  0.79779  Biso   1.000  H
  H126     1.0000 0.71690  0.18699  0.82941  Biso   1.000  H
  H127     1.0000 0.66679  0.23487  0.85669  Biso   1.000  H
  H128     1.0000 0.64662  0.24732  0.62640  Biso   1.000  H
  H129     1.0000 0.70130  0.19161  0.68639  Biso   1.000  H
  H130     1.0000 0.62190  0.17511  0.65911  Biso   1.000  H
  C109     1.0000 0.72117  0.48670  0.95137  Biso   1.000  C
  C110     1.0000 0.67870  0.54389  0.96121  Biso   1.000  C
  H131     1.0000 0.67872  0.65679  0.98239  Biso   1.000  H
  O12      1.0000 0.88715  0.58670  0.00502  Biso   1.000  O
  C111     1.0000 0.90517  0.35479  0.63238  Biso   1.000  C
  C112     1.0000 0.02828  0.34812  0.67740  Biso   1.000  C
  H132     1.0000 0.70260  0.43818  0.93580  Biso   1.000  H
  C113     1.0000 0.60498  0.52683  0.95312  Biso   1.000  C
  C114     1.0000 0.92847  0.58271  0.09072  Biso   1.000  C
  H133     1.0000 0.86531  0.38328  0.62333  Biso   1.000  H
  C115     1.0000 0.89968  0.27820  0.61518  Biso   1.000  C
  C116     1.0000 0.02370  0.26958  0.66008  Biso   1.000  C
  H134     1.0000 0.07162  0.37140  0.69840  Biso   1.000  H
  C117     1.0000 0.55457  0.58482  0.90587  Biso   1.000  C
  C118     1.0000 0.57987  0.45091  0.92289  Biso   1.000  C
  C119     1.0000 0.60517  0.53362  0.03797  Biso   1.000  C
  H135     1.0000 0.91108  0.61929  0.11848  Biso   1.000  H
  H136     1.0000 0.92420  0.53208  0.11021  Biso   1.000  H
  C120     1.0000 0.00292  0.59892  0.10930  Biso   1.000  C
  O13      1.0000 0.83881  0.23824  0.58307  Biso   1.000  O
  C121     1.0000 0.96061  0.23510  0.62930  Biso   1.000  C
  H137     1.0000 0.06368  0.24138  0.66961  Biso   1.000  H
  H138     1.0000 0.55069  0.58379  0.85108  Biso   1.000  H
  H139     1.0000 0.51012  0.57397  0.90720  Biso   1.000  H
  H140     1.0000 0.56990  0.63442  0.92862  Biso   1.000  H
  H141     1.0000 0.57849  0.44532  0.86942  Biso   1.000  H
  H142     1.0000 0.61030  0.41330  0.95771  Biso   1.000  H
  H143     1.0000 0.53409  0.44418  0.92168  Biso   1.000  H
  H144     1.0000 0.55949  0.52329  0.03568  Biso   1.000  H
  H145     1.0000 0.63741  0.49749  0.07322  Biso   1.000  H
  H146     1.0000 0.61881  0.58442  0.05813  Biso   1.000  H
  N4       1.0000 0.01448  0.67831  0.09331  Biso   1.000  N
  H147     1.0000 0.01869  0.56581  0.07690  Biso   1.000  H
  H148     1.0000 0.03010  0.58750  0.16561  Biso   1.000  H
  C122     1.0000 0.77630  0.27991  0.55713  Biso   1.000  C
  O14      1.0000 0.95039  0.15930  0.61011  Biso   1.000  O
  C123     1.0000 0.06178  0.71410  0.14937  Biso   1.000  C
  H149     1.0000 0.73780  0.24532  0.53649  Biso   1.000  H
  H150     1.0000 0.77398  0.30788  0.60178  Biso   1.000  H
  H151     1.0000 0.77471  0.31478  0.51543  Biso   1.000  H
  C124     1.0000 0.00602  0.12112  0.59943  Biso   1.000  C
  H152     1.0000 0.08521  0.68898  0.19801  Biso   1.000  H
  C125     1.0000 0.08151  0.79349  0.14123  Biso   1.000  C
  H153     1.0000 0.99393  0.06838  0.58651  Biso   1.000  H
  H154     1.0000 0.01461  0.14469  0.55610  Biso   1.000  H
  H155     1.0000 0.04699  0.12432  0.64819  Biso   1.000  H
  C126     1.0000 0.12031  0.83607  0.20990  Biso   1.000  C
  C127     1.0000 0.06190  0.82763  0.06712  Biso   1.000  C
  H156     1.0000 0.13399  0.81398  0.26071  Biso   1.000  H
  C128     1.0000 0.13829  0.91079  0.20290  Biso   1.000  C
  C129     1.0000 0.08107  0.90251  0.05927  Biso   1.000  C
  H157     1.0000 0.03529  0.80029  0.02108  Biso   1.000  H
  O15      1.0000 0.17369  0.95970  0.26560  Biso   1.000  O
  C130     1.0000 0.11789  0.94378  0.12590  Biso   1.000  C
  H158     1.0000 0.06870  0.92392  0.00840  Biso   1.000  H
  C131     1.0000 0.19019  0.93853  0.34122  Biso   1.000  C
  O16      1.0000 0.13852  0.01866  0.12602  Biso   1.000  O
  H159     1.0000 0.21508  0.97900  0.37670  Biso   1.000  H
  H160     1.0000 0.14871  0.92751  0.34948  Biso   1.000  H
  H161     1.0000 0.21870  0.89372  0.35220  Biso   1.000  H
  C132     1.0000 0.11749  0.05622  0.05028  Biso   1.000  C
  H162     1.0000 0.13479  0.10748  0.05843  Biso   1.000  H
  H163     1.0000 0.13569  0.02928  0.01649  Biso   1.000  H
  H164     1.0000 0.06780  0.05702  0.02488  Biso   1.000  H
  C133     1.0000 0.59011  0.59509  0.36190  Biso   1.000  C
  C134     1.0000 0.65210  0.56393  0.35001  Biso   1.000  C
  H165     1.0000 0.56669  0.63151  0.32020  Biso   1.000  H
  H166     1.0000 0.60501  0.61969  0.41362  Biso   1.000  H
  H167     1.0000 0.55902  0.55411  0.35961  Biso   1.000  H
  C135     1.0000 0.70199  0.63002  0.35460  Biso   1.000  C
  C136     1.0000 0.68981  0.50639  0.41561  Biso   1.000  C
  C137     1.0000 0.62812  0.52169  0.27090  Biso   1.000  C
  C138     1.0000 0.72783  0.67711  0.42231  Biso   1.000  C
  C139     1.0000 0.72289  0.64629  0.29232  Biso   1.000  C
  H168     1.0000 0.65909  0.46478  0.41302  Biso   1.000  H
  H169     1.0000 0.70430  0.53071  0.46739  Biso   1.000  H
  H170     1.0000 0.72961  0.48739  0.40801  Biso   1.000  H
  H171     1.0000 0.60271  0.55582  0.22769  Biso   1.000  H
  H172     1.0000 0.59872  0.48002  0.27192  Biso   1.000  H
  H173     1.0000 0.66771  0.50223  0.26269  Biso   1.000  H
  C140     1.0000 0.77380  0.73710  0.43028  Biso   1.000  C
  H174     1.0000 0.71351  0.66809  0.46419  Biso   1.000  H
  C141     1.0000 0.76707  0.70639  0.29528  Biso   1.000  C
  H175     1.0000 0.70661  0.61570  0.24652  Biso   1.000  H
  C142     1.0000 0.80101  0.78527  0.50511  Biso   1.000  C
  C143     1.0000 0.79327  0.75040  0.36589  Biso   1.000  C
  C144     1.0000 0.78130  0.72871  0.22232  Biso   1.000  C
  C145     1.0000 0.77530  0.86729  0.49141  Biso   1.000  C
  H176     1.0000 0.85130  0.78550  0.52623  Biso   1.000  H
  H177     1.0000 0.78741  0.76239  0.54560  Biso   1.000  H
  O17      1.0000 0.83838  0.80788  0.36649  Biso   1.000  O
  H178     1.0000 0.83001  0.74132  0.23891  Biso   1.000  H
  H179     1.0000 0.77088  0.68607  0.18508  Biso   1.000  H
  C146     1.0000 0.73759  0.79652  0.18080  Biso   1.000  C
  C147     1.0000 0.70682  0.88299  0.47892  Biso   1.000  C
  C148     1.0000 0.81715  0.92768  0.48748  Biso   1.000  C
  H180     1.0000 0.84829  0.83328  0.40771  Biso   1.000  H
  C149     1.0000 0.66561  0.79058  0.15262  Biso   1.000  C
  C150     1.0000 0.76518  0.86838  0.17597  Biso   1.000  C
  C151     1.0000 0.67869  0.95611  0.46117  Biso   1.000  C
  H181     1.0000 0.67869  0.84321  0.48242  Biso   1.000  H
  O18      1.0000 0.88716  0.91330  0.50505  Biso   1.000  O
  C152     1.0000 0.79003  0.00068  0.46383  Biso   1.000  C
  H182     1.0000 0.64642  0.74292  0.15352  Biso   1.000  H
  C153     1.0000 0.62081  0.85251  0.12323  Biso   1.000  C
  O19      1.0000 0.83703  0.87825  0.20560  Biso   1.000  O
  C154     1.0000 0.72281  0.93231  0.14827  Biso   1.000  C
  C155     1.0000 0.60498  0.97317  0.45309  Biso   1.000  C
  C156     1.0000 0.72119  0.01330  0.45140  Biso   1.000  C
  C157     1.0000 0.92846  0.91729  0.59068  Biso   1.000  C
  C158     1.0000 0.83149  0.06513  0.44651  Biso   1.000  C
  C159     1.0000 0.65149  0.92289  0.12178  Biso   1.000  C
  C160     1.0000 0.54311  0.84332  0.09800  Biso   1.000  C
  C161     1.0000 0.86820  0.85942  0.14930  Biso   1.000  C
  C162     1.0000 0.75317  0.01187  0.14797  Biso   1.000  C
  C163     1.0000 0.60519  0.96638  0.53800  Biso   1.000  C
  C164     1.0000 0.55458  0.91518  0.40590  Biso   1.000  C
  C165     1.0000 0.57989  0.04909  0.42291  Biso   1.000  C
  H183     1.0000 0.70261  0.06182  0.43583  Biso   1.000  H
  H184     1.0000 0.91110  0.88071  0.61850  Biso   1.000  H
  H185     1.0000 0.92420  0.96792  0.61017  Biso   1.000  H
  C166     1.0000 0.00289  0.90108  0.60933  Biso   1.000  C
  C167     1.0000 0.79397  0.09098  0.35991  Biso   1.000  C
  H186     1.0000 0.83619  0.10759  0.48290  Biso   1.000  H
  H187     1.0000 0.87761  0.04720  0.45502  Biso   1.000  H
  H188     1.0000 0.62301  0.96518  0.10241  Biso   1.000  H
  C168     1.0000 0.52723  0.86102  0.16891  Biso   1.000  C
  C169     1.0000 0.51741  0.76752  0.07519  Biso   1.000  C
  C170     1.0000 0.50221  0.89720  0.03440  Biso   1.000  C
  H189     1.0000 0.83730  0.87409  0.09523  Biso   1.000  H
  H190     1.0000 0.87590  0.80479  0.14978  Biso   1.000  H
  C171     1.0000 0.93630  0.90103  0.17247  Biso   1.000  C
  H191     1.0000 0.80022  0.00651  0.15123  Biso   1.000  H
  H192     1.0000 0.72608  0.03699  0.09740  Biso   1.000  H
  C172     1.0000 0.75409  0.06182  0.21713  Biso   1.000  C
  H193     1.0000 0.55951  0.97671  0.53570  Biso   1.000  H
  H194     1.0000 0.61881  0.91558  0.55809  Biso   1.000  H
  H195     1.0000 0.63741  0.00251  0.57318  Biso   1.000  H
  H196     1.0000 0.55071  0.91621  0.35110  Biso   1.000  H
  H197     1.0000 0.51009  0.92603  0.40722  Biso   1.000  H
  H198     1.0000 0.56989  0.86558  0.42859  Biso   1.000  H
  H199     1.0000 0.57849  0.05468  0.36939  Biso   1.000  H
  H200     1.0000 0.61030  0.08670  0.45767  Biso   1.000  H
  H201     1.0000 0.53410  0.05582  0.42171  Biso   1.000  H
  N5       1.0000 0.01447  0.82169  0.59327  Biso   1.000  N
  H202     1.0000 0.01870  0.93419  0.57692  Biso   1.000  H
  H203     1.0000 0.03011  0.91250  0.66563  Biso   1.000  H
  C173     1.0000 0.75040  0.15400  0.34048  Biso   1.000  C
  C174     1.0000 0.79666  0.04640  0.29721  Biso   1.000  C
  H204     1.0000 0.47827  0.85611  0.15467  Biso   1.000  H
  H205     1.0000 0.54137  0.91239  0.18617  Biso   1.000  H
  H206     1.0000 0.55172  0.82620  0.21182  Biso   1.000  H
  H207     1.0000 0.46819  0.76678  0.06059  Biso   1.000  H
  H208     1.0000 0.53941  0.73350  0.11973  Biso   1.000  H
  H209     1.0000 0.52732  0.75143  0.02999  Biso   1.000  H
  H210     1.0000 0.45373  0.88933  0.02142  Biso   1.000  H
  H211     1.0000 0.51450  0.94857  0.05323  Biso   1.000  H
  H212     1.0000 0.51183  0.88898  0.98721  Biso   1.000  H
  N6       1.0000 0.92418  0.98328  0.15920  Biso   1.000  N
  H213     1.0000 0.96489  0.89150  0.22890  Biso   1.000  H
  H214     1.0000 0.96078  0.88208  0.14049  Biso   1.000  H
  C175     1.0000 0.70891  0.12449  0.20138  Biso   1.000  C
  C176     1.0000 0.06179  0.78590  0.64940  Biso   1.000  C
  C177     1.0000 0.70690  0.17272  0.26173  Biso   1.000  C
  H215     1.0000 0.75020  0.18522  0.38212  Biso   1.000  H
  O20      1.0000 0.84368  0.98699  0.32050  Biso   1.000  O
  C178     1.0000 0.97550  0.02671  0.17802  Biso   1.000  C
  H216     1.0000 0.67910  0.13430  0.14827  Biso   1.000  H
  H217     1.0000 0.08520  0.81102  0.69798  Biso   1.000  H
  C179     1.0000 0.08151  0.70651  0.64119  Biso   1.000  C
  C180     1.0000 0.65568  0.24030  0.24139  Biso   1.000  C
  H218     1.0000 0.83679  0.95862  0.28200  Biso   1.000  H
  C181     1.0000 0.97038  0.10919  0.16390  Biso   1.000  C
  H219     1.0000 0.01942  0.00531  0.20228  Biso   1.000  H
  C182     1.0000 0.12033  0.66393  0.70992  Biso   1.000  C
  C183     1.0000 0.06189  0.67237  0.56708  Biso   1.000  C
  C184     1.0000 0.58388  0.20947  0.21978  Biso   1.000  C
  C185     1.0000 0.67071  0.29298  0.31278  Biso   1.000  C
  C186     1.0000 0.65641  0.28562  0.17217  Biso   1.000  C
  C187     1.0000 0.90519  0.14521  0.13240  Biso   1.000  C
  C188     1.0000 0.02830  0.15188  0.17742  Biso   1.000  C
  H220     1.0000 0.13399  0.68602  0.76068  Biso   1.000  H
  C189     1.0000 0.13831  0.58921  0.70292  Biso   1.000  C
  C190     1.0000 0.08109  0.59749  0.55930  Biso   1.000  C
  H221     1.0000 0.03531  0.69971  0.52110  Biso   1.000  H
  H222     1.0000 0.57218  0.17591  0.17428  Biso   1.000  H
  H223     1.0000 0.55140  0.25103  0.20651  Biso   1.000  H
  H224     1.0000 0.58200  0.18191  0.26492  Biso   1.000  H
  H225     1.0000 0.63809  0.33442  0.29781  Biso   1.000  H
  H226     1.0000 0.71689  0.31301  0.32938  Biso   1.000  H
  H227     1.0000 0.66681  0.26513  0.35671  Biso   1.000  H
  H228     1.0000 0.64663  0.25268  0.12643  Biso   1.000  H
  H229     1.0000 0.70131  0.30839  0.18641  Biso   1.000  H
  H230     1.0000 0.62189  0.32489  0.15908  Biso   1.000  H
  H231     1.0000 0.86530  0.11672  0.12329  Biso   1.000  H
  C191     1.0000 0.89969  0.22180  0.11520  Biso   1.000  C
  C192     1.0000 0.02372  0.23042  0.16010  Biso   1.000  C
  H232     1.0000 0.07159  0.12860  0.19842  Biso   1.000  H
  O21      1.0000 0.17370  0.54030  0.76563  Biso   1.000  O
  C193     1.0000 0.11790  0.55622  0.62592  Biso   1.000  C
  H233     1.0000 0.06872  0.57608  0.50843  Biso   1.000  H
  O22      1.0000 0.83882  0.26176  0.08310  Biso   1.000  O
  C194     1.0000 0.96063  0.26490  0.12932  Biso   1.000  C
  H234     1.0000 0.06368  0.25862  0.16958  Biso   1.000  H
  C195     1.0000 0.19019  0.56147  0.84118  Biso   1.000  C
  O23      1.0000 0.13851  0.48134  0.62598  Biso   1.000  O
  C196     1.0000 0.77629  0.22009  0.05709  Biso   1.000  C
  O24      1.0000 0.95039  0.34070  0.11007  Biso   1.000  O
  H235     1.0000 0.21510  0.52100  0.87672  Biso   1.000  H
  H236     1.0000 0.14868  0.57249  0.84951  Biso   1.000  H
  H237     1.0000 0.21871  0.60628  0.85222  Biso   1.000  H
  C197     1.0000 0.11751  0.44378  0.55031  Biso   1.000  C
  H238     1.0000 0.73782  0.25468  0.03651  Biso   1.000  H
  H239     1.0000 0.77399  0.19212  0.10181  Biso   1.000  H
  H240     1.0000 0.77471  0.18522  0.01539  Biso   1.000  H
  C198     1.0000 0.00602  0.37888  0.09939  Biso   1.000  C
  H241     1.0000 0.13478  0.39252  0.55839  Biso   1.000  H
  H242     1.0000 0.13571  0.47072  0.51651  Biso   1.000  H
  H243     1.0000 0.06782  0.44298  0.52490  Biso   1.000  H
  H244     1.0000 0.99387  0.43162  0.08648  Biso   1.000  H
  H245     1.0000 0.01462  0.35531  0.05612  Biso   1.000  H
  H246     1.0000 0.04700  0.37568  0.14821  Biso   1.000  H
  C199     1.0000 0.40992  0.40491  0.63811  Biso   1.000  C
  C200     1.0000 0.34789  0.43607  0.65000  Biso   1.000  C
  H247     1.0000 0.43329  0.36849  0.67981  Biso   1.000  H
  H248     1.0000 0.39498  0.38031  0.58639  Biso   1.000  H
  H249     1.0000 0.44102  0.44589  0.64040  Biso   1.000  H
  C201     1.0000 0.29800  0.36998  0.64541  Biso   1.000  C
  C202     1.0000 0.31018  0.49361  0.58440  Biso   1.000  C
  C203     1.0000 0.37192  0.47831  0.72912  Biso   1.000  C
  C204     1.0000 0.27221  0.32289  0.57770  Biso   1.000  C
  C205     1.0000 0.27710  0.35371  0.70769  Biso   1.000  C
  H250     1.0000 0.34090  0.53522  0.58700  Biso   1.000  H
  H251     1.0000 0.29569  0.46929  0.53262  Biso   1.000  H
  H252     1.0000 0.27038  0.51261  0.59201  Biso   1.000  H
  H253     1.0000 0.39732  0.44418  0.77232  Biso   1.000  H
  H254     1.0000 0.40131  0.51998  0.72809  Biso   1.000  H
  H255     1.0000 0.33232  0.49777  0.73732  Biso   1.000  H
  C206     1.0000 0.22621  0.26290  0.56968  Biso   1.000  C
  H256     1.0000 0.28653  0.33191  0.53582  Biso   1.000  H
  C207     1.0000 0.23294  0.29361  0.70467  Biso   1.000  C
  H257     1.0000 0.29338  0.38430  0.75350  Biso   1.000  H
  C208     1.0000 0.19898  0.21473  0.49491  Biso   1.000  C
  C209     1.0000 0.20672  0.24960  0.63413  Biso   1.000  C
  C210     1.0000 0.21869  0.27129  0.77769  Biso   1.000  C
  C211     1.0000 0.22469  0.13271  0.50861  Biso   1.000  C
  H258     1.0000 0.14869  0.21450  0.47379  Biso   1.000  H
  H259     1.0000 0.21263  0.23761  0.45441  Biso   1.000  H
  O25      1.0000 0.16161  0.19212  0.63353  Biso   1.000  O
  H260     1.0000 0.16998  0.25868  0.76110  Biso   1.000  H
  H261     1.0000 0.22910  0.31393  0.81493  Biso   1.000  H
  C212     1.0000 0.26240  0.20348  0.81921  Biso   1.000  C
  C213     1.0000 0.29322  0.11701  0.52110  Biso   1.000  C
  C214     1.0000 0.18283  0.07232  0.51253  Biso   1.000  C
  H262     1.0000 0.15170  0.16672  0.59231  Biso   1.000  H
  C215     1.0000 0.33438  0.20942  0.84740  Biso   1.000  C
  C216     1.0000 0.23479  0.13162  0.82398  Biso   1.000  C
  C217     1.0000 0.32128  0.04389  0.53878  Biso   1.000  C
  H263     1.0000 0.32130  0.15679  0.51760  Biso   1.000  H
  O26      1.0000 0.11283  0.08670  0.49497  Biso   1.000  O
  C218     1.0000 0.21001  0.99932  0.53619  Biso   1.000  C
  H264     1.0000 0.35362  0.25708  0.84649  Biso   1.000  H
  C219     1.0000 0.37918  0.14749  0.87678  Biso   1.000  C
  O27      1.0000 0.16294  0.12175  0.79435  Biso   1.000  O
  C220     1.0000 0.27720  0.06769  0.85168  Biso   1.000  C
  C221     1.0000 0.39501  0.02683  0.54693  Biso   1.000  C
  C222     1.0000 0.27880  0.98670  0.54862  Biso   1.000  C
  C223     1.0000 0.07155  0.08271  0.40927  Biso   1.000  C
  C224     1.0000 0.16849  0.93487  0.55350  Biso   1.000  C
  C225     1.0000 0.34847  0.07711  0.87817  Biso   1.000  C
  C226     1.0000 0.45688  0.15668  0.90201  Biso   1.000  C
  C227     1.0000 0.13179  0.14058  0.85071  Biso   1.000  C
  C228     1.0000 0.24680  0.98813  0.85198  Biso   1.000  C
  C229     1.0000 0.39480  0.03362  0.46202  Biso   1.000  C
  C230     1.0000 0.44541  0.08482  0.59412  Biso   1.000  C
  C231     1.0000 0.42010  0.95091  0.57710  Biso   1.000  C
  H265     1.0000 0.29737  0.93818  0.56419  Biso   1.000  H
  H266     1.0000 0.08889  0.11929  0.38152  Biso   1.000  H
  H267     1.0000 0.07577  0.03208  0.38978  Biso   1.000  H
  C232     1.0000 0.99710  0.09892  0.39069  Biso   1.000  C
  C233     1.0000 0.20602  0.90902  0.64010  Biso   1.000  C
  H268     1.0000 0.16380  0.89241  0.51712  Biso   1.000  H
  H269     1.0000 0.12238  0.95280  0.54500  Biso   1.000  H
  H270     1.0000 0.37698  0.03482  0.89760  Biso   1.000  H
  C234     1.0000 0.47281  0.13898  0.83110  Biso   1.000  C
  C235     1.0000 0.48262  0.23248  0.92482  Biso   1.000  C
  C236     1.0000 0.49782  0.10280  0.96562  Biso   1.000  C
  H271     1.0000 0.16268  0.12591  0.90479  Biso   1.000  H
  H272     1.0000 0.12407  0.19521  0.85017  Biso   1.000  H
  C237     1.0000 0.06367  0.09897  0.82748  Biso   1.000  C
  C238     1.0000 0.24590  0.93818  0.78288  Biso   1.000  C
  H273     1.0000 0.19982  0.99349  0.84878  Biso   1.000  H
  H274     1.0000 0.27391  0.96301  0.90261  Biso   1.000  H
  H275     1.0000 0.44053  0.02329  0.46431  Biso   1.000  H
  H276     1.0000 0.38123  0.08442  0.44192  Biso   1.000  H
  H277     1.0000 0.36261  0.99749  0.42678  Biso   1.000  H
  H278     1.0000 0.44928  0.08379  0.64891  Biso   1.000  H
  H279     1.0000 0.48990  0.07397  0.59279  Biso   1.000  H
  H280     1.0000 0.43009  0.13442  0.57143  Biso   1.000  H
  H281     1.0000 0.42150  0.94532  0.63063  Biso   1.000  H
  H282     1.0000 0.38972  0.91330  0.54228  Biso   1.000  H
  H283     1.0000 0.46588  0.94418  0.57831  Biso   1.000  H
  N7       1.0000 0.98554  0.17831  0.40668  Biso   1.000  N
  H284     1.0000 0.98129  0.06581  0.42309  Biso   1.000  H
  H285     1.0000 0.96988  0.08750  0.33438  Biso   1.000  H
  C239     1.0000 0.24957  0.84600  0.65947  Biso   1.000  C
  C240     1.0000 0.20333  0.95360  0.70280  Biso   1.000  C
  H286     1.0000 0.52170  0.14389  0.84528  Biso   1.000  H
  H287     1.0000 0.45860  0.08761  0.81378  Biso   1.000  H
  H288     1.0000 0.44832  0.17380  0.78820  Biso   1.000  H
  H289     1.0000 0.53180  0.23322  0.93943  Biso   1.000  H
  H290     1.0000 0.46058  0.26650  0.88028  Biso   1.000  H
  H291     1.0000 0.47272  0.24857  0.97002  Biso   1.000  H
  H292     1.0000 0.54631  0.11067  0.97859  Biso   1.000  H
  H293     1.0000 0.48549  0.05143  0.94679  Biso   1.000  H
  H294     1.0000 0.48821  0.11102  0.01281  Biso   1.000  H
  N8       1.0000 0.07581  0.01672  0.84082  Biso   1.000  N
  H295     1.0000 0.03510  0.10850  0.77112  Biso   1.000  H
  H296     1.0000 0.03920  0.11792  0.85953  Biso   1.000  H
  C241     1.0000 0.29111  0.87551  0.79857  Biso   1.000  C
  C242     1.0000 0.93820  0.21410  0.35062  Biso   1.000  C
  C243     1.0000 0.29309  0.82728  0.73829  Biso   1.000  C
  H297     1.0000 0.24979  0.81478  0.61790  Biso   1.000  H
  O28      1.0000 0.15636  0.01301  0.67951  Biso   1.000  O
  C244     1.0000 0.02449  0.97329  0.82199  Biso   1.000  C
  H298     1.0000 0.32091  0.86570  0.85168  Biso   1.000  H
  H299     1.0000 0.91481  0.18898  0.30198  Biso   1.000  H
  C245     1.0000 0.91853  0.29349  0.35882  Biso   1.000  C
  C246     1.0000 0.34431  0.75970  0.75862  Biso   1.000  C
  H300     1.0000 0.16320  0.04138  0.71801  Biso   1.000  H
  H301     1.0000 0.98062  0.99469  0.79773  Biso   1.000  H
  C247     1.0000 0.02961  0.89081  0.83611  Biso   1.000  C
  C248     1.0000 0.87971  0.33607  0.29009  Biso   1.000  C
  C249     1.0000 0.93808  0.32763  0.43287  Biso   1.000  C
  C250     1.0000 0.41611  0.79053  0.78023  Biso   1.000  C
  C251     1.0000 0.32931  0.70702  0.68717  Biso   1.000  C
  C252     1.0000 0.34361  0.71438  0.82778  Biso   1.000  C
  C253     1.0000 0.97169  0.84812  0.82259  Biso   1.000  C
  C254     1.0000 0.09480  0.85479  0.86761  Biso   1.000  C
  H302     1.0000 0.86598  0.31398  0.23928  Biso   1.000  H
  C255     1.0000 0.86168  0.41079  0.29709  Biso   1.000  C
  C256     1.0000 0.91890  0.40251  0.44072  Biso   1.000  C
  H303     1.0000 0.96473  0.30029  0.47892  Biso   1.000  H
  H304     1.0000 0.42779  0.82409  0.82567  Biso   1.000  H
  H305     1.0000 0.44859  0.74897  0.79351  Biso   1.000  H
  H306     1.0000 0.41798  0.81809  0.73509  Biso   1.000  H
  H307     1.0000 0.36190  0.66558  0.70220  Biso   1.000  H
  H308     1.0000 0.28307  0.68699  0.67058  Biso   1.000  H
  H309     1.0000 0.33318  0.73487  0.64330  Biso   1.000  H
  H310     1.0000 0.35340  0.74732  0.87359  Biso   1.000  H
  H311     1.0000 0.29872  0.69161  0.81360  Biso   1.000  H
  H312     1.0000 0.37807  0.67511  0.84088  Biso   1.000  H
  C257     1.0000 0.97632  0.76958  0.83991  Biso   1.000  C
  H313     1.0000 0.92840  0.87140  0.80159  Biso   1.000  H
  H314     1.0000 0.13469  0.88328  0.87672  Biso   1.000  H
  C258     1.0000 0.10029  0.77820  0.88481  Biso   1.000  C
  O29      1.0000 0.82629  0.45970  0.23439  Biso   1.000  O
  C259     1.0000 0.88209  0.44378  0.37409  Biso   1.000  C
  H315     1.0000 0.93132  0.42392  0.49159  Biso   1.000  H
  H316     1.0000 0.93629  0.74138  0.83038  Biso   1.000  H
  C260     1.0000 0.03941  0.73510  0.87069  Biso   1.000  C
  O30      1.0000 0.16122  0.73824  0.91692  Biso   1.000  O
  C261     1.0000 0.80978  0.43853  0.15877  Biso   1.000  C
  O31      1.0000 0.86145  0.51866  0.37397  Biso   1.000  O
  O32      1.0000 0.04958  0.65930  0.88988  Biso   1.000  O
  C262     1.0000 0.22369  0.77991  0.94293  Biso   1.000  C
  H317     1.0000 0.78489  0.47900  0.12329  Biso   1.000  H
  H318     1.0000 0.85131  0.42751  0.15051  Biso   1.000  H
  H319     1.0000 0.78127  0.39372  0.14779  Biso   1.000  H
  C263     1.0000 0.88248  0.55622  0.44971  Biso   1.000  C
  C264     1.0000 0.99402  0.62112  0.90062  Biso   1.000  C
  H320     1.0000 0.26222  0.74532  0.96350  Biso   1.000  H
  H321     1.0000 0.22599  0.80788  0.89821  Biso   1.000  H
  H322     1.0000 0.22533  0.81478  0.98463  Biso   1.000  H
  H323     1.0000 0.86521  0.60748  0.44162  Biso   1.000  H
  H324     1.0000 0.86428  0.52928  0.48350  Biso   1.000  H
  H325     1.0000 0.93222  0.55702  0.47511  Biso   1.000  H
  H326     1.0000 0.98541  0.64469  0.94389  Biso   1.000  H
  H327     1.0000 0.95298  0.62432  0.85180  Biso   1.000  H
  H328     1.0000 0.00609  0.56838  0.91348  Biso   1.000  H
