data_image0
_cell_length_a       8.208
_cell_length_b       14.127
_cell_length_c       23.149
_cell_angle_alpha    98.93
_cell_angle_beta     97.91
_cell_angle_gamma    103.58

_symmetry_space_group_name_H-M    "P 1"
_symmetry_int_tables_number       1

loop_
  _symmetry_equiv_pos_as_xyz
  'x, y, z'

loop_
  _atom_site_label
  _atom_site_occupancy
  _atom_site_fract_x
  _atom_site_fract_y
  _atom_site_fract_z
  _atom_site_thermal_displace_type
  _atom_site_B_iso_or_equiv
  _atom_site_type_symbol
  C1       1.0000 0.94087  0.83115  0.79784  Biso   1.000  C
  O1       1.0000 0.90868  0.86357  0.74550  Biso   1.000  O
  C2       1.0000 0.96676  0.73803  0.80015  Biso   1.000  C
  C3       1.0000 0.94371  0.89817  0.84964  Biso   1.000  C
  C4       1.0000 0.92431  0.80414  0.69197  Biso   1.000  C
  H1       1.0000 0.96069  0.69267  0.76458  Biso   1.000  H
  C5       1.0000 0.00184  0.71185  0.85533  Biso   1.000  C
  C6       1.0000 0.98380  0.86982  0.90398  Biso   1.000  C
  C7       1.0000 0.91169  0.99869  0.84390  Biso   1.000  C
  H2       1.0000 0.84369  0.73857  0.68561  Biso   1.000  H
  H3       1.0000 0.89961  0.83636  0.65848  Biso   1.000  H
  H4       1.0000 0.04076  0.79656  0.69508  Biso   1.000  H
  C8       1.0000 0.01563  0.77849  0.90842  Biso   1.000  C
  O2       1.0000 0.02722  0.62075  0.86116  Biso   1.000  O
  H5       1.0000 0.98977  0.91519  0.93959  Biso   1.000  H
  H6       1.0000 0.82677  0.98648  0.80637  Biso   1.000  H
  C9       1.0000 0.82958  0.04161  0.89370  Biso   1.000  C
  C10      1.0000 0.07450  0.07001  0.83412  Biso   1.000  C
  C11      1.0000 0.06277  0.74727  0.96760  Biso   1.000  C
  C12      1.0000 0.97276  0.54246  0.81144  Biso   1.000  C
  C13      1.0000 0.65445  0.00563  0.89210  Biso   1.000  C
  C14      1.0000 0.91758  0.11973  0.94021  Biso   1.000  C
  H7       1.0000 0.12882  0.03248  0.80629  Biso   1.000  H
  H8       1.0000 0.15489  0.09329  0.87258  Biso   1.000  H
  C15      1.0000 0.04791  0.16054  0.80975  Biso   1.000  C
  C16      1.0000 0.90802  0.67933  0.98397  Biso   1.000  C
  H9       1.0000 0.14445  0.70591  0.96089  Biso   1.000  H
  C17      1.0000 0.15854  0.83502  0.01687  Biso   1.000  C
  H10      1.0000 0.97424  0.47961  0.82420  Biso   1.000  H
  H11      1.0000 0.85660  0.53956  0.79268  Biso   1.000  H
  H12      1.0000 0.04939  0.55368  0.78281  Biso   1.000  H
  O3       1.0000 0.56934  0.92637  0.84702  Biso   1.000  O
  C18      1.0000 0.57171  0.04901  0.93323  Biso   1.000  C
  C19      1.0000 0.84117  0.16500  0.98312  Biso   1.000  C
  H13      1.0000 0.03712  0.14376  0.94288  Biso   1.000  H
  H14      1.0000 0.97571  0.19161  0.83341  Biso   1.000  H
  C20      1.0000 0.96558  0.13829  0.74448  Biso   1.000  C
  H15      1.0000 0.15975  0.20952  0.81527  Biso   1.000  H
  H16      1.0000 0.84701  0.62818  0.94848  Biso   1.000  H
  H17      1.0000 0.82906  0.71920  0.99548  Biso   1.000  H
  C21      1.0000 0.95574  0.62805  0.03475  Biso   1.000  C
  C22      1.0000 0.08222  0.88022  0.05978  Biso   1.000  C
  C23      1.0000 0.33499  0.87198  0.02212  Biso   1.000  C
  C24      1.0000 0.38926  0.89004  0.84368  Biso   1.000  C
  H18      1.0000 0.45236  0.02462  0.93079  Biso   1.000  H
  C25      1.0000 0.66474  0.12806  0.97792  Biso   1.000  C
  C26      1.0000 0.93708  0.25277  0.03243  Biso   1.000  C
  H19      1.0000 0.84891  0.09478  0.73968  Biso   1.000  H
  C27      1.0000 0.95506  0.22991  0.71833  Biso   1.000  C
  H20      1.0000 0.03115  0.10095  0.72127  Biso   1.000  H
  C28      1.0000 0.80618  0.55358  0.04871  Biso   1.000  C
  H21      1.0000 0.00845  0.67932  0.07103  Biso   1.000  H
  H22      1.0000 0.04230  0.59312  0.02452  Biso   1.000  H
  H23      1.0000 0.96268  0.85620  0.05711  Biso   1.000  H
  C29      1.0000 0.17022  0.95834  0.10629  Biso   1.000  C
  O4       1.0000 0.40776  0.82599  0.97970  Biso   1.000  O
  C30      1.0000 0.42799  0.95102  0.06676  Biso   1.000  C
  H24      1.0000 0.36691  0.87067  0.88130  Biso   1.000  H
  H25      1.0000 0.34416  0.83228  0.81118  Biso   1.000  H
  H26      1.0000 0.33345  0.94233  0.83630  Biso   1.000  H
  O5       1.0000 0.59207  0.17403  0.02030  Biso   1.000  O
  H27      1.0000 0.85538  0.29412  0.03910  Biso   1.000  H
  C31      1.0000 0.98423  0.22155  0.09162  Biso   1.000  C
  C32      1.0000 0.09181  0.32069  0.01603  Biso   1.000  C
  H28      1.0000 0.88632  0.26617  0.74048  Biso   1.000  H
  C33      1.0000 0.87726  0.20608  0.65288  Biso   1.000  C
  H29      1.0000 0.07109  0.27435  0.72398  Biso   1.000  H
  H30      1.0000 0.85068  0.51799  0.07832  Biso   1.000  H
  H31      1.0000 0.75043  0.50393  0.01203  Biso   1.000  H
  C34      1.0000 0.67556  0.59856  0.07214  Biso   1.000  C
  C35      1.0000 0.34538  0.99440  0.10789  Biso   1.000  C
  C36      1.0000 0.08814  0.00134  0.15609  Biso   1.000  C
  C37      1.0000 0.58715  0.83795  0.99251  Biso   1.000  C
  H32      1.0000 0.54747  0.97541  0.06921  Biso   1.000  H
  C38      1.0000 0.41268  0.16208  0.00749  Biso   1.000  C
  C39      1.0000 0.99796  0.28811  0.14466  Biso   1.000  C
  C40      1.0000 0.01590  0.13015  0.09606  Biso   1.000  C
  C41      1.0000 0.04409  0.37197  0.96525  Biso   1.000  C
  H33      1.0000 0.15282  0.37185  0.05151  Biso   1.000  H
  H34      1.0000 0.17065  0.28083  0.00451  Biso   1.000  H
  H35      1.0000 0.76464  0.15906  0.64648  Biso   1.000  H
  H36      1.0000 0.86551  0.26718  0.63967  Biso   1.000  H
  H37      1.0000 0.95111  0.17656  0.62998  Biso   1.000  H
  H38      1.0000 0.73355  0.65763  0.10353  Biso   1.000  H
  H39      1.0000 0.61240  0.62090  0.03964  Biso   1.000  H
  C42      1.0000 0.54934  0.52623  0.09784  Biso   1.000  C
  O6       1.0000 0.43049  0.07365  0.15298  Biso   1.000  O
  C43      1.0000 0.92529  0.92995  0.16587  Biso   1.000  C
  C44      1.0000 0.05612  0.10186  0.15036  Biso   1.000  C
  H40      1.0000 0.17306  0.01354  0.19362  Biso   1.000  H
  H41      1.0000 0.62104  0.79707  0.96040  Biso   1.000  H
  H42      1.0000 0.64675  0.90788  0.99571  Biso   1.000  H
  H43      1.0000 0.61722  0.81712  0.03012  Biso   1.000  H
  H44      1.0000 0.38261  0.18290  0.96987  Biso   1.000  H
  H45      1.0000 0.37879  0.20290  0.03964  Biso   1.000  H
  H46      1.0000 0.35310  0.09216  0.00433  Biso   1.000  H
  O7       1.0000 0.97263  0.37929  0.13888  Biso   1.000  O
  C45      1.0000 0.03304  0.26192  0.19985  Biso   1.000  C
  H47      1.0000 0.01006  0.08484  0.06040  Biso   1.000  H
  H48      1.0000 0.99138  0.32070  0.92896  Biso   1.000  H
  H49      1.0000 0.95740  0.40691  0.97547  Biso   1.000  H
  C46      1.0000 0.19365  0.44645  0.95129  Biso   1.000  C
  H50      1.0000 0.60804  0.51265  0.13422  Biso   1.000  H
  H51      1.0000 0.45675  0.55562  0.10714  Biso   1.000  H
  H52      1.0000 0.50208  0.46411  0.06872  Biso   1.000  H
  C47      1.0000 0.61057  0.10999  0.15631  Biso   1.000  C
  H53      1.0000 0.87101  0.96755  0.19371  Biso   1.000  H
  H54      1.0000 0.84482  0.90673  0.12741  Biso   1.000  H
  C48      1.0000 0.95192  0.83949  0.19024  Biso   1.000  C
  C49      1.0000 0.05893  0.16881  0.20216  Biso   1.000  C
  C50      1.0000 0.02707  0.45756  0.18855  Biso   1.000  C
  H55      1.0000 0.03911  0.30728  0.23542  Biso   1.000  H
  H56      1.0000 0.14912  0.48196  0.92167  Biso   1.000  H
  H57      1.0000 0.24939  0.49610  0.98797  Biso   1.000  H
  C51      1.0000 0.32417  0.40148  0.92790  Biso   1.000  C
  H58      1.0000 0.63289  0.12928  0.11870  Biso   1.000  H
  H59      1.0000 0.65554  0.16775  0.18882  Biso   1.000  H
  H60      1.0000 0.66638  0.05770  0.16370  Biso   1.000  H
  H61      1.0000 0.84008  0.79051  0.18473  Biso   1.000  H
  H62      1.0000 0.02414  0.80843  0.16663  Biso   1.000  H
  C52      1.0000 0.03425  0.86174  0.25552  Biso   1.000  C
  O8       1.0000 0.09103  0.13646  0.25449  Biso   1.000  O
  H63      1.0000 0.95034  0.44636  0.21723  Biso   1.000  H
  H64      1.0000 0.02549  0.52043  0.17583  Biso   1.000  H
  H65      1.0000 0.14307  0.46039  0.20732  Biso   1.000  H
  H66      1.0000 0.26618  0.34241  0.89650  Biso   1.000  H
  H67      1.0000 0.38743  0.37906  0.96040  Biso   1.000  H
  C53      1.0000 0.45049  0.47379  0.90215  Biso   1.000  C
  H68      1.0000 0.96865  0.89900  0.27873  Biso   1.000  H
  H69      1.0000 0.15092  0.90525  0.26032  Biso   1.000  H
  C54      1.0000 0.04480  0.77013  0.28171  Biso   1.000  C
  C55      1.0000 0.07539  0.19589  0.30803  Biso   1.000  C
  H70      1.0000 0.39179  0.48738  0.86578  Biso   1.000  H
  H71      1.0000 0.54310  0.44443  0.89290  Biso   1.000  H
  H72      1.0000 0.49775  0.53592  0.93128  Biso   1.000  H
  H73      1.0000 0.92859  0.72560  0.27601  Biso   1.000  H
  H74      1.0000 0.11351  0.73385  0.25952  Biso   1.000  H
  C56      1.0000 0.12254  0.79388  0.34711  Biso   1.000  C
  H75      1.0000 0.95904  0.20339  0.30492  Biso   1.000  H
  H76      1.0000 0.15613  0.26140  0.31443  Biso   1.000  H
  H77      1.0000 0.10019  0.16359  0.34151  Biso   1.000  H
  H78      1.0000 0.23504  0.84089  0.35352  Biso   1.000  H
  H79      1.0000 0.13432  0.73285  0.36032  Biso   1.000  H
  H80      1.0000 0.04869  0.82339  0.37001  Biso   1.000  H
  C57      1.0000 0.50923  0.73582  0.70784  Biso   1.000  C
  C58      1.0000 0.53656  0.64239  0.70762  Biso   1.000  C
  C59      1.0000 0.47970  0.76697  0.65426  Biso   1.000  C
  H81      1.0000 0.51078  0.77790  0.74430  Biso   1.000  H
  C60      1.0000 0.53904  0.58018  0.65448  Biso   1.000  C
  O9       1.0000 0.56514  0.60556  0.75871  Biso   1.000  O
  C61      1.0000 0.47237  0.70575  0.59992  Biso   1.000  C
  O10      1.0000 0.45694  0.85965  0.65106  Biso   1.000  O
  C62      1.0000 0.57141  0.47824  0.65630  Biso   1.000  C
  C63      1.0000 0.50403  0.61361  0.60166  Biso   1.000  C
  C64      1.0000 0.55080  0.66328  0.81327  Biso   1.000  C
  C65      1.0000 0.43723  0.74430  0.54270  Biso   1.000  C
  C66      1.0000 0.48553  0.92979  0.70348  Biso   1.000  C
  C67      1.0000 0.66016  0.44378  0.60633  Biso   1.000  C
  H82      1.0000 0.65180  0.48590  0.69441  Biso   1.000  H
  C68      1.0000 0.40577  0.40359  0.66008  Biso   1.000  C
  H83      1.0000 0.50184  0.57146  0.56520  Biso   1.000  H
  H84      1.0000 0.43335  0.66860  0.81149  Biso   1.000  H
  H85      1.0000 0.58091  0.63099  0.84630  Biso   1.000  H
  H86      1.0000 0.62833  0.72976  0.81949  Biso   1.000  H
  C69      1.0000 0.34514  0.66294  0.48934  Biso   1.000  C
  H87      1.0000 0.35766  0.78689  0.54981  Biso   1.000  H
  C70      1.0000 0.60006  0.81316  0.53207  Biso   1.000  C
  H88      1.0000 0.59711  0.93441  0.72687  Biso   1.000  H
  H89      1.0000 0.48334  0.99458  0.69379  Biso   1.000  H
  H90      1.0000 0.39639  0.90949  0.72660  Biso   1.000  H
  C71      1.0000 0.57471  0.37463  0.55515  Biso   1.000  C
  C72      1.0000 0.83694  0.47884  0.61157  Biso   1.000  C
  H91      1.0000 0.32799  0.38868  0.62118  Biso   1.000  H
  H92      1.0000 0.35012  0.43542  0.69010  Biso   1.000  H
  C73      1.0000 0.42681  0.30582  0.67609  Biso   1.000  C
  C74      1.0000 0.42516  0.62539  0.44487  Biso   1.000  C
  C75      1.0000 0.16840  0.62611  0.48133  Biso   1.000  C
  H93      1.0000 0.68087  0.77319  0.52291  Biso   1.000  H
  H94      1.0000 0.65380  0.86223  0.56920  Biso   1.000  H
  C76      1.0000 0.57113  0.86888  0.48173  Biso   1.000  C
  C77      1.0000 0.65470  0.33707  0.51064  Biso   1.000  C
  H95      1.0000 0.45435  0.35150  0.55008  Biso   1.000  H
  C78      1.0000 0.92256  0.44375  0.56862  Biso   1.000  C
  O11      1.0000 0.91898  0.54935  0.66133  Biso   1.000  O
  H96      1.0000 0.50260  0.28045  0.65137  Biso   1.000  H
  H97      1.0000 0.31418  0.25659  0.66600  Biso   1.000  H
  C79      1.0000 0.49954  0.31393  0.74110  Biso   1.000  C
  C80      1.0000 0.33970  0.55624  0.39369  Biso   1.000  C
  H98      1.0000 0.54549  0.64851  0.44990  Biso   1.000  H
  C81      1.0000 0.07728  0.55626  0.43136  Biso   1.000  C
  O12      1.0000 0.09249  0.66272  0.52607  Biso   1.000  O
  H99      1.0000 0.49021  0.90878  0.49067  Biso   1.000  H
  H100     1.0000 0.51817  0.82006  0.44447  Biso   1.000  H
  C82      1.0000 0.73367  0.93680  0.47226  Biso   1.000  C
  C83      1.0000 0.56249  0.25564  0.45732  Biso   1.000  C
  C84      1.0000 0.83144  0.37390  0.51864  Biso   1.000  C
  H101     1.0000 0.04275  0.46736  0.57338  Biso   1.000  H
  C85      1.0000 0.09965  0.58628  0.66742  Biso   1.000  C
  H102     1.0000 0.61603  0.35880  0.75030  Biso   1.000  H
  H103     1.0000 0.42901  0.34442  0.76587  Biso   1.000  H
  C86      1.0000 0.50712  0.21515  0.75800  Biso   1.000  C
  C87      1.0000 0.42830  0.52171  0.34372  Biso   1.000  C
  C88      1.0000 0.16290  0.52117  0.38840  Biso   1.000  C
  H104     1.0000 0.95706  0.53257  0.42660  Biso   1.000  H
  C89      1.0000 0.91394  0.65301  0.51277  Biso   1.000  C
  H105     1.0000 0.81855  0.89809  0.46697  Biso   1.000  H
  H106     1.0000 0.78105  0.98942  0.50819  Biso   1.000  H
  C90      1.0000 0.70740  0.98490  0.41886  Biso   1.000  C
  C91      1.0000 0.52747  0.29426  0.40005  Biso   1.000  C
  H107     1.0000 0.64220  0.21313  0.45021  Biso   1.000  H
  C92      1.0000 0.39978  0.18685  0.46791  Biso   1.000  C
  O13      1.0000 0.90735  0.33728  0.47391  Biso   1.000  O
  H108     1.0000 0.15304  0.53123  0.66831  Biso   1.000  H
  H109     1.0000 0.14382  0.63537  0.70437  Biso   1.000  H
  H110     1.0000 0.12588  0.61737  0.63358  Biso   1.000  H
  H111     1.0000 0.57701  0.18440  0.73310  Biso   1.000  H
  H112     1.0000 0.39054  0.17038  0.74910  Biso   1.000  H
  C93      1.0000 0.58094  0.22392  0.82260  Biso   1.000  C
  C94      1.0000 0.46082  0.41984  0.34554  Biso   1.000  C
  H113     1.0000 0.34807  0.51412  0.30561  Biso   1.000  H
  C95      1.0000 0.59407  0.59642  0.33989  Biso   1.000  C
  O14      1.0000 0.08083  0.45059  0.33865  Biso   1.000  O
  H114     1.0000 0.85248  0.58247  0.50321  Biso   1.000  H
  H115     1.0000 0.87756  0.68601  0.54728  Biso   1.000  H
  H116     1.0000 0.88871  0.68388  0.47871  Biso   1.000  H
  H117     1.0000 0.66512  0.93232  0.38258  Biso   1.000  H
  H118     1.0000 0.61885  0.02109  0.42331  Biso   1.000  H
  C96      1.0000 0.86872  0.05656  0.41081  Biso   1.000  C
  C97      1.0000 0.51999  0.23296  0.34572  Biso   1.000  C
  C98      1.0000 0.49569  0.38639  0.39832  Biso   1.000  C
  H119     1.0000 0.31888  0.22683  0.47711  Biso   1.000  H
  H120     1.0000 0.34605  0.13778  0.43078  Biso   1.000  H
  C99      1.0000 0.42872  0.13112  0.51824  Biso   1.000  C
  C100     1.0000 0.08587  0.34692  0.48720  Biso   1.000  C
  H121     1.0000 0.50846  0.25021  0.84768  Biso   1.000  H
  H122     1.0000 0.58634  0.15824  0.83021  Biso   1.000  H
  H123     1.0000 0.69591  0.26878  0.83199  Biso   1.000  H
  C101     1.0000 0.46330  0.35763  0.29240  Biso   1.000  C
  H124     1.0000 0.67185  0.61133  0.37880  Biso   1.000  H
  H125     1.0000 0.64960  0.56459  0.30988  Biso   1.000  H
  C102     1.0000 0.57303  0.69418  0.32388  Biso   1.000  C
  C103     1.0000 0.90021  0.41374  0.33260  Biso   1.000  C
  H126     1.0000 0.95463  0.02043  0.40361  Biso   1.000  H
  H127     1.0000 0.84280  0.08752  0.37680  Biso   1.000  H
  H128     1.0000 0.91288  0.10810  0.44679  Biso   1.000  H
  C104     1.0000 0.49061  0.26418  0.29214  Biso   1.000  C
  O15      1.0000 0.54292  0.14037  0.34896  Biso   1.000  O
  H129     1.0000 0.49785  0.42847  0.43478  Biso   1.000  H
  H130     1.0000 0.50963  0.09122  0.50930  Biso   1.000  H
  H131     1.0000 0.48164  0.17987  0.55550  Biso   1.000  H
  C105     1.0000 0.26608  0.06322  0.52776  Biso   1.000  C
  H132     1.0000 0.14723  0.41748  0.49681  Biso   1.000  H
  H133     1.0000 0.12216  0.31400  0.45270  Biso   1.000  H
  H134     1.0000 0.11113  0.31607  0.52131  Biso   1.000  H
  O16      1.0000 0.43470  0.39445  0.24127  Biso   1.000  O
  H135     1.0000 0.49721  0.71948  0.34861  Biso   1.000  H
  H136     1.0000 0.68566  0.74342  0.33398  Biso   1.000  H
  C106     1.0000 0.50030  0.68607  0.25888  Biso   1.000  C
  H137     1.0000 0.84670  0.46879  0.33171  Biso   1.000  H
  H138     1.0000 0.85599  0.36457  0.29560  Biso   1.000  H
  H139     1.0000 0.87393  0.38256  0.36639  Biso   1.000  H
  H140     1.0000 0.48906  0.22210  0.25567  Biso   1.000  H
  C107     1.0000 0.51431  0.07022  0.29649  Biso   1.000  C
  H141     1.0000 0.18129  0.10192  0.53300  Biso   1.000  H
  H142     1.0000 0.21879  0.01059  0.49178  Biso   1.000  H
  C108     1.0000 0.29234  0.01512  0.58116  Biso   1.000  C
  C109     1.0000 0.44894  0.33674  0.18675  Biso   1.000  C
  H143     1.0000 0.38371  0.64122  0.24972  Biso   1.000  H
  H144     1.0000 0.57072  0.65559  0.23411  Biso   1.000  H
  C110     1.0000 0.49263  0.78487  0.24202  Biso   1.000  C
  H145     1.0000 0.40261  0.06559  0.27310  Biso   1.000  H
  H146     1.0000 0.51650  0.00543  0.30619  Biso   1.000  H
  H147     1.0000 0.60335  0.09053  0.27342  Biso   1.000  H
  H148     1.0000 0.33472  0.06768  0.61740  Biso   1.000  H
  H149     1.0000 0.38101  0.97894  0.57671  Biso   1.000  H
  C111     1.0000 0.13100  0.94338  0.58921  Biso   1.000  C
  H150     1.0000 0.56649  0.33140  0.18849  Biso   1.000  H
  H151     1.0000 0.41896  0.36903  0.15372  Biso   1.000  H
  H152     1.0000 0.37149  0.27018  0.18048  Biso   1.000  H
  H153     1.0000 0.42283  0.81561  0.26688  Biso   1.000  H
  H154     1.0000 0.60929  0.82957  0.25092  Biso   1.000  H
  C112     1.0000 0.41890  0.77608  0.17737  Biso   1.000  C
  H155     1.0000 0.04523  0.97959  0.59641  Biso   1.000  H
  H156     1.0000 0.15704  0.91249  0.62318  Biso   1.000  H
  H157     1.0000 0.08696  0.89191  0.55319  Biso   1.000  H
  H158     1.0000 0.49138  0.74979  0.15229  Biso   1.000  H
  H159     1.0000 0.41340  0.84178  0.16981  Biso   1.000  H
  H160     1.0000 0.30381  0.73123  0.16799  Biso   1.000  H
