data_image0
_cell_length_a       26.281
_cell_length_b       10.523
_cell_length_c       28.838
_cell_angle_alpha    90
_cell_angle_beta     104.92
_cell_angle_gamma    90

_symmetry_space_group_name_H-M    "P 1"
_symmetry_int_tables_number       1

loop_
  _symmetry_equiv_pos_as_xyz
  'x, y, z'

loop_
  _atom_site_label
  _atom_site_occupancy
  _atom_site_fract_x
  _atom_site_fract_y
  _atom_site_fract_z
  _atom_site_thermal_displace_type
  _atom_site_B_iso_or_equiv
  _atom_site_type_symbol
  C1       1.0000 0.59735  0.59270  0.46803  Biso   1.000  C
  C2       1.0000 0.55948  0.60810  0.41976  Biso   1.000  C
  O1       1.0000 0.64872  0.58576  0.46035  Biso   1.000  O
  H1       1.0000 0.59484  0.66597  0.48888  Biso   1.000  H
  H2       1.0000 0.58945  0.51411  0.48368  Biso   1.000  H
  O2       1.0000 0.56188  0.49957  0.39163  Biso   1.000  O
  H3       1.0000 0.52325  0.61874  0.42349  Biso   1.000  H
  H4       1.0000 0.56867  0.68479  0.40379  Biso   1.000  H
  C3       1.0000 0.69123  0.56600  0.49821  Biso   1.000  C
  C4       1.0000 0.53240  0.51411  0.34318  Biso   1.000  C
  C5       1.0000 0.69020  0.56467  0.54655  Biso   1.000  C
  C6       1.0000 0.73799  0.54709  0.48569  Biso   1.000  C
  C7       1.0000 0.53802  0.39532  0.31634  Biso   1.000  C
  H5       1.0000 0.54565  0.58786  0.32850  Biso   1.000  H
  H6       1.0000 0.49487  0.52903  0.34178  Biso   1.000  H
  C8       1.0000 0.73659  0.54395  0.58118  Biso   1.000  C
  H7       1.0000 0.65814  0.57769  0.55538  Biso   1.000  H
  C9       1.0000 0.78377  0.52609  0.52125  Biso   1.000  C
  H8       1.0000 0.73873  0.54842  0.45289  Biso   1.000  H
  O3       1.0000 0.51280  0.29668  0.33493  Biso   1.000  O
  H9       1.0000 0.52146  0.40673  0.28167  Biso   1.000  H
  H10      1.0000 0.57567  0.37489  0.32057  Biso   1.000  H
  C10      1.0000 0.78366  0.52352  0.56934  Biso   1.000  C
  C11      1.0000 0.73652  0.54528  0.63347  Biso   1.000  C
  O4       1.0000 0.82803  0.50717  0.50485  Biso   1.000  O
  C12      1.0000 0.51417  0.17780  0.31246  Biso   1.000  C
  H11      1.0000 0.81513  0.50793  0.59360  Biso   1.000  H
  O5       1.0000 0.76934  0.64991  0.65521  Biso   1.000  O
  H12      1.0000 0.70024  0.55678  0.63677  Biso   1.000  H
  H13      1.0000 0.75064  0.46432  0.64897  Biso   1.000  H
  C13      1.0000 0.87718  0.48712  0.53916  Biso   1.000  C
  C14      1.0000 0.49161  0.08040  0.33898  Biso   1.000  C
  H14      1.0000 0.52728  0.16260  0.28519  Biso   1.000  H
  C15      1.0000 0.77633  0.66901  0.70326  Biso   1.000  C
  C16      1.0000 0.91912  0.47420  0.51307  Biso   1.000  C
  H15      1.0000 0.87555  0.40910  0.55789  Biso   1.000  H
  H16      1.0000 0.88515  0.55982  0.56169  Biso   1.000  H
  O6       1.0000 0.52508  0.07051  0.38607  Biso   1.000  O
  H17      1.0000 0.45574  0.10577  0.34038  Biso   1.000  H
  H18      1.0000 0.48928  0.99743  0.32240  Biso   1.000  H
  C17      1.0000 0.80766  0.77373  0.72193  Biso   1.000  C
  C18      1.0000 0.75472  0.59365  0.73237  Biso   1.000  C
  O7       1.0000 0.91068  0.36415  0.48371  Biso   1.000  O
  H19      1.0000 0.91913  0.55041  0.49290  Biso   1.000  H
  H20      1.0000 0.95392  0.46850  0.53657  Biso   1.000  H
  C19      1.0000 0.51067  0.97178  0.41305  Biso   1.000  C
  H21      1.0000 0.82320  0.82362  0.70176  Biso   1.000  H
  C20      1.0000 0.81600  0.80405  0.76962  Biso   1.000  C
  C21      1.0000 0.76398  0.62615  0.78024  Biso   1.000  C
  H22      1.0000 0.73403  0.52143  0.71988  Biso   1.000  H
  C22      1.0000 0.95398  0.34306  0.46390  Biso   1.000  C
  H23      1.0000 0.50875  0.89053  0.39550  Biso   1.000  H
  H24      1.0000 0.47554  0.98955  0.41829  Biso   1.000  H
  C23      1.0000 0.55084  0.96237  0.46028  Biso   1.000  C
  H25      1.0000 0.83699  0.87589  0.78196  Biso   1.000  H
  C24      1.0000 0.79413  0.73164  0.80034  Biso   1.000  C
  O8       1.0000 0.74126  0.54889  0.80741  Biso   1.000  O
  C25      1.0000 0.94353  0.23159  0.43096  Biso   1.000  C
  H26      1.0000 0.98615  0.32757  0.49010  Biso   1.000  H
  H27      1.0000 0.96003  0.41956  0.44600  Biso   1.000  H
  H28      1.0000 0.55415  0.04476  0.47740  Biso   1.000  H
  O9       1.0000 0.59960  0.92892  0.45066  Biso   1.000  O
  H29      1.0000 0.54025  0.89680  0.48059  Biso   1.000  H
  C26      1.0000 0.80021  0.75786  0.85069  Biso   1.000  C
  C27      1.0000 0.74794  0.56856  0.85557  Biso   1.000  C
  O10      1.0000 0.94058  0.12069  0.45863  Biso   1.000  O
  H30      1.0000 0.90993  0.24375  0.40620  Biso   1.000  H
  H31      1.0000 0.97215  0.22228  0.41470  Biso   1.000  H
  C28      1.0000 0.64289  0.91694  0.48834  Biso   1.000  C
  C29      1.0000 0.77851  0.67747  0.87638  Biso   1.000  C
  C30      1.0000 0.83012  0.87428  0.87279  Biso   1.000  C
  O11      1.0000 0.72732  0.49235  0.87645  Biso   1.000  O
  C31      1.0000 0.92947  0.00903  0.42956  Biso   1.000  C
  C32      1.0000 0.69022  0.89936  0.47618  Biso   1.000  C
  C33      1.0000 0.64201  0.92084  0.53639  Biso   1.000  C
  H32      1.0000 0.78362  0.69334  0.90968  Biso   1.000  H
  H33      1.0000 0.86679  0.86734  0.87128  Biso   1.000  H
  H34      1.0000 0.82880  0.88140  0.90638  Biso   1.000  H
  H35      1.0000 0.81412  0.94992  0.85506  Biso   1.000  H
  C34      1.0000 0.92487  0.89974  0.46096  Biso   1.000  C
  H36      1.0000 0.89614  0.01996  0.40437  Biso   1.000  H
  H37      1.0000 0.95815  0.99325  0.41377  Biso   1.000  H
  H38      1.0000 0.69096  0.89870  0.44338  Biso   1.000  H
  C35      1.0000 0.73626  0.88311  0.51174  Biso   1.000  C
  C36      1.0000 0.68887  0.90411  0.57174  Biso   1.000  C
  H39      1.0000 0.60985  0.93452  0.54497  Biso   1.000  H
  O12      1.0000 0.88044  0.91789  0.47998  Biso   1.000  O
  H40      1.0000 0.92075  0.81982  0.44219  Biso   1.000  H
  H41      1.0000 0.95725  0.89290  0.48748  Biso   1.000  H
  O13      1.0000 0.78092  0.86648  0.49620  Biso   1.000  O
  C37      1.0000 0.73590  0.88435  0.56004  Biso   1.000  C
  C38      1.0000 0.68804  0.91124  0.62363  Biso   1.000  C
  C39      1.0000 0.87098  0.81042  0.50628  Biso   1.000  C
  C40      1.0000 0.82908  0.83978  0.53119  Biso   1.000  C
  H42      1.0000 0.76755  0.87171  0.58437  Biso   1.000  H
  O14      1.0000 0.65813  0.80500  0.63386  Biso   1.000  O
  H43      1.0000 0.72441  0.90811  0.64448  Biso   1.000  H
  H44      1.0000 0.67162  0.99202  0.62988  Biso   1.000  H
  H45      1.0000 0.90382  0.78628  0.53029  Biso   1.000  H
  H46      1.0000 0.85982  0.73772  0.48418  Biso   1.000  H
  H47      1.0000 0.82412  0.76642  0.55107  Biso   1.000  H
  H48      1.0000 0.83962  0.91419  0.55247  Biso   1.000  H
  C41      1.0000 0.65354  0.79578  0.67983  Biso   1.000  C
  C42      1.0000 0.62722  0.68811  0.68999  Biso   1.000  C
  C43      1.0000 0.67349  0.88397  0.71514  Biso   1.000  C
  H49      1.0000 0.61412  0.62682  0.66569  Biso   1.000  H
  C44      1.0000 0.62034  0.67082  0.73499  Biso   1.000  C
  C45      1.0000 0.66700  0.86259  0.76047  Biso   1.000  C
  H50      1.0000 0.69131  0.95762  0.70847  Biso   1.000  H
  H51      1.0000 0.60171  0.59831  0.74138  Biso   1.000  H
  C46      1.0000 0.64042  0.75872  0.77199  Biso   1.000  C
  O15      1.0000 0.68930  0.95163  0.79442  Biso   1.000  O
  C47      1.0000 0.63600  0.74551  0.82058  Biso   1.000  C
  C48      1.0000 0.68723  0.94061  0.84136  Biso   1.000  C
  C49      1.0000 0.65899  0.83360  0.85305  Biso   1.000  C
  C50      1.0000 0.60602  0.63489  0.83324  Biso   1.000  C
  O16      1.0000 0.70954  0.02214  0.86863  Biso   1.000  O
  H52      1.0000 0.65649  0.82457  0.88517  Biso   1.000  H
  H53      1.0000 0.56912  0.64031  0.81498  Biso   1.000  H
  H54      1.0000 0.60809  0.63689  0.86766  Biso   1.000  H
  H55      1.0000 0.62130  0.55526  0.82539  Biso   1.000  H
  C51      1.0000 0.40255  0.40730  0.53191  Biso   1.000  C
  O17      1.0000 0.35119  0.41424  0.53962  Biso   1.000  O
  H56      1.0000 0.40504  0.33403  0.51109  Biso   1.000  H
  H57      1.0000 0.41043  0.48589  0.51630  Biso   1.000  H
  C52      1.0000 0.44043  0.39190  0.58021  Biso   1.000  C
  C53      1.0000 0.30867  0.43400  0.50173  Biso   1.000  C
  O18      1.0000 0.43798  0.50043  0.60831  Biso   1.000  O
  H58      1.0000 0.47663  0.38126  0.57648  Biso   1.000  H
  H59      1.0000 0.43125  0.31521  0.59618  Biso   1.000  H
  C54      1.0000 0.30967  0.43533  0.45339  Biso   1.000  C
  C55      1.0000 0.26188  0.45291  0.51429  Biso   1.000  C
  C56      1.0000 0.46747  0.48589  0.65679  Biso   1.000  C
  C57      1.0000 0.26329  0.45595  0.41879  Biso   1.000  C
  H60      1.0000 0.34177  0.42231  0.44460  Biso   1.000  H
  C58      1.0000 0.21611  0.47391  0.47872  Biso   1.000  C
  H61      1.0000 0.26114  0.45158  0.54709  Biso   1.000  H
  H62      1.0000 0.45423  0.41205  0.67147  Biso   1.000  H
  H63      1.0000 0.50504  0.47097  0.65819  Biso   1.000  H
  C59      1.0000 0.46185  0.60468  0.68363  Biso   1.000  C
  C60      1.0000 0.26336  0.45472  0.36651  Biso   1.000  C
  C61      1.0000 0.21622  0.47648  0.43064  Biso   1.000  C
  O19      1.0000 0.17184  0.49283  0.49512  Biso   1.000  O
  O20      1.0000 0.48708  0.70332  0.66505  Biso   1.000  O
  H64      1.0000 0.47841  0.59327  0.71826  Biso   1.000  H
  H65      1.0000 0.42423  0.62511  0.67936  Biso   1.000  H
  O21      1.0000 0.23058  0.35009  0.34476  Biso   1.000  O
  H66      1.0000 0.29967  0.44322  0.36317  Biso   1.000  H
  H67      1.0000 0.24927  0.53568  0.35100  Biso   1.000  H
  H68      1.0000 0.18475  0.49207  0.40638  Biso   1.000  H
  C62      1.0000 0.12269  0.51288  0.46082  Biso   1.000  C
  C63      1.0000 0.48574  0.82220  0.68751  Biso   1.000  C
  C64      1.0000 0.22355  0.33099  0.29671  Biso   1.000  C
  C65      1.0000 0.08074  0.52580  0.48687  Biso   1.000  C
  H69      1.0000 0.12437  0.59090  0.44208  Biso   1.000  H
  H70      1.0000 0.11477  0.44018  0.43828  Biso   1.000  H
  H71      1.0000 0.47263  0.83740  0.71478  Biso   1.000  H
  C66      1.0000 0.50827  0.91960  0.66099  Biso   1.000  C
  C67      1.0000 0.24516  0.40625  0.26760  Biso   1.000  C
  C68      1.0000 0.19220  0.22627  0.27801  Biso   1.000  C
  O22      1.0000 0.08920  0.63575  0.51626  Biso   1.000  O
  H72      1.0000 0.08074  0.44959  0.50707  Biso   1.000  H
  H73      1.0000 0.04595  0.53150  0.46340  Biso   1.000  H
  O23      1.0000 0.47483  0.92949  0.61387  Biso   1.000  O
  H74      1.0000 0.54413  0.89423  0.65959  Biso   1.000  H
  H75      1.0000 0.51063  0.00257  0.67757  Biso   1.000  H
  C69      1.0000 0.23593  0.37375  0.21973  Biso   1.000  C
  H76      1.0000 0.26588  0.47857  0.28009  Biso   1.000  H
  C70      1.0000 0.18387  0.19586  0.23035  Biso   1.000  C
  H77      1.0000 0.17667  0.17638  0.29818  Biso   1.000  H
  C71      1.0000 0.04589  0.65685  0.53603  Biso   1.000  C
  C72      1.0000 0.48924  0.02822  0.58692  Biso   1.000  C
  O24      1.0000 0.25862  0.45111  0.19257  Biso   1.000  O
  C73      1.0000 0.20579  0.26836  0.19964  Biso   1.000  C
  H78      1.0000 0.16288  0.12411  0.21801  Biso   1.000  H
  C74      1.0000 0.05638  0.76841  0.56898  Biso   1.000  C
  H79      1.0000 0.01377  0.67243  0.50987  Biso   1.000  H
  H80      1.0000 0.03985  0.58035  0.55398  Biso   1.000  H
  H81      1.0000 0.49112  0.10947  0.60447  Biso   1.000  H
  H82      1.0000 0.52433  0.01045  0.58168  Biso   1.000  H
  C75      1.0000 0.44908  0.03763  0.53969  Biso   1.000  C
  C76      1.0000 0.25194  0.43144  0.14441  Biso   1.000  C
  C77      1.0000 0.19970  0.24214  0.14929  Biso   1.000  C
  O25      1.0000 0.05934  0.87931  0.54135  Biso   1.000  O
  H83      1.0000 0.08994  0.75615  0.59378  Biso   1.000  H
  H84      1.0000 0.02772  0.77772  0.58527  Biso   1.000  H
  H85      1.0000 0.44572  0.95515  0.52258  Biso   1.000  H
  O26      1.0000 0.40027  0.07108  0.54931  Biso   1.000  O
  H86      1.0000 0.45962  0.10320  0.51938  Biso   1.000  H
  O27      1.0000 0.27260  0.50755  0.12352  Biso   1.000  O
  C78      1.0000 0.22139  0.32253  0.12356  Biso   1.000  C
  C79      1.0000 0.16979  0.12572  0.12718  Biso   1.000  C
  C80      1.0000 0.07044  0.99097  0.57041  Biso   1.000  C
  C81      1.0000 0.35698  0.08306  0.51163  Biso   1.000  C
  H87      1.0000 0.21629  0.30666  0.09029  Biso   1.000  H
  H88      1.0000 0.13308  0.13266  0.12869  Biso   1.000  H
  H89      1.0000 0.17107  0.11860  0.09359  Biso   1.000  H
  H90      1.0000 0.18580  0.05008  0.14491  Biso   1.000  H
  H91      1.0000 0.10373  0.97995  0.59557  Biso   1.000  H
  C82      1.0000 0.07500  0.10026  0.53901  Biso   1.000  C
  H92      1.0000 0.04175  0.00665  0.58617  Biso   1.000  H
  C83      1.0000 0.30966  0.10064  0.52380  Biso   1.000  C
  C84      1.0000 0.35785  0.07916  0.46354  Biso   1.000  C
  O28      1.0000 0.11944  0.08211  0.51999  Biso   1.000  O
  H93      1.0000 0.07916  0.18018  0.55778  Biso   1.000  H
  H94      1.0000 0.04266  0.10710  0.51249  Biso   1.000  H
  C85      1.0000 0.26362  0.11689  0.48823  Biso   1.000  C
  H95      1.0000 0.30896  0.10130  0.55660  Biso   1.000  H
  C86      1.0000 0.31101  0.09589  0.42823  Biso   1.000  C
  H96      1.0000 0.39006  0.06548  0.45497  Biso   1.000  H
  C87      1.0000 0.12894  0.18958  0.49369  Biso   1.000  C
  O29      1.0000 0.21900  0.13352  0.50377  Biso   1.000  O
  C88      1.0000 0.26397  0.11565  0.43993  Biso   1.000  C
  C89      1.0000 0.31186  0.08876  0.37630  Biso   1.000  C
  C90      1.0000 0.17083  0.16022  0.46878  Biso   1.000  C
  H97      1.0000 0.09605  0.21372  0.46968  Biso   1.000  H
  H98      1.0000 0.14005  0.26228  0.51579  Biso   1.000  H
  H99      1.0000 0.23237  0.12829  0.41560  Biso   1.000  H
  O30      1.0000 0.34173  0.19500  0.36608  Biso   1.000  O
  H100     1.0000 0.27546  0.09189  0.35549  Biso   1.000  H
  H101     1.0000 0.32826  0.00798  0.37010  Biso   1.000  H
  H102     1.0000 0.17575  0.23358  0.44887  Biso   1.000  H
  H103     1.0000 0.16025  0.08581  0.44747  Biso   1.000  H
  C91      1.0000 0.34632  0.20422  0.32011  Biso   1.000  C
  C92      1.0000 0.37264  0.31189  0.30995  Biso   1.000  C
  C93      1.0000 0.32638  0.11603  0.28479  Biso   1.000  C
  H104     1.0000 0.38575  0.37318  0.33428  Biso   1.000  H
  C94      1.0000 0.37953  0.32918  0.26498  Biso   1.000  C
  C95      1.0000 0.33287  0.13741  0.23947  Biso   1.000  C
  H105     1.0000 0.30857  0.04238  0.29150  Biso   1.000  H
  H106     1.0000 0.39816  0.40169  0.25860  Biso   1.000  H
  C96      1.0000 0.35949  0.24128  0.22799  Biso   1.000  C
  O31      1.0000 0.31061  0.04837  0.20556  Biso   1.000  O
  C97      1.0000 0.36391  0.25449  0.17940  Biso   1.000  C
  C98      1.0000 0.31269  0.05939  0.15862  Biso   1.000  C
  C99      1.0000 0.34089  0.16640  0.14692  Biso   1.000  C
  C100     1.0000 0.39385  0.36511  0.16669  Biso   1.000  C
  O32      1.0000 0.29032  0.97786  0.13131  Biso   1.000  O
  H107     1.0000 0.34338  0.17543  0.11480  Biso   1.000  H
  H108     1.0000 0.43079  0.35969  0.18499  Biso   1.000  H
  H109     1.0000 0.39178  0.36311  0.13231  Biso   1.000  H
  H110     1.0000 0.37857  0.44465  0.17459  Biso   1.000  H
  C101     1.0000 0.65906  0.66635  0.35309  Biso   1.000  C
  C102     1.0000 0.63602  0.75454  0.32057  Biso   1.000  C
  C103     1.0000 0.68725  0.55944  0.34135  Biso   1.000  C
  H111     1.0000 0.65655  0.67538  0.38517  Biso   1.000  H
  C104     1.0000 0.60609  0.86506  0.33328  Biso   1.000  C
  C105     1.0000 0.64044  0.74133  0.27198  Biso   1.000  C
  O33      1.0000 0.68933  0.54842  0.29445  Biso   1.000  O
  O34      1.0000 0.70961  0.47791  0.36866  Biso   1.000  O
  H112     1.0000 0.56914  0.85974  0.31497  Biso   1.000  H
  H113     1.0000 0.60816  0.86306  0.36769  Biso   1.000  H
  H114     1.0000 0.62136  0.94469  0.32538  Biso   1.000  H
  C106     1.0000 0.62040  0.82923  0.23498  Biso   1.000  C
  C107     1.0000 0.66707  0.63737  0.26050  Biso   1.000  C
  C108     1.0000 0.62729  0.81194  0.19002  Biso   1.000  C
  H115     1.0000 0.60178  0.90164  0.24141  Biso   1.000  H
  C109     1.0000 0.67355  0.61598  0.21517  Biso   1.000  C
  C110     1.0000 0.65361  0.70417  0.17986  Biso   1.000  C
  H116     1.0000 0.61418  0.87323  0.16569  Biso   1.000  H
  H117     1.0000 0.69138  0.54243  0.20850  Biso   1.000  H
  O35      1.0000 0.65820  0.69495  0.13389  Biso   1.000  O
  C111     1.0000 0.68807  0.58881  0.12366  Biso   1.000  C
  C112     1.0000 0.68894  0.59593  0.07177  Biso   1.000  C
  H118     1.0000 0.72447  0.59194  0.14448  Biso   1.000  H
  H119     1.0000 0.67169  0.50803  0.12991  Biso   1.000  H
  C113     1.0000 0.73596  0.61570  0.06004  Biso   1.000  C
  C114     1.0000 0.64208  0.57921  0.03642  Biso   1.000  C
  C115     1.0000 0.73633  0.61693  0.01177  Biso   1.000  C
  H120     1.0000 0.76758  0.62834  0.08440  Biso   1.000  H
  H121     1.0000 0.60988  0.56552  0.04500  Biso   1.000  H
  C116     1.0000 0.64288  0.58310  0.98834  Biso   1.000  C
  O36      1.0000 0.78086  0.63347  0.99620  Biso   1.000  O
  C117     1.0000 0.69019  0.60059  0.97614  Biso   1.000  C
  O37      1.0000 0.59957  0.57113  0.95062  Biso   1.000  O
  C118     1.0000 0.82910  0.66017  0.03119  Biso   1.000  C
  H122     1.0000 0.69090  0.60125  0.94337  Biso   1.000  H
  C119     1.0000 0.55078  0.53758  0.96027  Biso   1.000  C
  H123     1.0000 0.82419  0.73363  0.05110  Biso   1.000  H
  H124     1.0000 0.83969  0.58576  0.05250  Biso   1.000  H
  C120     1.0000 0.87101  0.68963  0.00632  Biso   1.000  C
  C121     1.0000 0.51060  0.52818  0.91301  Biso   1.000  C
  H125     1.0000 0.55412  0.45519  0.97736  Biso   1.000  H
  H126     1.0000 0.54018  0.60315  0.98055  Biso   1.000  H
  H127     1.0000 0.90388  0.71367  0.03029  Biso   1.000  H
  O38      1.0000 0.88042  0.58206  0.97998  Biso   1.000  O
  H128     1.0000 0.85980  0.76233  0.98417  Biso   1.000  H
  O39      1.0000 0.52502  0.42954  0.88606  Biso   1.000  O
  H129     1.0000 0.50873  0.60952  0.89546  Biso   1.000  H
  H130     1.0000 0.47552  0.51050  0.91825  Biso   1.000  H
  C122     1.0000 0.92485  0.60030  0.96096  Biso   1.000  C
  C123     1.0000 0.49159  0.41956  0.83898  Biso   1.000  C
  H131     1.0000 0.92068  0.68022  0.94215  Biso   1.000  H
  H132     1.0000 0.95719  0.60705  0.98748  Biso   1.000  H
  C124     1.0000 0.92941  0.49102  0.92956  Biso   1.000  C
  C125     1.0000 0.51412  0.32215  0.81246  Biso   1.000  C
  H133     1.0000 0.45572  0.39418  0.84038  Biso   1.000  H
  H134     1.0000 0.48921  0.50261  0.82236  Biso   1.000  H
  O40      1.0000 0.94051  0.37926  0.95859  Biso   1.000  O
  H135     1.0000 0.95810  0.50670  0.91377  Biso   1.000  H
  H136     1.0000 0.89612  0.48000  0.90436  Biso   1.000  H
  O41      1.0000 0.51277  0.20327  0.83489  Biso   1.000  O
  H137     1.0000 0.52723  0.33736  0.78518  Biso   1.000  H
  C126     1.0000 0.94347  0.26836  0.93095  Biso   1.000  C
  C127     1.0000 0.53799  0.10472  0.81630  Biso   1.000  C
  H138     1.0000 0.90991  0.25620  0.90616  Biso   1.000  H
  H139     1.0000 0.97212  0.27768  0.91466  Biso   1.000  H
  C128     1.0000 0.95396  0.15689  0.96390  Biso   1.000  C
  C129     1.0000 0.53238  0.98594  0.84318  Biso   1.000  C
  H140     1.0000 0.52144  0.09332  0.78167  Biso   1.000  H
  H141     1.0000 0.57561  0.12506  0.82057  Biso   1.000  H
  O42      1.0000 0.91066  0.13580  0.98371  Biso   1.000  O
  H142     1.0000 0.98608  0.17238  0.99006  Biso   1.000  H
  H143     1.0000 0.96000  0.08040  0.94596  Biso   1.000  H
  H144     1.0000 0.54562  0.91210  0.82846  Biso   1.000  H
  H145     1.0000 0.49481  0.97102  0.84178  Biso   1.000  H
  O43      1.0000 0.56186  0.00038  0.89162  Biso   1.000  O
  C130     1.0000 0.91919  0.02575  0.01310  Biso   1.000  C
  C131     1.0000 0.55942  0.89186  0.91976  Biso   1.000  C
  H146     1.0000 0.95399  0.03145  0.03660  Biso   1.000  H
  C132     1.0000 0.87725  0.01292  0.03919  Biso   1.000  C
  H147     1.0000 0.91910  0.94963  0.99286  Biso   1.000  H
  C133     1.0000 0.59730  0.90735  0.96803  Biso   1.000  C
  H148     1.0000 0.52322  0.88131  0.92345  Biso   1.000  H
  H149     1.0000 0.56860  0.81517  0.90375  Biso   1.000  H
  H150     1.0000 0.87557  0.09094  0.05788  Biso   1.000  H
  O44      1.0000 0.82809  0.99278  0.00484  Biso   1.000  O
  H151     1.0000 0.88517  0.94023  0.06169  Biso   1.000  H
  O45      1.0000 0.64867  0.91419  0.96035  Biso   1.000  O
  H152     1.0000 0.59482  0.83398  0.98888  Biso   1.000  H
  H153     1.0000 0.58939  0.98594  0.98367  Biso   1.000  H
  C134     1.0000 0.78384  0.97387  0.02128  Biso   1.000  C
  C135     1.0000 0.69117  0.93395  0.99821  Biso   1.000  C
  C136     1.0000 0.73797  0.95287  0.98568  Biso   1.000  C
  C137     1.0000 0.78371  0.97653  0.06933  Biso   1.000  C
  C138     1.0000 0.69027  0.93528  0.04658  Biso   1.000  C
  H154     1.0000 0.73871  0.95163  0.95288  Biso   1.000  H
  H155     1.0000 0.81519  0.99211  0.09359  Biso   1.000  H
  C139     1.0000 0.73664  0.95600  0.08117  Biso   1.000  C
  H156     1.0000 0.65817  0.92227  0.05541  Biso   1.000  H
  C140     1.0000 0.73658  0.95467  0.13346  Biso   1.000  C
  H157     1.0000 0.75067  0.03573  0.14900  Biso   1.000  H
  O46      1.0000 0.76935  0.85014  0.15521  Biso   1.000  O
  H158     1.0000 0.70027  0.94317  0.13680  Biso   1.000  H
  C141     1.0000 0.77640  0.83104  0.20330  Biso   1.000  C
  C142     1.0000 0.80773  0.72631  0.22196  Biso   1.000  C
  C143     1.0000 0.75478  0.90630  0.23236  Biso   1.000  C
  H159     1.0000 0.82327  0.67642  0.20179  Biso   1.000  H
  C144     1.0000 0.81607  0.69590  0.26965  Biso   1.000  C
  C145     1.0000 0.76401  0.87380  0.28027  Biso   1.000  C
  H160     1.0000 0.73405  0.97862  0.21988  Biso   1.000  H
  H161     1.0000 0.83706  0.62406  0.28199  Biso   1.000  H
  C146     1.0000 0.79416  0.76841  0.30037  Biso   1.000  C
  O47      1.0000 0.74131  0.95106  0.30740  Biso   1.000  O
  C147     1.0000 0.80023  0.74209  0.35068  Biso   1.000  C
  C148     1.0000 0.74800  0.93139  0.35560  Biso   1.000  C
  C149     1.0000 0.77854  0.82248  0.37641  Biso   1.000  C
  C150     1.0000 0.83015  0.62568  0.37282  Biso   1.000  C
  O48      1.0000 0.72735  0.00760  0.37648  Biso   1.000  O
  H162     1.0000 0.78364  0.80671  0.40968  Biso   1.000  H
  H163     1.0000 0.86685  0.63271  0.37128  Biso   1.000  H
  H164     1.0000 0.82886  0.61864  0.40638  Biso   1.000  H
  H165     1.0000 0.81415  0.55013  0.35510  Biso   1.000  H
  C151     1.0000 0.34082  0.33356  0.64689  Biso   1.000  C
  C152     1.0000 0.31263  0.44056  0.65862  Biso   1.000  C
  H166     1.0000 0.34331  0.32462  0.61477  Biso   1.000  H
  C153     1.0000 0.36386  0.24546  0.67940  Biso   1.000  C
  O49      1.0000 0.31055  0.45158  0.70553  Biso   1.000  O
  O50      1.0000 0.29026  0.52209  0.63131  Biso   1.000  O
  C154     1.0000 0.35942  0.25867  0.72795  Biso   1.000  C
  C155     1.0000 0.39383  0.13494  0.66670  Biso   1.000  C
  C156     1.0000 0.33281  0.36263  0.73947  Biso   1.000  C
  C157     1.0000 0.37946  0.17077  0.76495  Biso   1.000  C
  H167     1.0000 0.43072  0.14026  0.68496  Biso   1.000  H
  H168     1.0000 0.39171  0.13694  0.63228  Biso   1.000  H
  H169     1.0000 0.37852  0.05531  0.67459  Biso   1.000  H
  C158     1.0000 0.32632  0.38402  0.78480  Biso   1.000  C
  C159     1.0000 0.37258  0.18806  0.80995  Biso   1.000  C
  H170     1.0000 0.39813  0.09826  0.75857  Biso   1.000  H
  C160     1.0000 0.34627  0.29583  0.82011  Biso   1.000  C
  H171     1.0000 0.30854  0.45757  0.79147  Biso   1.000  H
  H172     1.0000 0.38570  0.12677  0.83429  Biso   1.000  H
  O51      1.0000 0.34171  0.30495  0.86608  Biso   1.000  O
  C161     1.0000 0.31180  0.41119  0.87631  Biso   1.000  C
  C162     1.0000 0.31094  0.40407  0.92820  Biso   1.000  C
  H173     1.0000 0.27540  0.40806  0.85546  Biso   1.000  H
  H174     1.0000 0.32819  0.49197  0.87006  Biso   1.000  H
  C163     1.0000 0.26394  0.38430  0.93990  Biso   1.000  C
  C164     1.0000 0.35784  0.42079  0.96355  Biso   1.000  C
  C165     1.0000 0.26355  0.38307  0.98820  Biso   1.000  C
  H175     1.0000 0.23230  0.37166  0.91557  Biso   1.000  H
  H176     1.0000 0.39000  0.43448  0.95497  Biso   1.000  H
  C166     1.0000 0.35704  0.41690  0.01164  Biso   1.000  C
  O52      1.0000 0.21902  0.36653  0.00378  Biso   1.000  O
  C167     1.0000 0.30968  0.39941  0.02380  Biso   1.000  C
  O53      1.0000 0.40030  0.42887  0.04935  Biso   1.000  O
  C168     1.0000 0.17077  0.33983  0.96875  Biso   1.000  C
  H177     1.0000 0.30898  0.39865  0.05660  Biso   1.000  H
  C169     1.0000 0.44910  0.46242  0.03970  Biso   1.000  C
  H178     1.0000 0.17569  0.26637  0.94887  Biso   1.000  H
  H179     1.0000 0.16019  0.41424  0.94747  Biso   1.000  H
  C170     1.0000 0.12887  0.31037  0.99366  Biso   1.000  C
  C171     1.0000 0.48926  0.47182  0.08693  Biso   1.000  C
  H180     1.0000 0.44578  0.54481  0.02258  Biso   1.000  H
  H181     1.0000 0.45968  0.39675  0.01939  Biso   1.000  H
  H182     1.0000 0.09598  0.28633  0.96965  Biso   1.000  H
  O54      1.0000 0.11946  0.41794  0.02000  Biso   1.000  O
  H183     1.0000 0.14007  0.23767  0.01580  Biso   1.000  H
  O55      1.0000 0.47486  0.57046  0.11391  Biso   1.000  O
  H184     1.0000 0.49119  0.39048  0.10451  Biso   1.000  H
  H185     1.0000 0.52435  0.48950  0.08169  Biso   1.000  H
  C172     1.0000 0.07506  0.39970  0.03902  Biso   1.000  C
  C173     1.0000 0.50829  0.58035  0.16099  Biso   1.000  C
  H186     1.0000 0.07918  0.31978  0.05779  Biso   1.000  H
  H187     1.0000 0.04268  0.39285  0.01250  Biso   1.000  H
  C174     1.0000 0.07046  0.50898  0.07042  Biso   1.000  C
  C175     1.0000 0.48576  0.67775  0.18751  Biso   1.000  C
  H188     1.0000 0.54415  0.60582  0.15960  Biso   1.000  H
  H189     1.0000 0.51066  0.49739  0.17761  Biso   1.000  H
  O56      1.0000 0.05936  0.62074  0.04135  Biso   1.000  O
  H190     1.0000 0.04178  0.49330  0.08621  Biso   1.000  H
  H191     1.0000 0.10379  0.52000  0.09561  Biso   1.000  H
  O57      1.0000 0.48710  0.79673  0.16505  Biso   1.000  O
  H192     1.0000 0.47265  0.66255  0.21479  Biso   1.000  H
  C176     1.0000 0.05640  0.73164  0.06902  Biso   1.000  C
  C177     1.0000 0.46191  0.89528  0.18364  Biso   1.000  C
  H193     1.0000 0.08996  0.74380  0.09378  Biso   1.000  H
  H194     1.0000 0.02779  0.72232  0.08531  Biso   1.000  H
  C178     1.0000 0.04592  0.84311  0.03607  Biso   1.000  C
  H195     1.0000 0.47848  0.90668  0.21831  Biso   1.000  H
  H196     1.0000 0.42426  0.87485  0.17940  Biso   1.000  H
  C179     1.0000 0.46749  0.01406  0.15680  Biso   1.000  C
  O58      1.0000 0.08925  0.86420  0.01627  Biso   1.000  O
  H197     1.0000 0.01379  0.82762  0.00991  Biso   1.000  H
  H198     1.0000 0.03987  0.91960  0.05398  Biso   1.000  H
  O59      1.0000 0.43801  0.99962  0.10835  Biso   1.000  O
  H199     1.0000 0.45426  0.08790  0.17151  Biso   1.000  H
  H200     1.0000 0.50506  0.02898  0.15820  Biso   1.000  H
  C180     1.0000 0.08072  0.97415  0.98687  Biso   1.000  C
  C181     1.0000 0.44045  0.10805  0.08021  Biso   1.000  C
  H201     1.0000 0.04589  0.96845  0.96337  Biso   1.000  H
  C182     1.0000 0.12263  0.98708  0.96078  Biso   1.000  C
  H202     1.0000 0.08077  0.05037  0.00711  Biso   1.000  H
  C183     1.0000 0.40258  0.09265  0.03195  Biso   1.000  C
  H203     1.0000 0.47669  0.11869  0.07648  Biso   1.000  H
  H204     1.0000 0.43127  0.18483  0.09618  Biso   1.000  H
  H205     1.0000 0.12430  0.90906  0.94205  Biso   1.000  H
  O60      1.0000 0.17182  0.00722  0.99509  Biso   1.000  O
  H206     1.0000 0.11470  0.05977  0.93825  Biso   1.000  H
  O61      1.0000 0.35121  0.08581  0.03963  Biso   1.000  O
  H207     1.0000 0.40510  0.16602  0.01110  Biso   1.000  H
  H208     1.0000 0.41048  0.01406  0.01630  Biso   1.000  H
  C184     1.0000 0.21608  0.02613  0.97869  Biso   1.000  C
  C185     1.0000 0.30870  0.06595  0.00177  Biso   1.000  C
  C186     1.0000 0.21619  0.02347  0.93060  Biso   1.000  C
  C187     1.0000 0.26190  0.04713  0.01429  Biso   1.000  C
  C188     1.0000 0.30965  0.06472  0.95339  Biso   1.000  C
  H209     1.0000 0.18473  0.00789  0.90638  Biso   1.000  H
  C189     1.0000 0.26322  0.04400  0.91876  Biso   1.000  C
  H210     1.0000 0.26116  0.04837  0.04709  Biso   1.000  H
  H211     1.0000 0.34170  0.07773  0.94456  Biso   1.000  H
  C190     1.0000 0.26333  0.04533  0.86648  Biso   1.000  C
  H212     1.0000 0.24921  0.96427  0.85097  Biso   1.000  H
  O62      1.0000 0.23051  0.14986  0.84473  Biso   1.000  O
  H213     1.0000 0.29961  0.05683  0.86317  Biso   1.000  H
  C191     1.0000 0.22352  0.16896  0.79668  Biso   1.000  C
  C192     1.0000 0.19214  0.27369  0.77802  Biso   1.000  C
  C193     1.0000 0.24509  0.09370  0.76757  Biso   1.000  C
  H214     1.0000 0.17661  0.32358  0.79818  Biso   1.000  H
  C194     1.0000 0.18384  0.30410  0.73032  Biso   1.000  C
  C195     1.0000 0.23586  0.12620  0.71970  Biso   1.000  C
  H215     1.0000 0.26582  0.02138  0.78006  Biso   1.000  H
  H216     1.0000 0.16281  0.37584  0.71798  Biso   1.000  H
  C196     1.0000 0.20572  0.23159  0.69960  Biso   1.000  C
  O63      1.0000 0.25855  0.04885  0.69253  Biso   1.000  O
  C197     1.0000 0.19964  0.25791  0.64926  Biso   1.000  C
  C198     1.0000 0.25187  0.06861  0.64437  Biso   1.000  C
  C199     1.0000 0.22133  0.17752  0.62356  Biso   1.000  C
  C200     1.0000 0.16972  0.37432  0.62715  Biso   1.000  C
  O64      1.0000 0.27253  0.99240  0.62349  Biso   1.000  O
  H217     1.0000 0.21624  0.19329  0.59029  Biso   1.000  H
  H218     1.0000 0.13302  0.36729  0.62869  Biso   1.000  H
  H219     1.0000 0.17105  0.38136  0.59360  Biso   1.000  H
  H220     1.0000 0.18573  0.44987  0.64488  Biso   1.000  H
