data_image0
_cell_length_a       15.964
_cell_length_b       15.964
_cell_length_c       8.462
_cell_angle_alpha    90
_cell_angle_beta     90
_cell_angle_gamma    90

_symmetry_space_group_name_H-M    "P 1"
_symmetry_int_tables_number       1

loop_
  _symmetry_equiv_pos_as_xyz
  'x, y, z'

loop_
  _atom_site_label
  _atom_site_occupancy
  _atom_site_fract_x
  _atom_site_fract_y
  _atom_site_fract_z
  _atom_site_thermal_displace_type
  _atom_site_B_iso_or_equiv
  _atom_site_type_symbol
  S1       1.0000 0.57742  0.57742  0.29272  Biso   1.000  S
  C1       1.0000 0.55162  0.67508  0.38466  Biso   1.000  C
  C2       1.0000 0.67508  0.55162  0.38466  Biso   1.000  C
  C3       1.0000 0.57648  0.75000  0.31399  Biso   1.000  C
  C4       1.0000 0.50783  0.67590  0.52352  Biso   1.000  C
  C5       1.0000 0.75000  0.57648  0.31399  Biso   1.000  C
  C6       1.0000 0.67590  0.50783  0.52352  Biso   1.000  C
  C7       1.0000 0.55162  0.82492  0.38466  Biso   1.000  C
  O1       1.0000 0.62353  0.75000  0.18069  Biso   1.000  O
  C8       1.0000 0.48459  0.75000  0.59702  Biso   1.000  C
  H1       1.0000 0.49292  0.62422  0.57126  Biso   1.000  H
  C9       1.0000 0.82492  0.55162  0.38466  Biso   1.000  C
  O2       1.0000 0.75000  0.62353  0.18069  Biso   1.000  O
  C10      1.0000 0.75000  0.48459  0.59702  Biso   1.000  C
  H2       1.0000 0.62422  0.49292  0.57126  Biso   1.000  H
  S2       1.0000 0.57742  0.92258  0.29272  Biso   1.000  S
  C11      1.0000 0.50783  0.82410  0.52352  Biso   1.000  C
  C12      1.0000 0.43661  0.75000  0.75999  Biso   1.000  C
  S3       1.0000 0.92258  0.57742  0.29272  Biso   1.000  S
  C13      1.0000 0.82410  0.50783  0.52352  Biso   1.000  C
  C14      1.0000 0.75000  0.43661  0.75999  Biso   1.000  C
  C15      1.0000 0.67508  0.94838  0.38466  Biso   1.000  C
  H3       1.0000 0.49292  0.87578  0.57126  Biso   1.000  H
  C16      1.0000 0.35900  0.81402  0.74309  Biso   1.000  C
  C17      1.0000 0.35900  0.68598  0.74309  Biso   1.000  C
  C18      1.0000 0.47300  0.67702  0.86800  Biso   1.000  C
  C19      1.0000 0.47300  0.82298  0.86800  Biso   1.000  C
  C20      1.0000 0.94838  0.67508  0.38466  Biso   1.000  C
  H4       1.0000 0.87578  0.49292  0.57126  Biso   1.000  H
  C21      1.0000 0.68598  0.35900  0.74309  Biso   1.000  C
  C22      1.0000 0.81402  0.35900  0.74309  Biso   1.000  C
  C23      1.0000 0.82298  0.47300  0.86800  Biso   1.000  C
  C24      1.0000 0.67702  0.47300  0.86800  Biso   1.000  C
  C25      1.0000 0.75000  0.92352  0.31399  Biso   1.000  C
  C26      1.0000 0.67590  0.99217  0.52352  Biso   1.000  C
  C27      1.0000 0.92352  0.75000  0.31399  Biso   1.000  C
  C28      1.0000 0.99217  0.67590  0.52352  Biso   1.000  C
  C29      1.0000 0.82492  0.94838  0.38466  Biso   1.000  C
  O3       1.0000 0.75000  0.87647  0.18069  Biso   1.000  O
  C30      1.0000 0.75000  0.01541  0.59702  Biso   1.000  C
  H5       1.0000 0.62422  0.00708  0.57126  Biso   1.000  H
  C31      1.0000 0.94838  0.82492  0.38466  Biso   1.000  C
  O4       1.0000 0.87647  0.75000  0.18069  Biso   1.000  O
  C32      1.0000 0.01541  0.75000  0.59702  Biso   1.000  C
  H6       1.0000 0.00708  0.62422  0.57126  Biso   1.000  H
  S4       1.0000 0.92258  0.92258  0.29272  Biso   1.000  S
  C33      1.0000 0.82410  0.99217  0.52352  Biso   1.000  C
  C34      1.0000 0.75000  0.06339  0.75999  Biso   1.000  C
  C35      1.0000 0.99217  0.82410  0.52352  Biso   1.000  C
  C36      1.0000 0.06339  0.75000  0.75999  Biso   1.000  C
  H7       1.0000 0.87578  0.00708  0.57126  Biso   1.000  H
  C37      1.0000 0.81402  0.14100  0.74309  Biso   1.000  C
  C38      1.0000 0.68598  0.14100  0.74309  Biso   1.000  C
  C39      1.0000 0.67702  0.02700  0.86800  Biso   1.000  C
  C40      1.0000 0.82298  0.02700  0.86800  Biso   1.000  C
  H8       1.0000 0.00708  0.87578  0.57126  Biso   1.000  H
  C41      1.0000 0.14100  0.68598  0.74309  Biso   1.000  C
  C42      1.0000 0.14100  0.81402  0.74309  Biso   1.000  C
  C43      1.0000 0.02700  0.82298  0.86800  Biso   1.000  C
  C44      1.0000 0.02700  0.67702  0.86800  Biso   1.000  C
  S5       1.0000 0.42258  0.42258  0.70728  Biso   1.000  S
  C45      1.0000 0.44838  0.32492  0.61534  Biso   1.000  C
  C46      1.0000 0.32492  0.44838  0.61534  Biso   1.000  C
  C47      1.0000 0.49217  0.32410  0.47648  Biso   1.000  C
  C48      1.0000 0.42352  0.25000  0.68601  Biso   1.000  C
  C49      1.0000 0.25000  0.42352  0.68601  Biso   1.000  C
  C50      1.0000 0.32410  0.49217  0.47648  Biso   1.000  C
  C51      1.0000 0.51541  0.25000  0.40298  Biso   1.000  C
  H9       1.0000 0.50708  0.37578  0.42886  Biso   1.000  H
  C52      1.0000 0.44838  0.17508  0.61534  Biso   1.000  C
  O5       1.0000 0.37647  0.25000  0.81931  Biso   1.000  O
  C53      1.0000 0.17508  0.44838  0.61534  Biso   1.000  C
  O6       1.0000 0.25000  0.37647  0.81931  Biso   1.000  O
  C54      1.0000 0.25000  0.51541  0.40298  Biso   1.000  C
  H10      1.0000 0.37578  0.50708  0.42886  Biso   1.000  H
  C55      1.0000 0.49217  0.17590  0.47648  Biso   1.000  C
  C56      1.0000 0.56339  0.25000  0.24001  Biso   1.000  C
  S6       1.0000 0.42258  0.07742  0.70728  Biso   1.000  S
  S7       1.0000 0.07742  0.42258  0.70728  Biso   1.000  S
  C57      1.0000 0.17590  0.49217  0.47648  Biso   1.000  C
  C58      1.0000 0.25000  0.56339  0.24001  Biso   1.000  C
  H11      1.0000 0.50708  0.12422  0.42886  Biso   1.000  H
  C59      1.0000 0.64100  0.31402  0.25703  Biso   1.000  C
  C60      1.0000 0.64100  0.18598  0.25703  Biso   1.000  C
  C61      1.0000 0.52700  0.17702  0.13200  Biso   1.000  C
  C62      1.0000 0.52700  0.32298  0.13200  Biso   1.000  C
  C63      1.0000 0.32492  0.05162  0.61534  Biso   1.000  C
  C64      1.0000 0.05162  0.32492  0.61534  Biso   1.000  C
  H12      1.0000 0.12422  0.50708  0.42886  Biso   1.000  H
  C65      1.0000 0.18598  0.64100  0.25703  Biso   1.000  C
  C66      1.0000 0.31402  0.64100  0.25703  Biso   1.000  C
  C67      1.0000 0.32298  0.52700  0.13200  Biso   1.000  C
  C68      1.0000 0.17702  0.52700  0.13200  Biso   1.000  C
  C69      1.0000 0.25000  0.07648  0.68601  Biso   1.000  C
  C70      1.0000 0.32410  0.00783  0.47648  Biso   1.000  C
  C71      1.0000 0.07648  0.25000  0.68601  Biso   1.000  C
  C72      1.0000 0.00783  0.32410  0.47648  Biso   1.000  C
  C73      1.0000 0.17508  0.05162  0.61534  Biso   1.000  C
  O7       1.0000 0.25000  0.12353  0.81931  Biso   1.000  O
  C74      1.0000 0.25000  0.98459  0.40298  Biso   1.000  C
  H13      1.0000 0.37578  0.99292  0.42886  Biso   1.000  H
  C75      1.0000 0.05162  0.17508  0.61534  Biso   1.000  C
  O8       1.0000 0.12353  0.25000  0.81931  Biso   1.000  O
  C76      1.0000 0.98459  0.25000  0.40298  Biso   1.000  C
  H14      1.0000 0.99292  0.37578  0.42886  Biso   1.000  H
  S8       1.0000 0.07742  0.07742  0.70728  Biso   1.000  S
  C77      1.0000 0.17590  0.00783  0.47648  Biso   1.000  C
  C78      1.0000 0.25000  0.93661  0.24001  Biso   1.000  C
  C79      1.0000 0.00783  0.17590  0.47648  Biso   1.000  C
  C80      1.0000 0.93661  0.25000  0.24001  Biso   1.000  C
  H15      1.0000 0.12422  0.99292  0.42886  Biso   1.000  H
  C81      1.0000 0.31402  0.85900  0.25703  Biso   1.000  C
  C82      1.0000 0.18598  0.85900  0.25703  Biso   1.000  C
  C83      1.0000 0.17702  0.97300  0.13200  Biso   1.000  C
  C84      1.0000 0.32298  0.97300  0.13200  Biso   1.000  C
  H16      1.0000 0.99292  0.12422  0.42886  Biso   1.000  H
  C85      1.0000 0.85900  0.18598  0.25703  Biso   1.000  C
  C86      1.0000 0.85900  0.31402  0.25703  Biso   1.000  C
  C87      1.0000 0.97300  0.32298  0.13200  Biso   1.000  C
  C88      1.0000 0.97300  0.17702  0.13200  Biso   1.000  C
