data_image0
_cell_length_a       10.179
_cell_length_b       15.164
_cell_length_c       38.403
_cell_angle_alpha    90
_cell_angle_beta     89.91
_cell_angle_gamma    90

_symmetry_space_group_name_H-M    "P 1"
_symmetry_int_tables_number       1

loop_
  _symmetry_equiv_pos_as_xyz
  'x, y, z'

loop_
  _atom_site_label
  _atom_site_occupancy
  _atom_site_fract_x
  _atom_site_fract_y
  _atom_site_fract_z
  _atom_site_thermal_displace_type
  _atom_site_B_iso_or_equiv
  _atom_site_type_symbol
  C1       1.0000 0.52851  0.58837  0.46877  Biso   1.000  C
  C2       1.0000 0.38486  0.60696  0.47332  Biso   1.000  C
  C3       1.0000 0.61927  0.63611  0.48764  Biso   1.000  C
  C4       1.0000 0.56941  0.52058  0.44666  Biso   1.000  C
  O1       1.0000 0.32808  0.62945  0.43934  Biso   1.000  O
  H1       1.0000 0.34108  0.55546  0.48280  Biso   1.000  H
  H2       1.0000 0.37278  0.65557  0.48939  Biso   1.000  H
  C5       1.0000 0.75251  0.61646  0.48439  Biso   1.000  C
  H3       1.0000 0.59178  0.68109  0.50249  Biso   1.000  H
  H4       1.0000 0.50818  0.48787  0.43421  Biso   1.000  H
  C6       1.0000 0.70157  0.50270  0.44361  Biso   1.000  C
  C7       1.0000 0.21436  0.59160  0.43127  Biso   1.000  C
  O2       1.0000 0.83748  0.66935  0.50280  Biso   1.000  O
  C8       1.0000 0.79449  0.55032  0.46259  Biso   1.000  C
  O3       1.0000 0.75572  0.43907  0.42286  Biso   1.000  O
  C9       1.0000 0.16063  0.62108  0.39664  Biso   1.000  C
  O4       1.0000 0.15531  0.54049  0.44926  Biso   1.000  O
  C10      1.0000 0.96366  0.63519  0.51184  Biso   1.000  C
  H5       1.0000 0.88351  0.53739  0.46051  Biso   1.000  H
  C11      1.0000 0.66713  0.38921  0.40174  Biso   1.000  C
  C12      1.0000 0.05973  0.57168  0.38190  Biso   1.000  C
  N1       1.0000 0.21210  0.69309  0.38203  Biso   1.000  N
  H6       1.0000 0.95559  0.59410  0.53110  Biso   1.000  H
  C13      1.0000 0.04947  0.71030  0.52191  Biso   1.000  C
  H7       1.0000 0.00141  0.60406  0.49220  Biso   1.000  H
  C14      1.0000 0.74890  0.32696  0.38031  Biso   1.000  C
  H8       1.0000 0.61722  0.42819  0.38669  Biso   1.000  H
  H9       1.0000 0.60624  0.35650  0.41630  Biso   1.000  H
  C15      1.0000 0.00893  0.59885  0.35044  Biso   1.000  C
  H10      1.0000 0.02744  0.52156  0.39299  Biso   1.000  H
  C16      1.0000 0.15746  0.71999  0.35216  Biso   1.000  C
  O5       1.0000 0.08737  0.75409  0.49111  Biso   1.000  O
  H11      1.0000 0.00202  0.75040  0.53709  Biso   1.000  H
  H12      1.0000 0.12632  0.68887  0.53420  Biso   1.000  H
  O6       1.0000 0.83116  0.37635  0.35768  Biso   1.000  O
  H13      1.0000 0.80225  0.29049  0.39549  Biso   1.000  H
  H14      1.0000 0.69220  0.28871  0.36679  Biso   1.000  H
  C17      1.0000 0.05578  0.67495  0.33547  Biso   1.000  C
  H15      1.0000 0.94376  0.56621  0.33951  Biso   1.000  H
  C18      1.0000 0.20824  0.80295  0.33633  Biso   1.000  C
  C19      1.0000 0.17299  0.82439  0.49915  Biso   1.000  C
  C20      1.0000 0.90262  0.32036  0.33490  Biso   1.000  C
  H16      1.0000 0.02073  0.69599  0.31469  Biso   1.000  H
  O7       1.0000 0.14135  0.84879  0.31763  Biso   1.000  O
  O8       1.0000 0.33158  0.82129  0.34518  Biso   1.000  O
  C21      1.0000 0.22780  0.85947  0.46707  Biso   1.000  C
  H17      1.0000 0.24305  0.80368  0.51410  Biso   1.000  H
  H18      1.0000 0.12517  0.87028  0.51139  Biso   1.000  H
  C22      1.0000 0.99549  0.37398  0.31357  Biso   1.000  C
  H19      1.0000 0.84229  0.28917  0.31969  Biso   1.000  H
  H20      1.0000 0.95098  0.27710  0.34831  Biso   1.000  H
  C23      1.0000 0.38501  0.90319  0.33112  Biso   1.000  C
  O9       1.0000 0.12575  0.89798  0.44684  Biso   1.000  O
  H21      1.0000 0.29379  0.90365  0.47241  Biso   1.000  H
  H22      1.0000 0.26973  0.81258  0.45400  Biso   1.000  H
  O10      1.0000 0.92342  0.42891  0.29052  Biso   1.000  O
  H23      1.0000 0.04973  0.40992  0.32870  Biso   1.000  H
  H24      1.0000 0.05274  0.33527  0.30029  Biso   1.000  H
  H25      1.0000 0.36409  0.95179  0.34659  Biso   1.000  H
  H26      1.0000 0.34644  0.91526  0.30860  Biso   1.000  H
  C24      1.0000 0.53151  0.89416  0.32763  Biso   1.000  C
  C25      1.0000 0.17818  0.94916  0.41955  Biso   1.000  C
  C26      1.0000 0.00902  0.47751  0.26839  Biso   1.000  C
  C27      1.0000 0.58283  0.83237  0.30466  Biso   1.000  C
  C28      1.0000 0.61255  0.95146  0.34573  Biso   1.000  C
  C29      1.0000 0.07093  0.98318  0.39833  Biso   1.000  C
  H27      1.0000 0.23632  0.91335  0.40531  Biso   1.000  H
  H28      1.0000 0.22872  0.99776  0.42900  Biso   1.000  H
  C30      1.0000 0.92999  0.53139  0.24324  Biso   1.000  C
  H29      1.0000 0.06558  0.43729  0.25571  Biso   1.000  H
  H30      1.0000 0.06415  0.51596  0.28230  Biso   1.000  H
  H31      1.0000 0.52759  0.79418  0.29261  Biso   1.000  H
  C31      1.0000 0.71804  0.82867  0.29995  Biso   1.000  C
  C32      1.0000 0.74737  0.94685  0.34010  Biso   1.000  C
  H32      1.0000 0.57739  0.99209  0.36130  Biso   1.000  H
  O11      1.0000 0.98858  0.04161  0.41880  Biso   1.000  O
  H33      1.0000 0.01862  0.93445  0.38961  Biso   1.000  H
  H34      1.0000 0.10631  0.01497  0.37849  Biso   1.000  H
  O12      1.0000 0.85944  0.59753  0.26183  Biso   1.000  O
  H35      1.0000 0.98785  0.55889  0.22631  Biso   1.000  H
  H36      1.0000 0.86895  0.49367  0.23079  Biso   1.000  H
  O13      1.0000 0.78065  0.77222  0.27761  Biso   1.000  O
  C33      1.0000 0.80154  0.88565  0.31763  Biso   1.000  C
  O14      1.0000 0.83619  0.00270  0.35549  Biso   1.000  O
  C34      1.0000 0.90961  0.09958  0.39924  Biso   1.000  C
  C35      1.0000 0.78668  0.65181  0.23863  Biso   1.000  C
  C36      1.0000 0.69912  0.71175  0.25904  Biso   1.000  C
  H37      1.0000 0.89194  0.88275  0.31440  Biso   1.000  H
  C37      1.0000 0.79103  0.05638  0.38354  Biso   1.000  C
  H38      1.0000 0.96238  0.12497  0.38070  Biso   1.000  H
  H39      1.0000 0.88103  0.14752  0.41419  Biso   1.000  H
  H40      1.0000 0.73421  0.61521  0.22329  Biso   1.000  H
  H41      1.0000 0.84649  0.68636  0.22441  Biso   1.000  H
  H42      1.0000 0.64086  0.74360  0.24350  Biso   1.000  H
  H43      1.0000 0.64608  0.67786  0.27519  Biso   1.000  H
  H44      1.0000 0.74622  0.02058  0.40080  Biso   1.000  H
  H45      1.0000 0.73036  0.10076  0.37500  Biso   1.000  H
  C38      1.0000 0.47126  0.41157  0.53124  Biso   1.000  C
  C39      1.0000 0.38050  0.36389  0.51236  Biso   1.000  C
  C40      1.0000 0.61492  0.39297  0.52668  Biso   1.000  C
  C41      1.0000 0.43036  0.47936  0.55332  Biso   1.000  C
  C42      1.0000 0.24726  0.38347  0.51561  Biso   1.000  C
  H46      1.0000 0.40800  0.31891  0.49749  Biso   1.000  H
  O15      1.0000 0.67169  0.37055  0.56066  Biso   1.000  O
  H47      1.0000 0.65869  0.44447  0.51720  Biso   1.000  H
  H48      1.0000 0.62700  0.34437  0.51059  Biso   1.000  H
  C43      1.0000 0.29821  0.49730  0.55639  Biso   1.000  C
  H49      1.0000 0.49159  0.51207  0.56579  Biso   1.000  H
  O16      1.0000 0.16230  0.33065  0.49720  Biso   1.000  O
  C44      1.0000 0.20528  0.44968  0.53741  Biso   1.000  C
  C45      1.0000 0.78541  0.40840  0.56873  Biso   1.000  C
  O17      1.0000 0.24405  0.56087  0.57714  Biso   1.000  O
  C46      1.0000 0.03611  0.36481  0.48817  Biso   1.000  C
  H50      1.0000 0.11626  0.46261  0.53949  Biso   1.000  H
  O18      1.0000 0.84446  0.45951  0.55074  Biso   1.000  O
  C47      1.0000 0.83914  0.37886  0.60334  Biso   1.000  C
  C48      1.0000 0.33264  0.61079  0.59826  Biso   1.000  C
  H51      1.0000 0.04418  0.40590  0.46890  Biso   1.000  H
  C49      1.0000 0.95031  0.28970  0.47809  Biso   1.000  C
  H52      1.0000 0.99837  0.39587  0.50780  Biso   1.000  H
  N2       1.0000 0.78767  0.30685  0.61795  Biso   1.000  N
  C50      1.0000 0.94004  0.42832  0.61810  Biso   1.000  C
  C51      1.0000 0.25087  0.67298  0.61969  Biso   1.000  C
  H53      1.0000 0.38255  0.57181  0.61329  Biso   1.000  H
  H54      1.0000 0.39353  0.64350  0.58371  Biso   1.000  H
  O19      1.0000 0.91240  0.24591  0.50889  Biso   1.000  O
  H55      1.0000 0.99765  0.24960  0.46291  Biso   1.000  H
  H56      1.0000 0.87346  0.31107  0.46580  Biso   1.000  H
  C52      1.0000 0.84231  0.28001  0.64784  Biso   1.000  C
  H57      1.0000 0.97233  0.47837  0.60701  Biso   1.000  H
  C53      1.0000 0.99085  0.40108  0.64956  Biso   1.000  C
  O20      1.0000 0.16861  0.62365  0.64232  Biso   1.000  O
  H58      1.0000 0.19752  0.70951  0.60451  Biso   1.000  H
  H59      1.0000 0.30757  0.71129  0.63321  Biso   1.000  H
  C54      1.0000 0.82678  0.17561  0.50085  Biso   1.000  C
  C55      1.0000 0.94399  0.32498  0.66453  Biso   1.000  C
  C56      1.0000 0.79153  0.19698  0.66367  Biso   1.000  C
  H60      1.0000 0.05601  0.43379  0.66050  Biso   1.000  H
  C57      1.0000 0.09715  0.67957  0.66511  Biso   1.000  C
  C58      1.0000 0.77197  0.14046  0.53293  Biso   1.000  C
  H61      1.0000 0.75672  0.19632  0.48590  Biso   1.000  H
  H62      1.0000 0.87460  0.12972  0.48861  Biso   1.000  H
  H63      1.0000 0.97904  0.30401  0.68529  Biso   1.000  H
  O21      1.0000 0.85842  0.15121  0.68237  Biso   1.000  O
  O22      1.0000 0.66819  0.17871  0.65482  Biso   1.000  O
  C59      1.0000 0.00428  0.62596  0.68643  Biso   1.000  C
  H64      1.0000 0.15748  0.71076  0.68029  Biso   1.000  H
  H65      1.0000 0.04870  0.72290  0.65169  Biso   1.000  H
  O23      1.0000 0.87402  0.10202  0.55316  Biso   1.000  O
  H66      1.0000 0.70598  0.09628  0.52759  Biso   1.000  H
  H67      1.0000 0.73004  0.18742  0.54600  Biso   1.000  H
  C60      1.0000 0.61476  0.09681  0.66888  Biso   1.000  C
  O24      1.0000 0.07635  0.57109  0.70948  Biso   1.000  O
  H68      1.0000 0.95004  0.59008  0.67130  Biso   1.000  H
  H69      1.0000 0.94703  0.66467  0.69969  Biso   1.000  H
  C61      1.0000 0.82159  0.05078  0.58045  Biso   1.000  C
  H70      1.0000 0.63568  0.04821  0.65339  Biso   1.000  H
  H71      1.0000 0.65333  0.08467  0.69141  Biso   1.000  H
  C62      1.0000 0.46826  0.10578  0.67237  Biso   1.000  C
  C63      1.0000 0.99075  0.52249  0.73161  Biso   1.000  C
  C64      1.0000 0.92884  0.01682  0.60167  Biso   1.000  C
  H72      1.0000 0.76345  0.08659  0.59469  Biso   1.000  H
  H73      1.0000 0.77105  0.00218  0.57100  Biso   1.000  H
  C65      1.0000 0.38722  0.04847  0.65427  Biso   1.000  C
  C66      1.0000 0.41694  0.16757  0.69534  Biso   1.000  C
  C67      1.0000 0.06979  0.46861  0.75676  Biso   1.000  C
  H74      1.0000 0.93419  0.56271  0.74429  Biso   1.000  H
  H75      1.0000 0.93562  0.48398  0.71771  Biso   1.000  H
  H76      1.0000 0.89346  0.98496  0.62149  Biso   1.000  H
  H77      1.0000 0.98116  0.06548  0.61040  Biso   1.000  H
  O25      1.0000 0.01119  0.95839  0.58121  Biso   1.000  O
  C68      1.0000 0.25240  0.05309  0.65990  Biso   1.000  C
  H78      1.0000 0.42239  0.00791  0.63870  Biso   1.000  H
  C69      1.0000 0.28173  0.17133  0.70005  Biso   1.000  C
  H79      1.0000 0.47218  0.20582  0.70739  Biso   1.000  H
  O26      1.0000 0.14034  0.40247  0.73815  Biso   1.000  O
  H80      1.0000 0.01192  0.44111  0.77369  Biso   1.000  H
  H81      1.0000 0.13082  0.50626  0.76919  Biso   1.000  H
  C70      1.0000 0.09016  0.90036  0.60076  Biso   1.000  C
  O27      1.0000 0.16358  0.99730  0.64451  Biso   1.000  O
  C71      1.0000 0.19824  0.11428  0.68237  Biso   1.000  C
  O28      1.0000 0.21912  0.22778  0.72239  Biso   1.000  O
  C72      1.0000 0.21309  0.34819  0.76137  Biso   1.000  C
  C73      1.0000 0.20874  0.94355  0.61646  Biso   1.000  C
  H82      1.0000 0.03739  0.87497  0.61930  Biso   1.000  H
  H83      1.0000 0.11874  0.85248  0.58579  Biso   1.000  H
  H84      1.0000 0.10783  0.11719  0.68560  Biso   1.000  H
  C74      1.0000 0.30065  0.28818  0.74096  Biso   1.000  C
  H85      1.0000 0.26556  0.38479  0.77669  Biso   1.000  H
  H86      1.0000 0.15328  0.31357  0.77559  Biso   1.000  H
  H87      1.0000 0.25355  0.97936  0.59920  Biso   1.000  H
  H88      1.0000 0.26941  0.89917  0.62500  Biso   1.000  H
  H89      1.0000 0.35891  0.25640  0.75650  Biso   1.000  H
  H90      1.0000 0.35370  0.32208  0.72479  Biso   1.000  H
  C75      1.0000 0.71326  0.15181  0.26139  Biso   1.000  C
  O29      1.0000 0.64040  0.09753  0.23816  Biso   1.000  O
  C76      1.0000 0.80071  0.21182  0.24097  Biso   1.000  C
  H91      1.0000 0.76563  0.11521  0.27670  Biso   1.000  H
  H92      1.0000 0.65344  0.18636  0.27560  Biso   1.000  H
  C77      1.0000 0.56995  0.03139  0.25675  Biso   1.000  C
  O30      1.0000 0.71928  0.27222  0.22240  Biso   1.000  O
  H93      1.0000 0.85908  0.24360  0.25649  Biso   1.000  H
  H94      1.0000 0.85386  0.17792  0.22480  Biso   1.000  H
  H95      1.0000 0.51208  0.05889  0.27370  Biso   1.000  H
  H96      1.0000 0.63098  0.99367  0.26920  Biso   1.000  H
  C78      1.0000 0.49082  0.97745  0.23160  Biso   1.000  C
  C79      1.0000 0.78190  0.32867  0.20004  Biso   1.000  C
  H97      1.0000 0.43579  0.01602  0.21769  Biso   1.000  H
  O31      1.0000 0.57642  0.92884  0.20946  Biso   1.000  O
  H98      1.0000 0.43435  0.93729  0.24430  Biso   1.000  H
  C80      1.0000 0.91711  0.33237  0.19535  Biso   1.000  C
  C81      1.0000 0.69840  0.38572  0.18238  Biso   1.000  C
  C82      1.0000 0.50435  0.87398  0.18642  Biso   1.000  C
  C83      1.0000 0.96833  0.39416  0.17236  Biso   1.000  C
  H99      1.0000 0.97225  0.29418  0.20741  Biso   1.000  H
  H100     1.0000 0.60800  0.38281  0.18561  Biso   1.000  H
  C84      1.0000 0.75256  0.44691  0.15988  Biso   1.000  C
  H101     1.0000 0.45021  0.90985  0.17129  Biso   1.000  H
  H102     1.0000 0.44719  0.83527  0.19970  Biso   1.000  H
  C85      1.0000 0.59731  0.82036  0.16512  Biso   1.000  C
  C86      1.0000 0.88739  0.45146  0.15426  Biso   1.000  C
  C87      1.0000 0.11483  0.40319  0.16887  Biso   1.000  C
  O32      1.0000 0.66365  0.50270  0.14452  Biso   1.000  O
  O33      1.0000 0.66877  0.87629  0.14233  Biso   1.000  O
  H103     1.0000 0.65754  0.78917  0.18030  Biso   1.000  H
  H104     1.0000 0.54886  0.77710  0.15171  Biso   1.000  H
  H105     1.0000 0.92245  0.49209  0.13869  Biso   1.000  H
  O34      1.0000 0.16825  0.32129  0.15483  Biso   1.000  O
  H106     1.0000 0.13574  0.45179  0.15340  Biso   1.000  H
  H107     1.0000 0.15350  0.41526  0.19139  Biso   1.000  H
  C88      1.0000 0.70891  0.55638  0.11648  Biso   1.000  C
  C89      1.0000 0.75094  0.82696  0.11968  Biso   1.000  C
  C90      1.0000 0.29169  0.30302  0.16369  Biso   1.000  C
  H108     1.0000 0.75371  0.52058  0.09921  Biso   1.000  H
  H109     1.0000 0.76957  0.60076  0.12499  Biso   1.000  H
  C91      1.0000 0.59033  0.59958  0.10075  Biso   1.000  C
  H110     1.0000 0.69768  0.79049  0.10450  Biso   1.000  H
  H111     1.0000 0.80764  0.78871  0.13319  Biso   1.000  H
  C92      1.0000 0.83280  0.88915  0.09827  Biso   1.000  C
  O35      1.0000 0.35858  0.34879  0.18238  Biso   1.000  O
  C93      1.0000 0.34248  0.21999  0.14783  Biso   1.000  C
  O36      1.0000 0.51126  0.54161  0.08119  Biso   1.000  O
  H112     1.0000 0.53746  0.62497  0.11929  Biso   1.000  H
  H113     1.0000 0.61890  0.64745  0.08580  Biso   1.000  H
  O37      1.0000 0.74421  0.93907  0.07716  Biso   1.000  O
  H114     1.0000 0.88272  0.92819  0.11330  Biso   1.000  H
  H115     1.0000 0.89370  0.85650  0.08369  Biso   1.000  H
  N3       1.0000 0.28774  0.19315  0.11796  Biso   1.000  N
  C94      1.0000 0.44406  0.17502  0.16454  Biso   1.000  C
  C95      1.0000 0.42901  0.48318  0.10168  Biso   1.000  C
  C96      1.0000 0.79827  0.00270  0.05640  Biso   1.000  C
  C97      1.0000 0.33930  0.12108  0.10335  Biso   1.000  C
  C98      1.0000 0.49101  0.09892  0.14957  Biso   1.000  C
  H116     1.0000 0.47920  0.19599  0.18530  Biso   1.000  H
  H117     1.0000 0.39362  0.51497  0.12150  Biso   1.000  H
  H118     1.0000 0.48132  0.43452  0.11041  Biso   1.000  H
  C99      1.0000 0.32166  0.44916  0.08046  Biso   1.000  C
  C100     1.0000 0.93052  0.02058  0.05333  Biso   1.000  C
  C101     1.0000 0.70535  0.05032  0.03742  Biso   1.000  C
  C102     1.0000 0.44021  0.07168  0.11812  Biso   1.000  C
  C103     1.0000 0.28548  0.09160  0.06872  Biso   1.000  C
  H119     1.0000 0.55618  0.06621  0.16051  Biso   1.000  H
  O38      1.0000 0.37408  0.39798  0.05315  Biso   1.000  O
  H120     1.0000 0.26361  0.41341  0.09471  Biso   1.000  H
  H121     1.0000 0.27122  0.49776  0.07101  Biso   1.000  H
  C104     1.0000 0.97142  0.08837  0.03125  Biso   1.000  C
  H122     1.0000 0.99165  0.98787  0.06580  Biso   1.000  H
  C105     1.0000 0.74743  0.11653  0.01560  Biso   1.000  C
  H123     1.0000 0.61643  0.03739  0.03950  Biso   1.000  H
  H124     1.0000 0.47250  0.02163  0.10700  Biso   1.000  H
  O39      1.0000 0.17176  0.12945  0.06067  Biso   1.000  O
  O40      1.0000 0.34463  0.04049  0.05075  Biso   1.000  O
  C106     1.0000 0.27213  0.35947  0.03294  Biso   1.000  C
  C107     1.0000 0.88056  0.13611  0.01234  Biso   1.000  C
  C108     1.0000 0.11498  0.10703  0.02669  Biso   1.000  C
  O41      1.0000 0.66216  0.16935  0.99719  Biso   1.000  O
  H125     1.0000 0.20614  0.40372  0.02760  Biso   1.000  H
  H126     1.0000 0.23020  0.31258  0.04601  Biso   1.000  H
  C109     1.0000 0.32694  0.32439  0.00083  Biso   1.000  C
  H127     1.0000 0.90786  0.18109  0.99750  Biso   1.000  H
  H128     1.0000 0.15875  0.05553  0.01721  Biso   1.000  H
  H129     1.0000 0.12706  0.15557  0.01060  Biso   1.000  H
  C110     1.0000 0.53598  0.13519  0.98815  Biso   1.000  C
  O42      1.0000 0.41246  0.25409  0.00891  Biso   1.000  O
  H130     1.0000 0.25659  0.30368  0.98589  Biso   1.000  H
  H131     1.0000 0.37447  0.37028  0.98859  Biso   1.000  H
  H132     1.0000 0.49853  0.10413  0.00781  Biso   1.000  H
  C111     1.0000 0.45017  0.21030  0.97807  Biso   1.000  C
  H133     1.0000 0.54415  0.09410  0.96891  Biso   1.000  H
  H134     1.0000 0.49762  0.25040  0.96289  Biso   1.000  H
  H135     1.0000 0.37342  0.18887  0.96578  Biso   1.000  H
  C112     1.0000 0.28652  0.84819  0.73862  Biso   1.000  C
  O43      1.0000 0.35927  0.90240  0.76184  Biso   1.000  O
  C113     1.0000 0.19906  0.78818  0.75903  Biso   1.000  C
  H136     1.0000 0.23415  0.88479  0.72330  Biso   1.000  H
  H137     1.0000 0.34633  0.81357  0.72440  Biso   1.000  H
  C114     1.0000 0.42982  0.96854  0.74325  Biso   1.000  C
  O44      1.0000 0.28049  0.72778  0.77760  Biso   1.000  O
  H138     1.0000 0.14070  0.75640  0.74351  Biso   1.000  H
  H139     1.0000 0.14591  0.82208  0.77520  Biso   1.000  H
  H140     1.0000 0.48769  0.94104  0.72630  Biso   1.000  H
  H141     1.0000 0.36879  0.00633  0.73080  Biso   1.000  H
  C115     1.0000 0.50895  0.02249  0.76840  Biso   1.000  C
  C116     1.0000 0.21787  0.67126  0.79994  Biso   1.000  C
  H142     1.0000 0.56399  0.98398  0.78231  Biso   1.000  H
  O45      1.0000 0.42335  0.07109  0.79054  Biso   1.000  O
  H143     1.0000 0.56542  0.06271  0.75570  Biso   1.000  H
  C117     1.0000 0.08267  0.66757  0.80465  Biso   1.000  C
  C118     1.0000 0.30137  0.61428  0.81762  Biso   1.000  C
  C119     1.0000 0.49542  0.12602  0.81356  Biso   1.000  C
  C120     1.0000 0.03144  0.60578  0.82764  Biso   1.000  C
  H144     1.0000 0.02753  0.70575  0.79260  Biso   1.000  H
  H145     1.0000 0.39177  0.61719  0.81439  Biso   1.000  H
  C121     1.0000 0.24721  0.55309  0.84012  Biso   1.000  C
  H146     1.0000 0.54956  0.09008  0.82869  Biso   1.000  H
  H147     1.0000 0.55258  0.16467  0.80030  Biso   1.000  H
  C122     1.0000 0.40246  0.17957  0.83488  Biso   1.000  C
  C123     1.0000 0.11239  0.54847  0.84572  Biso   1.000  C
  C124     1.0000 0.88495  0.59681  0.83113  Biso   1.000  C
  O46      1.0000 0.33612  0.49730  0.85548  Biso   1.000  O
  O47      1.0000 0.33100  0.12365  0.85767  Biso   1.000  O
  H148     1.0000 0.34223  0.21076  0.81970  Biso   1.000  H
  H149     1.0000 0.45091  0.22290  0.84829  Biso   1.000  H
  H150     1.0000 0.07732  0.50791  0.86129  Biso   1.000  H
  O48      1.0000 0.83152  0.67871  0.84517  Biso   1.000  O
  H151     1.0000 0.86403  0.54821  0.84660  Biso   1.000  H
  H152     1.0000 0.84627  0.58467  0.80861  Biso   1.000  H
  C125     1.0000 0.29086  0.44362  0.88353  Biso   1.000  C
  C126     1.0000 0.24884  0.17298  0.88030  Biso   1.000  C
  C127     1.0000 0.70808  0.69698  0.83632  Biso   1.000  C
  H153     1.0000 0.24606  0.47936  0.90079  Biso   1.000  H
  H154     1.0000 0.23020  0.39917  0.87498  Biso   1.000  H
  C128     1.0000 0.40945  0.40042  0.89925  Biso   1.000  C
  H155     1.0000 0.30209  0.20951  0.89550  Biso   1.000  H
  H156     1.0000 0.19213  0.21129  0.86681  Biso   1.000  H
  C129     1.0000 0.16697  0.11079  0.90173  Biso   1.000  C
  O49      1.0000 0.64119  0.65121  0.81762  Biso   1.000  O
  C130     1.0000 0.65729  0.78001  0.85215  Biso   1.000  C
  O50      1.0000 0.48851  0.45839  0.91881  Biso   1.000  O
  H157     1.0000 0.46231  0.37497  0.88069  Biso   1.000  H
  H158     1.0000 0.38087  0.35248  0.91420  Biso   1.000  H
  O51      1.0000 0.25556  0.06087  0.92285  Biso   1.000  O
  H159     1.0000 0.11706  0.07181  0.88670  Biso   1.000  H
  H160     1.0000 0.10607  0.14350  0.91631  Biso   1.000  H
  N4       1.0000 0.71203  0.80685  0.88204  Biso   1.000  N
  C131     1.0000 0.55571  0.82498  0.83546  Biso   1.000  C
  C132     1.0000 0.57076  0.51682  0.89832  Biso   1.000  C
  C133     1.0000 0.20150  0.99730  0.94360  Biso   1.000  C
  C134     1.0000 0.66047  0.87886  0.89665  Biso   1.000  C
  C135     1.0000 0.50876  0.90108  0.85043  Biso   1.000  C
  H161     1.0000 0.52057  0.80401  0.81470  Biso   1.000  H
  H162     1.0000 0.60615  0.48496  0.87850  Biso   1.000  H
  H163     1.0000 0.51845  0.56548  0.88959  Biso   1.000  H
  C136     1.0000 0.67811  0.55078  0.91954  Biso   1.000  C
  C137     1.0000 0.06925  0.97936  0.94667  Biso   1.000  C
  C138     1.0000 0.29442  0.94968  0.96258  Biso   1.000  C
  C139     1.0000 0.55956  0.92825  0.88189  Biso   1.000  C
  C140     1.0000 0.71430  0.90840  0.93126  Biso   1.000  C
  H164     1.0000 0.44360  0.93379  0.83949  Biso   1.000  H
  O52      1.0000 0.62569  0.60195  0.94685  Biso   1.000  O
  H165     1.0000 0.73616  0.58659  0.90529  Biso   1.000  H
  H166     1.0000 0.72855  0.50218  0.92899  Biso   1.000  H
  C141     1.0000 0.02835  0.91157  0.96875  Biso   1.000  C
  H167     1.0000 0.00812  0.01207  0.93420  Biso   1.000  H
  C142     1.0000 0.25234  0.88347  0.98438  Biso   1.000  C
  H168     1.0000 0.38334  0.96254  0.96050  Biso   1.000  H
  H169     1.0000 0.52727  0.97837  0.89300  Biso   1.000  H
  O53      1.0000 0.82801  0.87048  0.93933  Biso   1.000  O
  O54      1.0000 0.65515  0.95944  0.94925  Biso   1.000  O
  C143     1.0000 0.72764  0.64046  0.96706  Biso   1.000  C
  C144     1.0000 0.11921  0.86389  0.98766  Biso   1.000  C
  C145     1.0000 0.88479  0.89297  0.97331  Biso   1.000  C
  O55      1.0000 0.33761  0.83059  0.00281  Biso   1.000  O
  H170     1.0000 0.79363  0.59628  0.97240  Biso   1.000  H
  H171     1.0000 0.76957  0.68735  0.95399  Biso   1.000  H
  C146     1.0000 0.67283  0.67561  0.99917  Biso   1.000  C
  H172     1.0000 0.09191  0.81885  0.00250  Biso   1.000  H
  H173     1.0000 0.84102  0.94447  0.98279  Biso   1.000  H
  H174     1.0000 0.87271  0.84437  0.98940  Biso   1.000  H
  C147     1.0000 0.46379  0.86475  0.01185  Biso   1.000  C
  O56      1.0000 0.58731  0.74591  0.99110  Biso   1.000  O
  H175     1.0000 0.74318  0.69625  0.01409  Biso   1.000  H
  H176     1.0000 0.62531  0.62972  0.01141  Biso   1.000  H
  H177     1.0000 0.50124  0.89587  0.99219  Biso   1.000  H
  C148     1.0000 0.54960  0.78970  0.02190  Biso   1.000  C
  H178     1.0000 0.45562  0.90590  0.03109  Biso   1.000  H
  H179     1.0000 0.50216  0.74960  0.03711  Biso   1.000  H
  H180     1.0000 0.62635  0.81107  0.03419  Biso   1.000  H
