data_image0
_cell_length_a       10.115
_cell_length_b       10.646
_cell_length_c       20.672
_cell_angle_alpha    75.51
_cell_angle_beta     88.28
_cell_angle_gamma    76.32

_symmetry_space_group_name_H-M    "P 1"
_symmetry_int_tables_number       1

loop_
  _symmetry_equiv_pos_as_xyz
  'x, y, z'

loop_
  _atom_site_label
  _atom_site_occupancy
  _atom_site_fract_x
  _atom_site_fract_y
  _atom_site_fract_z
  _atom_site_thermal_displace_type
  _atom_site_B_iso_or_equiv
  _atom_site_type_symbol
  C1       1.0000 0.61214  0.33893  0.50908  Biso   1.000  C
  N1       1.0000 0.62850  0.31766  0.44799  Biso   1.000  N
  N2       1.0000 0.71036  0.38922  0.53147  Biso   1.000  N
  C2       1.0000 0.50108  0.30898  0.54732  Biso   1.000  C
  C3       1.0000 0.54006  0.26181  0.42570  Biso   1.000  C
  C4       1.0000 0.83331  0.38039  0.49538  Biso   1.000  C
  C5       1.0000 0.71058  0.40625  0.59891  Biso   1.000  C
  N3       1.0000 0.41401  0.25279  0.52512  Biso   1.000  N
  H1       1.0000 0.48836  0.32940  0.58961  Biso   1.000  H
  N4       1.0000 0.55943  0.24040  0.36276  Biso   1.000  N
  C6       1.0000 0.43235  0.22637  0.46544  Biso   1.000  C
  N5       1.0000 0.91734  0.25970  0.50318  Biso   1.000  N
  C7       1.0000 0.85847  0.49306  0.45159  Biso   1.000  C
  H2       1.0000 0.61916  0.41006  0.61680  Biso   1.000  H
  H3       1.0000 0.73688  0.48940  0.59831  Biso   1.000  H
  H4       1.0000 0.77560  0.33066  0.62730  Biso   1.000  H
  C8       1.0000 0.49900  0.14273  0.34367  Biso   1.000  C
  C9       1.0000 0.66163  0.28825  0.32217  Biso   1.000  C
  H5       1.0000 0.37235  0.18340  0.44949  Biso   1.000  H
  C10      1.0000 0.02234  0.25159  0.46354  Biso   1.000  C
  N6       1.0000 0.96713  0.48515  0.41250  Biso   1.000  N
  H6       1.0000 0.79804  0.57755  0.44909  Biso   1.000  H
  H7       1.0000 0.43032  0.11917  0.37591  Biso   1.000  H
  H8       1.0000 0.57004  0.06233  0.34342  Biso   1.000  H
  H9       1.0000 0.45605  0.18093  0.29898  Biso   1.000  H
  N7       1.0000 0.76444  0.19918  0.30658  Biso   1.000  N
  C11      1.0000 0.64891  0.42528  0.29733  Biso   1.000  C
  N8       1.0000 0.11220  0.12579  0.46804  Biso   1.000  N
  C12      1.0000 0.04630  0.36478  0.41775  Biso   1.000  C
  C13      1.0000 0.85599  0.24848  0.26599  Biso   1.000  C
  N9       1.0000 0.73585  0.47402  0.25534  Biso   1.000  N
  H10      1.0000 0.57503  0.48557  0.31112  Biso   1.000  H
  C14      1.0000 0.13791  0.07995  0.41065  Biso   1.000  C
  C15      1.0000 0.16052  0.03818  0.53382  Biso   1.000  C
  H11      1.0000 0.12192  0.35468  0.38961  Biso   1.000  H
  N10      1.0000 0.97181  0.15422  0.25284  Biso   1.000  N
  C16      1.0000 0.84050  0.38353  0.23969  Biso   1.000  C
  N11      1.0000 0.04874  0.13984  0.35931  Biso   1.000  N
  C17      1.0000 0.24923  0.97694  0.40630  Biso   1.000  C
  H12      1.0000 0.22165  0.95561  0.52822  Biso   1.000  H
  H13      1.0000 0.08253  0.01701  0.55991  Biso   1.000  H
  H14      1.0000 0.20950  0.08347  0.55732  Biso   1.000  H
  C18      1.0000 0.00600  0.15623  0.18366  Biso   1.000  C
  C19      1.0000 0.06909  0.09512  0.30413  Biso   1.000  C
  H15      1.0000 0.90573  0.41366  0.20960  Biso   1.000  H
  N12      1.0000 0.26962  0.93329  0.35092  Biso   1.000  N
  H16      1.0000 0.31155  0.93708  0.44329  Biso   1.000  H
  H17      1.0000 0.92987  0.14127  0.16061  Biso   1.000  H
  H18      1.0000 0.08746  0.08541  0.18261  Biso   1.000  H
  H19      1.0000 0.02355  0.24301  0.16111  Biso   1.000  H
  C20      1.0000 0.18040  0.99049  0.30013  Biso   1.000  C
  H20      1.0000 0.19213  0.95990  0.26039  Biso   1.000  H
  C21      1.0000 0.38792  0.66116  0.49088  Biso   1.000  C
  N13      1.0000 0.28963  0.61075  0.46854  Biso   1.000  N
  N14      1.0000 0.37159  0.68231  0.55202  Biso   1.000  N
  C22      1.0000 0.49890  0.69098  0.45269  Biso   1.000  C
  C23      1.0000 0.28937  0.59383  0.40105  Biso   1.000  C
  C24      1.0000 0.16668  0.61958  0.50463  Biso   1.000  C
  C25      1.0000 0.45993  0.73815  0.57431  Biso   1.000  C
  N15      1.0000 0.58598  0.74717  0.47489  Biso   1.000  N
  H21      1.0000 0.51162  0.67056  0.41040  Biso   1.000  H
  H22      1.0000 0.38082  0.58990  0.38321  Biso   1.000  H
  H23      1.0000 0.26310  0.51056  0.40170  Biso   1.000  H
  H24      1.0000 0.22438  0.66930  0.37271  Biso   1.000  H
  N16      1.0000 0.08272  0.74035  0.49683  Biso   1.000  N
  C26      1.0000 0.14152  0.50690  0.54842  Biso   1.000  C
  N17      1.0000 0.44065  0.75957  0.63725  Biso   1.000  N
  C27      1.0000 0.56773  0.77359  0.53457  Biso   1.000  C
  C28      1.0000 0.97775  0.74838  0.53647  Biso   1.000  C
  N18      1.0000 0.03293  0.51491  0.58751  Biso   1.000  N
  H25      1.0000 0.20192  0.42251  0.55092  Biso   1.000  H
  C29      1.0000 0.50096  0.85733  0.65634  Biso   1.000  C
  C30      1.0000 0.33836  0.71172  0.67784  Biso   1.000  C
  H26      1.0000 0.62763  0.81656  0.55052  Biso   1.000  H
  N19      1.0000 0.88779  0.87417  0.53197  Biso   1.000  N
  C31      1.0000 0.95368  0.63519  0.58226  Biso   1.000  C
  H27      1.0000 0.56966  0.88080  0.62410  Biso   1.000  H
  H28      1.0000 0.42992  0.93773  0.65659  Biso   1.000  H
  H29      1.0000 0.54391  0.81915  0.70098  Biso   1.000  H
  N20      1.0000 0.23565  0.80079  0.69343  Biso   1.000  N
  C32      1.0000 0.35107  0.57468  0.70268  Biso   1.000  C
  C33      1.0000 0.86206  0.92011  0.58936  Biso   1.000  C
  C34      1.0000 0.83946  0.96179  0.46619  Biso   1.000  C
  H30      1.0000 0.87806  0.64528  0.61040  Biso   1.000  H
  C35      1.0000 0.14399  0.75149  0.73402  Biso   1.000  C
  N21      1.0000 0.26411  0.52604  0.74467  Biso   1.000  N
  H31      1.0000 0.42496  0.51439  0.68888  Biso   1.000  H
  N22      1.0000 0.95135  0.86012  0.64070  Biso   1.000  N
  C36      1.0000 0.75073  0.02312  0.59371  Biso   1.000  C
  H32      1.0000 0.91756  0.98296  0.44009  Biso   1.000  H
  H33      1.0000 0.79049  0.91650  0.44269  Biso   1.000  H
  H34      1.0000 0.77831  0.04445  0.47179  Biso   1.000  H
  N23      1.0000 0.02815  0.84584  0.74717  Biso   1.000  N
  C37      1.0000 0.15946  0.61653  0.76032  Biso   1.000  C
  C38      1.0000 0.93088  0.90494  0.69588  Biso   1.000  C
  N24      1.0000 0.73046  0.06667  0.64909  Biso   1.000  N
  H35      1.0000 0.68843  0.06288  0.55672  Biso   1.000  H
  C39      1.0000 0.99396  0.84383  0.81635  Biso   1.000  C
  H36      1.0000 0.09426  0.58630  0.79041  Biso   1.000  H
  C40      1.0000 0.81959  0.00947  0.69988  Biso   1.000  C
  H37      1.0000 0.07011  0.85870  0.83940  Biso   1.000  H
  H38      1.0000 0.91253  0.91455  0.81740  Biso   1.000  H
  H39      1.0000 0.97644  0.75695  0.83890  Biso   1.000  H
  H40      1.0000 0.80785  0.04006  0.73962  Biso   1.000  H
  C41      1.0000 0.46561  0.78467  0.21720  Biso   1.000  C
  N25      1.0000 0.40572  0.70645  0.18281  Biso   1.000  N
  H41      1.0000 0.54574  0.80662  0.19340  Biso   1.000  H
  H42      1.0000 0.49282  0.73277  0.26299  Biso   1.000  H
  H43      1.0000 0.39861  0.86731  0.21820  Biso   1.000  H
  C42      1.0000 0.28793  0.66362  0.20910  Biso   1.000  C
  C43      1.0000 0.44047  0.70111  0.11827  Biso   1.000  C
  C44      1.0000 0.28693  0.52869  0.22335  Biso   1.000  C
  N26      1.0000 0.18200  0.75510  0.22065  Biso   1.000  N
  N27      1.0000 0.35632  0.66037  0.08413  Biso   1.000  N
  C45      1.0000 0.55675  0.73847  0.08898  Biso   1.000  C
  N28      1.0000 0.18043  0.48443  0.25019  Biso   1.000  N
  H44      1.0000 0.36451  0.46686  0.21360  Biso   1.000  H
  C46      1.0000 0.07373  0.71079  0.24604  Biso   1.000  C
  C47      1.0000 0.38720  0.65420  0.02144  Biso   1.000  C
  N29      1.0000 0.58831  0.73061  0.02699  Biso   1.000  N
  H45      1.0000 0.61375  0.76984  0.11382  Biso   1.000  H
  C48      1.0000 0.07306  0.57747  0.26114  Biso   1.000  C
  N30      1.0000 0.95633  0.80819  0.25599  Biso   1.000  N
  N31      1.0000 0.29637  0.61268  0.98810  Biso   1.000  N
  C49      1.0000 0.50569  0.68893  0.99260  Biso   1.000  C
  H46      1.0000 0.99428  0.55055  0.27998  Biso   1.000  H
  C50      1.0000 0.87130  0.87519  0.20185  Biso   1.000  C
  C51      1.0000 0.91643  0.81527  0.32342  Biso   1.000  C
  C52      1.0000 0.16479  0.61884  0.01620  Biso   1.000  C
  C53      1.0000 0.30895  0.61447  0.91762  Biso   1.000  C
  H47      1.0000 0.52662  0.68246  0.94831  Biso   1.000  H
  N32      1.0000 0.90768  0.84208  0.14452  Biso   1.000  N
  C54      1.0000 0.75397  0.97491  0.20465  Biso   1.000  C
  H48      1.0000 0.83449  0.88718  0.32132  Biso   1.000  H
  H49      1.0000 0.99056  0.83306  0.34662  Biso   1.000  H
  H50      1.0000 0.89738  0.73008  0.34782  Biso   1.000  H
  N33      1.0000 0.07931  0.73917  0.00600  Biso   1.000  N
  C55      1.0000 0.13441  0.50448  0.05524  Biso   1.000  C
  H51      1.0000 0.40381  0.60982  0.90507  Biso   1.000  H
  H52      1.0000 0.25060  0.69702  0.89078  Biso   1.000  H
  H53      1.0000 0.28073  0.53758  0.90957  Biso   1.000  H
  C56      1.0000 0.83082  0.90864  0.08953  Biso   1.000  C
  H54      1.0000 0.72802  0.99508  0.24609  Biso   1.000  H
  N34      1.0000 0.67893  0.04140  0.14921  Biso   1.000  N
  C57      1.0000 0.96424  0.74347  0.03839  Biso   1.000  C
  N35      1.0000 0.01628  0.50857  0.08688  Biso   1.000  N
  H55      1.0000 0.19822  0.42133  0.05989  Biso   1.000  H
  N36      1.0000 0.87243  0.86923  0.03204  Biso   1.000  N
  C58      1.0000 0.71561  0.01071  0.09168  Biso   1.000  C
  C59      1.0000 0.93315  0.62810  0.07868  Biso   1.000  C
  C60      1.0000 0.82901  0.95734  0.96641  Biso   1.000  C
  H56      1.0000 0.66353  0.05816  0.05189  Biso   1.000  H
  H57      1.0000 0.84908  0.63585  0.10088  Biso   1.000  H
  H58      1.0000 0.78263  0.91276  0.94131  Biso   1.000  H
  H59      1.0000 0.90882  0.97911  0.94221  Biso   1.000  H
  H60      1.0000 0.76647  0.03972  0.97161  Biso   1.000  H
  C61      1.0000 0.53438  0.21530  0.78281  Biso   1.000  C
  N37      1.0000 0.59433  0.29364  0.81715  Biso   1.000  N
  H61      1.0000 0.45432  0.19344  0.80661  Biso   1.000  H
  H62      1.0000 0.50716  0.26720  0.73702  Biso   1.000  H
  H63      1.0000 0.60138  0.13266  0.78181  Biso   1.000  H
  C62      1.0000 0.55951  0.29888  0.88169  Biso   1.000  C
  C63      1.0000 0.71213  0.33644  0.79091  Biso   1.000  C
  N38      1.0000 0.64367  0.33959  0.91588  Biso   1.000  N
  C64      1.0000 0.44333  0.26151  0.91098  Biso   1.000  C
  N39      1.0000 0.81798  0.24486  0.77936  Biso   1.000  N
  C65      1.0000 0.71315  0.47127  0.77666  Biso   1.000  C
  C66      1.0000 0.61278  0.34576  0.97856  Biso   1.000  C
  N40      1.0000 0.41167  0.26936  0.97301  Biso   1.000  N
  H64      1.0000 0.38633  0.23012  0.88619  Biso   1.000  H
  C67      1.0000 0.92626  0.28917  0.75397  Biso   1.000  C
  N41      1.0000 0.81963  0.51563  0.74982  Biso   1.000  N
  H65      1.0000 0.63547  0.53310  0.78641  Biso   1.000  H
  N42      1.0000 0.70369  0.38738  0.01191  Biso   1.000  N
  C68      1.0000 0.49440  0.31103  0.00741  Biso   1.000  C
  C69      1.0000 0.92692  0.42252  0.73882  Biso   1.000  C
  N43      1.0000 0.04375  0.19177  0.74402  Biso   1.000  N
  C70      1.0000 0.83517  0.38122  0.98381  Biso   1.000  C
  C71      1.0000 0.69101  0.38561  0.08234  Biso   1.000  C
  H66      1.0000 0.47334  0.31760  0.05170  Biso   1.000  H
  H67      1.0000 0.00568  0.44954  0.71998  Biso   1.000  H
  C72      1.0000 0.12868  0.12477  0.79816  Biso   1.000  C
  C73      1.0000 0.08356  0.18469  0.67659  Biso   1.000  C
  N44      1.0000 0.92068  0.26079  0.99401  Biso   1.000  N
  C74      1.0000 0.86557  0.49549  0.94477  Biso   1.000  C
  H68      1.0000 0.59617  0.39017  0.09489  Biso   1.000  H
  H69      1.0000 0.74938  0.30295  0.10923  Biso   1.000  H
  H70      1.0000 0.71923  0.46250  0.09039  Biso   1.000  H
  N45      1.0000 0.09231  0.15788  0.85549  Biso   1.000  N
  C75      1.0000 0.24599  0.02515  0.79536  Biso   1.000  C
  H71      1.0000 0.16549  0.11278  0.67869  Biso   1.000  H
  H72      1.0000 0.00953  0.16690  0.65339  Biso   1.000  H
  H73      1.0000 0.10260  0.26988  0.65219  Biso   1.000  H
  C76      1.0000 0.03584  0.25652  0.96157  Biso   1.000  C
  N46      1.0000 0.98371  0.49139  0.91313  Biso   1.000  N
  H74      1.0000 0.80184  0.57873  0.94012  Biso   1.000  H
  C77      1.0000 0.16914  0.09145  0.91043  Biso   1.000  C
  N47      1.0000 0.32105  0.95856  0.85079  Biso   1.000  N
  H75      1.0000 0.27197  0.00488  0.75392  Biso   1.000  H
  N48      1.0000 0.12763  0.13083  0.96797  Biso   1.000  N
  C78      1.0000 0.06694  0.37187  0.92133  Biso   1.000  C
  C79      1.0000 0.28435  0.98935  0.90833  Biso   1.000  C
  C80      1.0000 0.17097  0.04264  0.03355  Biso   1.000  C
  H76      1.0000 0.15087  0.36423  0.89908  Biso   1.000  H
  H77      1.0000 0.33646  0.94180  0.94812  Biso   1.000  H
  H78      1.0000 0.23352  0.96024  0.02840  Biso   1.000  H
  H79      1.0000 0.21733  0.08730  0.05869  Biso   1.000  H
  H80      1.0000 0.09117  0.02085  0.05779  Biso   1.000  H
