data_image0
_cell_length_a       13.207
_cell_length_b       18.993
_cell_length_c       28.563
_cell_angle_alpha    90
_cell_angle_beta     90
_cell_angle_gamma    90

_symmetry_space_group_name_H-M    "P 1"
_symmetry_int_tables_number       1

loop_
  _symmetry_equiv_pos_as_xyz
  'x, y, z'

loop_
  _atom_site_label
  _atom_site_occupancy
  _atom_site_fract_x
  _atom_site_fract_y
  _atom_site_fract_z
  _atom_site_thermal_displace_type
  _atom_site_B_iso_or_equiv
  _atom_site_type_symbol
  C1       1.0000 0.50102  0.40067  0.49739  Biso   1.000  C
  C2       1.0000 0.47581  0.34702  0.45811  Biso   1.000  C
  H1       1.0000 0.49648  0.44869  0.48489  Biso   1.000  H
  O1       1.0000 0.42258  0.39062  0.53370  Biso   1.000  O
  C3       1.0000 0.59983  0.38930  0.51619  Biso   1.000  C
  C4       1.0000 0.56493  0.35418  0.42110  Biso   1.000  C
  H2       1.0000 0.47672  0.29943  0.47131  Biso   1.000  H
  O2       1.0000 0.37972  0.36019  0.43878  Biso   1.000  O
  H3       1.0000 0.44257  0.40720  0.55859  Biso   1.000  H
  C5       1.0000 0.67843  0.39499  0.47530  Biso   1.000  C
  H4       1.0000 0.60309  0.34202  0.52999  Biso   1.000  H
  O3       1.0000 0.62103  0.43958  0.55099  Biso   1.000  O
  O4       1.0000 0.55039  0.42231  0.39919  Biso   1.000  O
  H5       1.0000 0.55630  0.31759  0.39719  Biso   1.000  H
  O5       1.0000 0.65427  0.34618  0.44050  Biso   1.000  O
  H6       1.0000 0.38472  0.38999  0.41809  Biso   1.000  H
  H7       1.0000 0.67593  0.44258  0.46210  Biso   1.000  H
  C6       1.0000 0.78057  0.37940  0.48969  Biso   1.000  C
  C7       1.0000 0.65019  0.41468  0.59570  Biso   1.000  C
  C8       1.0000 0.52669  0.42753  0.35101  Biso   1.000  C
  H8       1.0000 0.80268  0.41600  0.51112  Biso   1.000  H
  H9       1.0000 0.82403  0.38161  0.46231  Biso   1.000  H
  O6       1.0000 0.79443  0.31491  0.51112  Biso   1.000  O
  H10      1.0000 0.63890  0.36382  0.59749  Biso   1.000  H
  C9       1.0000 0.58378  0.45180  0.63152  Biso   1.000  C
  O7       1.0000 0.75044  0.42921  0.60438  Biso   1.000  O
  C10      1.0000 0.44461  0.48012  0.34639  Biso   1.000  C
  H11      1.0000 0.50269  0.38182  0.33960  Biso   1.000  H
  C11      1.0000 0.61899  0.44838  0.32462  Biso   1.000  C
  H12      1.0000 0.85470  0.30922  0.51689  Biso   1.000  H
  H13      1.0000 0.59620  0.43068  0.66229  Biso   1.000  H
  O8       1.0000 0.47747  0.44348  0.62010  Biso   1.000  O
  C12      1.0000 0.60733  0.53162  0.63439  Biso   1.000  C
  C13      1.0000 0.77807  0.50140  0.60298  Biso   1.000  C
  O9       1.0000 0.35012  0.45522  0.36621  Biso   1.000  O
  C14      1.0000 0.42334  0.49660  0.29472  Biso   1.000  C
  H14      1.0000 0.46483  0.52351  0.36250  Biso   1.000  H
  O10      1.0000 0.59499  0.46270  0.27690  Biso   1.000  O
  H15      1.0000 0.64632  0.49139  0.33869  Biso   1.000  H
  C15      1.0000 0.69993  0.39378  0.32462  Biso   1.000  C
  H16      1.0000 0.44779  0.42558  0.64230  Biso   1.000  H
  H17      1.0000 0.58567  0.55389  0.60519  Biso   1.000  H
  O11      1.0000 0.55471  0.56252  0.67150  Biso   1.000  O
  C16      1.0000 0.71818  0.54299  0.64030  Biso   1.000  C
  H18      1.0000 0.75922  0.51988  0.57221  Biso   1.000  H
  C17      1.0000 0.89013  0.50650  0.60739  Biso   1.000  C
  H19      1.0000 0.36200  0.42700  0.38721  Biso   1.000  H
  C18      1.0000 0.52177  0.51682  0.27200  Biso   1.000  C
  H20      1.0000 0.39653  0.45438  0.27942  Biso   1.000  H
  O12      1.0000 0.35224  0.55231  0.28999  Biso   1.000  O
  H21      1.0000 0.72318  0.38619  0.35641  Biso   1.000  H
  H22      1.0000 0.75687  0.41041  0.30620  Biso   1.000  H
  O13      1.0000 0.66457  0.32981  0.30589  Biso   1.000  O
  H23      1.0000 0.58363  0.59869  0.67952  Biso   1.000  H
  H24      1.0000 0.73930  0.52841  0.67181  Biso   1.000  H
  O14      1.0000 0.73650  0.61512  0.63432  Biso   1.000  O
  H25      1.0000 0.91118  0.55489  0.60281  Biso   1.000  H
  H26      1.0000 0.92194  0.47791  0.58341  Biso   1.000  H
  O15      1.0000 0.92118  0.48339  0.65172  Biso   1.000  O
  H27      1.0000 0.50912  0.52351  0.23849  Biso   1.000  H
  O16      1.0000 0.55773  0.58079  0.29020  Biso   1.000  O
  H28      1.0000 0.38048  0.58701  0.27910  Biso   1.000  H
  H29      1.0000 0.61801  0.33760  0.28761  Biso   1.000  H
  C19      1.0000 0.80048  0.65182  0.66569  Biso   1.000  C
  H30      1.0000 0.96373  0.51061  0.66219  Biso   1.000  H
  C20      1.0000 0.58461  0.63808  0.25922  Biso   1.000  C
  H31      1.0000 0.81949  0.62160  0.69208  Biso   1.000  H
  C21      1.0000 0.73802  0.71558  0.68291  Biso   1.000  C
  O17      1.0000 0.88688  0.67620  0.64240  Biso   1.000  O
  C22      1.0000 0.51579  0.69499  0.26779  Biso   1.000  C
  H32      1.0000 0.57530  0.62218  0.22690  Biso   1.000  H
  C23      1.0000 0.69259  0.65561  0.26611  Biso   1.000  C
  H33      1.0000 0.77944  0.74169  0.70539  Biso   1.000  H
  O18      1.0000 0.64860  0.69141  0.70689  Biso   1.000  O
  C24      1.0000 0.71068  0.76328  0.64531  Biso   1.000  C
  C25      1.0000 0.86288  0.71958  0.60291  Biso   1.000  C
  C26      1.0000 0.55228  0.76349  0.24220  Biso   1.000  C
  H34      1.0000 0.51617  0.70452  0.30151  Biso   1.000  H
  O19      1.0000 0.41274  0.68009  0.25439  Biso   1.000  O
  H35      1.0000 0.70379  0.66330  0.29958  Biso   1.000  H
  O20      1.0000 0.72038  0.71732  0.24241  Biso   1.000  O
  C27      1.0000 0.76528  0.59959  0.24990  Biso   1.000  C
  H36      1.0000 0.62861  0.65482  0.69481  Biso   1.000  H
  H37      1.0000 0.66503  0.73890  0.62371  Biso   1.000  H
  O21      1.0000 0.66313  0.82188  0.66212  Biso   1.000  O
  C28      1.0000 0.80889  0.78439  0.61860  Biso   1.000  C
  H38      1.0000 0.81798  0.69310  0.58201  Biso   1.000  H
  C29      1.0000 0.96229  0.73448  0.57701  Biso   1.000  C
  C30      1.0000 0.65662  0.77592  0.25421  Biso   1.000  C
  H39      1.0000 0.54729  0.75628  0.20831  Biso   1.000  H
  O22      1.0000 0.49390  0.82041  0.25439  Biso   1.000  O
  H40      1.0000 0.39577  0.64171  0.26499  Biso   1.000  H
  H41      1.0000 0.76058  0.59569  0.21608  Biso   1.000  H
  H42      1.0000 0.74453  0.55489  0.26321  Biso   1.000  H
  O23      1.0000 0.86530  0.61170  0.26191  Biso   1.000  O
  H43      1.0000 0.65291  0.84952  0.64058  Biso   1.000  H
  H44      1.0000 0.85281  0.81383  0.63810  Biso   1.000  H
  O24      1.0000 0.77580  0.82230  0.57729  Biso   1.000  O
  H45      1.0000 0.94798  0.75349  0.54620  Biso   1.000  H
  H46      1.0000 0.00023  0.69110  0.57319  Biso   1.000  H
  O25      1.0000 0.02052  0.78392  0.60330  Biso   1.000  O
  H47      1.0000 0.68009  0.81699  0.23649  Biso   1.000  H
  O26      1.0000 0.66487  0.79129  0.30161  Biso   1.000  O
  H48      1.0000 0.44726  0.82462  0.23558  Biso   1.000  H
  H49      1.0000 0.90089  0.58032  0.25099  Biso   1.000  H
  C31      1.0000 0.80662  0.89370  0.57539  Biso   1.000  C
  C32      1.0000 0.10404  0.81083  0.58450  Biso   1.000  C
  C33      1.0000 0.71833  0.85379  0.31628  Biso   1.000  C
  C34      1.0000 0.71099  0.93461  0.55729  Biso   1.000  C
  O27      1.0000 0.88771  0.90270  0.54539  Biso   1.000  O
  H50      1.0000 0.82471  0.91012  0.60680  Biso   1.000  H
  C35      1.0000 0.14772  0.78408  0.54371  Biso   1.000  C
  C36      1.0000 0.14500  0.86848  0.60389  Biso   1.000  C
  C37      1.0000 0.64799  0.89849  0.34240  Biso   1.000  C
  H51      1.0000 0.74286  0.87922  0.28870  Biso   1.000  H
  C38      1.0000 0.80798  0.83041  0.34601  Biso   1.000  C
  C39      1.0000 0.69130  0.91671  0.50838  Biso   1.000  C
  H52      1.0000 0.72651  0.98499  0.55869  Biso   1.000  H
  O28      1.0000 0.62777  0.92218  0.58681  Biso   1.000  O
  C40      1.0000 0.86696  0.88048  0.49722  Biso   1.000  C
  H53      1.0000 0.11872  0.74638  0.52782  Biso   1.000  H
  C41      1.0000 0.23631  0.81572  0.52740  Biso   1.000  C
  C42      1.0000 0.22518  0.90081  0.58681  Biso   1.000  C
  H54      1.0000 0.11532  0.88659  0.63089  Biso   1.000  H
  C43      1.0000 0.69948  0.96078  0.36330  Biso   1.000  C
  H55      1.0000 0.61854  0.87048  0.36778  Biso   1.000  H
  O29      1.0000 0.56758  0.92281  0.31299  Biso   1.000  O
  H56      1.0000 0.78322  0.80108  0.37191  Biso   1.000  H
  O30      1.0000 0.85727  0.89280  0.36530  Biso   1.000  O
  C44      1.0000 0.88612  0.79129  0.32020  Biso   1.000  C
  C45      1.0000 0.78201  0.92492  0.47681  Biso   1.000  C
  H57      1.0000 0.66760  0.86790  0.50670  Biso   1.000  H
  O31      1.0000 0.61271  0.96299  0.48930  Biso   1.000  O
  H58      1.0000 0.64383  0.89412  0.60718  Biso   1.000  H
  H59      1.0000 0.84622  0.83099  0.49729  Biso   1.000  H
  C46      1.0000 0.96850  0.88727  0.47120  Biso   1.000  C
  H60      1.0000 0.27130  0.79498  0.50271  Biso   1.000  H
  C47      1.0000 0.27167  0.87390  0.54599  Biso   1.000  C
  H61      1.0000 0.25100  0.94072  0.60141  Biso   1.000  H
  C48      1.0000 0.79110  0.93661  0.39310  Biso   1.000  C
  H62      1.0000 0.72446  0.99068  0.33781  Biso   1.000  H
  O32      1.0000 0.63557  0.00247  0.39289  Biso   1.000  O
  H63      1.0000 0.53032  0.94888  0.32801  Biso   1.000  H
  O33      1.0000 0.95972  0.76349  0.35350  Biso   1.000  O
  O34      1.0000 0.91497  0.83299  0.27942  Biso   1.000  O
  O35      1.0000 0.75861  0.89928  0.43161  Biso   1.000  O
  H64      1.0000 0.80253  0.97452  0.47509  Biso   1.000  H
  H65      1.0000 0.55698  0.94498  0.49330  Biso   1.000  H
  H66      1.0000 0.96578  0.93050  0.45300  Biso   1.000  H
  O36      1.0000 0.99780  0.83810  0.44362  Biso   1.000  O
  H67      1.0000 0.02090  0.89359  0.49459  Biso   1.000  H
  N1       1.0000 0.35678  0.90828  0.52670  Biso   1.000  N
  H68      1.0000 0.82873  0.97810  0.40370  Biso   1.000  H
  H69      1.0000 0.63209  0.98431  0.41890  Biso   1.000  H
  H70      1.0000 0.96282  0.78950  0.37629  Biso   1.000  H
  H71      1.0000 0.96790  0.84152  0.41851  Biso   1.000  H
  O37      1.0000 0.39706  0.95830  0.54539  Biso   1.000  O
  O38      1.0000 0.39577  0.88459  0.49011  Biso   1.000  O
  C49      1.0000 0.46846  0.61270  0.52880  Biso   1.000  C
  C50      1.0000 0.36700  0.61949  0.50278  Biso   1.000  C
  H72      1.0000 0.52094  0.60638  0.50541  Biso   1.000  H
  H73      1.0000 0.46581  0.56953  0.54700  Biso   1.000  H
  O39      1.0000 0.49777  0.66188  0.55638  Biso   1.000  O
  O40      1.0000 0.38767  0.59733  0.45461  Biso   1.000  O
  C51      1.0000 0.28197  0.57511  0.52319  Biso   1.000  C
  H74      1.0000 0.34618  0.66898  0.50271  Biso   1.000  H
  H75      1.0000 0.46793  0.65851  0.58149  Biso   1.000  H
  C52      1.0000 0.30658  0.60628  0.42461  Biso   1.000  C
  C53      1.0000 0.19126  0.58332  0.49162  Biso   1.000  C
  H76      1.0000 0.30249  0.52551  0.52491  Biso   1.000  H
  O41      1.0000 0.25857  0.60069  0.56839  Biso   1.000  O
  C54      1.0000 0.21102  0.56542  0.44271  Biso   1.000  C
  H77      1.0000 0.32468  0.58990  0.39320  Biso   1.000  H
  O42      1.0000 0.27576  0.67772  0.42271  Biso   1.000  O
  H78      1.0000 0.16756  0.63207  0.49330  Biso   1.000  H
  O43      1.0000 0.11267  0.53699  0.51070  Biso   1.000  O
  C55      1.0000 0.29113  0.56342  0.60690  Biso   1.000  C
  O44      1.0000 0.12781  0.57779  0.41319  Biso   1.000  O
  H79      1.0000 0.22647  0.51498  0.44131  Biso   1.000  H
  C56      1.0000 0.30893  0.71558  0.38140  Biso   1.000  C
  H80      1.0000 0.05702  0.55499  0.50670  Biso   1.000  H
  H81      1.0000 0.32869  0.52188  0.59630  Biso   1.000  H
  C57      1.0000 0.19952  0.53920  0.63670  Biso   1.000  C
  O45      1.0000 0.35731  0.60722  0.63470  Biso   1.000  O
  H82      1.0000 0.14379  0.60591  0.39282  Biso   1.000  H
  C58      1.0000 0.21072  0.73669  0.35469  Biso   1.000  C
  H83      1.0000 0.35277  0.68620  0.36190  Biso   1.000  H
  C59      1.0000 0.36291  0.78039  0.39709  Biso   1.000  C
  H84      1.0000 0.22450  0.50929  0.66219  Biso   1.000  H
  O46      1.0000 0.13561  0.49750  0.60711  Biso   1.000  O
  C60      1.0000 0.14803  0.60148  0.65760  Biso   1.000  C
  C61      1.0000 0.30802  0.66962  0.65399  Biso   1.000  C
  C62      1.0000 0.23798  0.78439  0.31709  Biso   1.000  C
  H85      1.0000 0.16499  0.76112  0.37629  Biso   1.000  H
  O47      1.0000 0.16310  0.67809  0.33788  Biso   1.000  O
  H86      1.0000 0.31801  0.80688  0.41799  Biso   1.000  H
  O48      1.0000 0.38692  0.82378  0.35760  Biso   1.000  O
  C63      1.0000 0.46233  0.76549  0.42299  Biso   1.000  C
  H87      1.0000 0.13213  0.51572  0.58110  Biso   1.000  H
  H88      1.0000 0.11850  0.62950  0.63222  Biso   1.000  H
  O49      1.0000 0.06762  0.57721  0.68701  Biso   1.000  O
  C64      1.0000 0.21829  0.64619  0.68372  Biso   1.000  C
  H89      1.0000 0.28318  0.69889  0.62809  Biso   1.000  H
  C65      1.0000 0.38608  0.70868  0.67980  Biso   1.000  C
  C66      1.0000 0.30052  0.84821  0.33431  Biso   1.000  C
  H90      1.0000 0.27940  0.75828  0.29461  Biso   1.000  H
  O50      1.0000 0.14863  0.80861  0.29311  Biso   1.000  O
  H91      1.0000 0.15287  0.65050  0.35942  Biso   1.000  H
  H92      1.0000 0.44802  0.74649  0.45380  Biso   1.000  H
  H93      1.0000 0.50019  0.80888  0.42681  Biso   1.000  H
  O51      1.0000 0.52048  0.71611  0.39670  Biso   1.000  O
  H94      1.0000 0.03029  0.55110  0.67199  Biso   1.000  H
  H95      1.0000 0.24290  0.62081  0.71130  Biso   1.000  H
  O52      1.0000 0.16491  0.70868  0.69839  Biso   1.000  O
  O53      1.0000 0.45968  0.73648  0.64650  Biso   1.000  O
  O54      1.0000 0.41501  0.66698  0.72058  Biso   1.000  O
  H96      1.0000 0.31953  0.87838  0.30792  Biso   1.000  H
  O55      1.0000 0.23647  0.88490  0.36568  Biso   1.000  O
  H97      1.0000 0.12857  0.84521  0.30519  Biso   1.000  H
  C67      1.0000 0.60400  0.68920  0.41550  Biso   1.000  C
  C68      1.0000 0.15658  0.72411  0.74579  Biso   1.000  C
  H98      1.0000 0.46278  0.71052  0.62371  Biso   1.000  H
  C69      1.0000 0.21822  0.95698  0.35970  Biso   1.000  C
  C70      1.0000 0.64769  0.71590  0.45629  Biso   1.000  C
  C71      1.0000 0.64504  0.63150  0.39611  Biso   1.000  C
  H99      1.0000 0.18013  0.68299  0.76351  Biso   1.000  H
  C72      1.0000 0.05232  0.73648  0.75780  Biso   1.000  C
  O56      1.0000 0.22041  0.78271  0.75759  Biso   1.000  O
  C73      1.0000 0.10729  0.96841  0.36561  Biso   1.000  C
  H100     1.0000 0.23927  0.97162  0.32819  Biso   1.000  H
  C74      1.0000 0.27811  0.99858  0.39702  Biso   1.000  C
  H101     1.0000 0.61869  0.75359  0.47218  Biso   1.000  H
  C75      1.0000 0.73628  0.68430  0.47260  Biso   1.000  C
  C76      1.0000 0.72522  0.59922  0.41319  Biso   1.000  C
  H102     1.0000 0.61528  0.61338  0.36911  Biso   1.000  H
  H103     1.0000 0.04732  0.74370  0.79169  Biso   1.000  H
  C77      1.0000 0.01582  0.80498  0.73221  Biso   1.000  C
  O57      1.0000 0.99387  0.67962  0.74561  Biso   1.000  O
  C78      1.0000 0.19263  0.84442  0.73389  Biso   1.000  C
  H104     1.0000 0.08571  0.94609  0.39481  Biso   1.000  H
  O58      1.0000 0.05467  0.93750  0.32850  Biso   1.000  O
  C79      1.0000 0.08382  0.04818  0.36848  Biso   1.000  C
  H105     1.0000 0.25918  0.98010  0.42779  Biso   1.000  H
  C80      1.0000 0.39010  0.99352  0.39261  Biso   1.000  C
  O59      1.0000 0.25040  0.07082  0.39562  Biso   1.000  O
  H106     1.0000 0.77133  0.70500  0.49729  Biso   1.000  H
  C81      1.0000 0.77171  0.62613  0.45401  Biso   1.000  C
  H107     1.0000 0.75097  0.55931  0.39859  Biso   1.000  H
  H108     1.0000 0.01620  0.79550  0.69849  Biso   1.000  H
  C82      1.0000 0.08458  0.86190  0.74078  Biso   1.000  C
  O60      1.0000 0.91270  0.81988  0.74561  Biso   1.000  O
  H109     1.0000 0.94730  0.67541  0.76442  Biso   1.000  H
  H110     1.0000 0.20383  0.83668  0.70042  Biso   1.000  H
  C83      1.0000 0.26531  0.90038  0.75010  Biso   1.000  C
  H111     1.0000 0.08359  0.90128  0.32048  Biso   1.000  H
  O61      1.0000 0.97751  0.05649  0.37990  Biso   1.000  O
  C84      1.0000 0.15022  0.08529  0.40430  Biso   1.000  C
  H112     1.0000 0.09624  0.06929  0.33771  Biso   1.000  H
  H113     1.0000 0.41122  0.94509  0.39719  Biso   1.000  H
  H114     1.0000 0.42190  0.02211  0.41659  Biso   1.000  H
  O62      1.0000 0.42122  0.01659  0.34828  Biso   1.000  O
  N2       1.0000 0.85682  0.59169  0.47330  Biso   1.000  N
  H115     1.0000 0.07526  0.87780  0.77310  Biso   1.000  H
  O63      1.0000 0.05770  0.91918  0.70980  Biso   1.000  O
  H116     1.0000 0.89581  0.85832  0.73501  Biso   1.000  H
  H117     1.0000 0.26062  0.90428  0.78392  Biso   1.000  H
  H118     1.0000 0.24449  0.94509  0.73679  Biso   1.000  H
  O64      1.0000 0.36534  0.88827  0.73809  Biso   1.000  O
  H119     1.0000 0.94783  0.07440  0.35770  Biso   1.000  H
  H120     1.0000 0.13887  0.13621  0.40251  Biso   1.000  H
  O65      1.0000 0.12100  0.06039  0.44901  Biso   1.000  O
  H121     1.0000 0.46369  0.98942  0.33781  Biso   1.000  H
  O66      1.0000 0.89710  0.54173  0.45461  Biso   1.000  O
  O67      1.0000 0.89581  0.61538  0.50989  Biso   1.000  O
  C85      1.0000 0.02181  0.98320  0.72800  Biso   1.000  C
  H122     1.0000 0.40092  0.91971  0.74901  Biso   1.000  H
  C86      1.0000 0.09980  0.11073  0.48381  Biso   1.000  C
  H123     1.0000 0.00909  0.97652  0.76151  Biso   1.000  H
  C87      1.0000 0.92330  0.00342  0.70528  Biso   1.000  C
  O68      1.0000 0.09503  0.03728  0.72310  Biso   1.000  O
  C88      1.0000 0.00098  0.09930  0.50261  Biso   1.000  C
  H124     1.0000 0.10313  0.15801  0.47001  Biso   1.000  H
  C89      1.0000 0.17839  0.10499  0.52470  Biso   1.000  C
  O69      1.0000 0.85220  0.94772  0.71001  Biso   1.000  O
  H125     1.0000 0.89649  0.04560  0.72058  Biso   1.000  H
  C90      1.0000 0.94457  0.01990  0.65361  Biso   1.000  C
  C91      1.0000 0.11903  0.05160  0.67538  Biso   1.000  C
  C92      1.0000 0.97577  0.15300  0.54189  Biso   1.000  C
  H126     1.0000 0.99652  0.05128  0.51511  Biso   1.000  H
  O70      1.0000 0.92262  0.10941  0.46630  Biso   1.000  O
  H127     1.0000 0.17589  0.05739  0.53790  Biso   1.000  H
  O71      1.0000 0.15431  0.15379  0.55950  Biso   1.000  O
  C93      1.0000 0.28061  0.12062  0.51031  Biso   1.000  C
  H128     1.0000 0.88052  0.91302  0.72090  Biso   1.000  H
  H129     1.0000 0.96479  0.97652  0.63750  Biso   1.000  H
  O72      1.0000 0.85008  0.04481  0.63379  Biso   1.000  O
  C94      1.0000 0.02673  0.07250  0.64899  Biso   1.000  C
  H130     1.0000 0.14629  0.00858  0.66131  Biso   1.000  H
  C95      1.0000 0.19989  0.10620  0.67538  Biso   1.000  C
  H131     1.0000 0.97668  0.20060  0.52869  Biso   1.000  H
  O73      1.0000 0.87969  0.13979  0.56122  Biso   1.000  O
  C96      1.0000 0.06489  0.14579  0.57890  Biso   1.000  C
  H132     1.0000 0.94261  0.09282  0.44141  Biso   1.000  H
  H133     1.0000 0.30272  0.08398  0.48888  Biso   1.000  H
  H134     1.0000 0.32399  0.11841  0.53769  Biso   1.000  H
  O74      1.0000 0.29439  0.18512  0.48888  Biso   1.000  O
  H135     1.0000 0.86197  0.07297  0.61279  Biso   1.000  H
  O75      1.0000 0.05043  0.07771  0.60081  Biso   1.000  O
  H136     1.0000 0.00273  0.11820  0.66040  Biso   1.000  H
  H137     1.0000 0.22321  0.11378  0.64359  Biso   1.000  H
  H138     1.0000 0.25691  0.08961  0.69380  Biso   1.000  H
  O76      1.0000 0.16461  0.17022  0.69411  Biso   1.000  O
  H139     1.0000 0.88468  0.10999  0.58191  Biso   1.000  H
  H140     1.0000 0.05633  0.18238  0.60281  Biso   1.000  H
  H141     1.0000 0.35474  0.19081  0.48311  Biso   1.000  H
  H142     1.0000 0.11797  0.16238  0.71239  Biso   1.000  H
  O77      1.0000 0.63466  0.38830  0.76189  Biso   1.000  O
  C97      1.0000 0.73469  0.40041  0.74989  Biso   1.000  C
  H143     1.0000 0.59908  0.41968  0.75101  Biso   1.000  H
  C98      1.0000 0.80737  0.34439  0.76610  Biso   1.000  C
  H144     1.0000 0.73938  0.40431  0.71610  Biso   1.000  H
  H145     1.0000 0.75551  0.44511  0.76319  Biso   1.000  H
  C99      1.0000 0.91542  0.36192  0.75920  Biso   1.000  C
  H146     1.0000 0.79617  0.33670  0.79960  Biso   1.000  H
  O78      1.0000 0.77959  0.28268  0.74239  Biso   1.000  O
  C100     1.0000 0.98418  0.30501  0.76781  Biso   1.000  C
  H147     1.0000 0.92474  0.37782  0.72688  Biso   1.000  H
  O79      1.0000 0.94230  0.41921  0.79018  Biso   1.000  O
  C101     1.0000 0.84342  0.22408  0.75419  Biso   1.000  C
  C102     1.0000 0.94768  0.23651  0.74218  Biso   1.000  C
  H148     1.0000 0.98380  0.29548  0.80149  Biso   1.000  H
  O80      1.0000 0.08730  0.31991  0.75440  Biso   1.000  O
  C103     1.0000 0.97819  0.48318  0.77201  Biso   1.000  C
  H149     1.0000 0.81987  0.18301  0.73651  Biso   1.000  H
  O81      1.0000 0.83509  0.20871  0.80160  Biso   1.000  O
  H150     1.0000 0.95268  0.24372  0.70829  Biso   1.000  H
  O82      1.0000 0.00613  0.17959  0.75440  Biso   1.000  O
  H151     1.0000 0.10419  0.35829  0.76501  Biso   1.000  H
  H152     1.0000 0.99091  0.47649  0.73851  Biso   1.000  H
  O83      1.0000 0.90497  0.53730  0.77691  Biso   1.000  O
  C104     1.0000 0.07670  0.50340  0.79470  Biso   1.000  C
  C105     1.0000 0.78171  0.14621  0.81630  Biso   1.000  C
  H153     1.0000 0.05270  0.17538  0.73560  Biso   1.000  H
  C106     1.0000 0.88097  0.55162  0.82460  Biso   1.000  C
  H154     1.0000 0.10351  0.54562  0.77940  Biso   1.000  H
  O84      1.0000 0.14780  0.44769  0.79001  Biso   1.000  O
  C107     1.0000 0.05543  0.51988  0.84641  Biso   1.000  C
  C108     1.0000 0.85197  0.10151  0.84238  Biso   1.000  C
  H155     1.0000 0.75710  0.12078  0.78871  Biso   1.000  H
  C109     1.0000 0.69198  0.16959  0.84599  Biso   1.000  C
  C110     1.0000 0.97327  0.57247  0.85100  Biso   1.000  C
  H156     1.0000 0.85371  0.50861  0.83871  Biso   1.000  H
  C111     1.0000 0.80011  0.60622  0.82460  Biso   1.000  C
  H157     1.0000 0.11948  0.41299  0.77908  Biso   1.000  H
  H158     1.0000 0.03521  0.47649  0.86251  Biso   1.000  H
  O85      1.0000 0.14992  0.54478  0.86619  Biso   1.000  O
  C112     1.0000 0.80048  0.03922  0.86328  Biso   1.000  C
  H159     1.0000 0.88150  0.12952  0.86780  Biso   1.000  H
  O86      1.0000 0.93238  0.07719  0.81301  Biso   1.000  O
  H160     1.0000 0.71682  0.19892  0.87190  Biso   1.000  H
  O87      1.0000 0.64269  0.10720  0.86532  Biso   1.000  O
  C113     1.0000 0.61392  0.20871  0.82019  Biso   1.000  C
  H161     1.0000 0.99727  0.61818  0.83958  Biso   1.000  H
  O88      1.0000 0.94957  0.57769  0.89921  Biso   1.000  O
  H162     1.0000 0.77679  0.61381  0.85639  Biso   1.000  H
  H163     1.0000 0.74309  0.58959  0.80618  Biso   1.000  H
  O89      1.0000 0.83539  0.67019  0.80590  Biso   1.000  O
  H164     1.0000 0.13803  0.57300  0.88720  Biso   1.000  H
  C114     1.0000 0.70887  0.06339  0.89311  Biso   1.000  C
  H165     1.0000 0.77550  0.00932  0.83780  Biso   1.000  H
  O90      1.0000 0.86439  0.99753  0.89290  Biso   1.000  O
  H166     1.0000 0.96971  0.05112  0.82799  Biso   1.000  H
  O91      1.0000 0.54032  0.23651  0.85352  Biso   1.000  O
  O92      1.0000 0.58499  0.16701  0.77940  Biso   1.000  O
  C115     1.0000 0.93511  0.64582  0.92109  Biso   1.000  C
  H167     1.0000 0.88203  0.66240  0.78759  Biso   1.000  H
  H168     1.0000 0.67131  0.02190  0.90369  Biso   1.000  H
  O93      1.0000 0.74143  0.10072  0.93159  Biso   1.000  O
  H169     1.0000 0.86787  0.01569  0.91892  Biso   1.000  H
  H170     1.0000 0.53722  0.21050  0.87631  Biso   1.000  H
  H171     1.0000 0.94367  0.68241  0.89721  Biso   1.000  H
  O94      1.0000 0.84569  0.65382  0.94052  Biso   1.000  O
  C116     1.0000 0.02423  0.65298  0.95809  Biso   1.000  C
  C117     1.0000 0.71803  0.07508  0.97679  Biso   1.000  C
  C118     1.0000 0.82161  0.60501  0.97528  Biso   1.000  C
  C119     1.0000 0.99902  0.59933  0.99741  Biso   1.000  C
  H172     1.0000 0.02332  0.70057  0.97129  Biso   1.000  H
  O95      1.0000 0.12031  0.63981  0.93880  Biso   1.000  O
  H173     1.0000 0.69751  0.02548  0.97511  Biso   1.000  H
  C120     1.0000 0.63300  0.11952  0.99720  Biso   1.000  C
  C121     1.0000 0.80874  0.08329  0.00840  Biso   1.000  C
  H174     1.0000 0.82411  0.55742  0.96208  Biso   1.000  H
  C122     1.0000 0.71939  0.62060  0.98971  Biso   1.000  C
  C123     1.0000 0.90020  0.61070  0.01621  Biso   1.000  C
  H175     1.0000 0.00348  0.55131  0.98491  Biso   1.000  H
  O96      1.0000 0.07738  0.60938  0.03371  Biso   1.000  O
  H176     1.0000 0.11532  0.61001  0.91811  Biso   1.000  H
  H177     1.0000 0.65382  0.16901  0.99730  Biso   1.000  H
  C124     1.0000 0.53154  0.11273  0.97119  Biso   1.000  C
  O97      1.0000 0.61233  0.09730  0.04541  Biso   1.000  O
  O98      1.0000 0.88733  0.03701  0.98929  Biso   1.000  O
  C125     1.0000 0.78898  0.06539  0.05731  Biso   1.000  C
  H178     1.0000 0.83244  0.13210  0.00669  Biso   1.000  H
  H179     1.0000 0.67601  0.61839  0.96229  Biso   1.000  H
  H180     1.0000 0.69728  0.58400  0.01110  Biso   1.000  H
  O99      1.0000 0.70561  0.68509  0.01110  Biso   1.000  O
  H181     1.0000 0.89687  0.65798  0.03000  Biso   1.000  H
  O100     1.0000 0.87900  0.56042  0.05101  Biso   1.000  O
  H182     1.0000 0.05739  0.59280  0.05861  Biso   1.000  H
  H183     1.0000 0.47906  0.10641  0.99461  Biso   1.000  H
  H184     1.0000 0.53419  0.06950  0.95302  Biso   1.000  H
  O101     1.0000 0.50223  0.16190  0.94360  Biso   1.000  O
  C126     1.0000 0.69342  0.10630  0.07541  Biso   1.000  C
  H185     1.0000 0.94298  0.05502  0.99331  Biso   1.000  H
  H186     1.0000 0.77353  0.01501  0.05871  Biso   1.000  H
  O102     1.0000 0.87219  0.07782  0.08679  Biso   1.000  O
  H187     1.0000 0.64526  0.69078  0.01691  Biso   1.000  H
  C127     1.0000 0.84978  0.58532  0.09568  Biso   1.000  C
  H188     1.0000 0.53207  0.15848  0.91850  Biso   1.000  H
  H189     1.0000 0.67532  0.08988  0.10682  Biso   1.000  H
  O103     1.0000 0.72424  0.17770  0.07730  Biso   1.000  O
  H190     1.0000 0.85621  0.10588  0.10720  Biso   1.000  H
  H191     1.0000 0.86113  0.63618  0.09750  Biso   1.000  H
  C128     1.0000 0.91618  0.54820  0.13150  Biso   1.000  C
  O104     1.0000 0.74960  0.57079  0.10440  Biso   1.000  O
  C129     1.0000 0.69107  0.21561  0.11861  Biso   1.000  C
  H192     1.0000 0.90376  0.56932  0.16231  Biso   1.000  H
  C130     1.0000 0.89271  0.46838  0.13440  Biso   1.000  C
  O105     1.0000 0.02249  0.55652  0.12009  Biso   1.000  O
  C131     1.0000 0.72189  0.49860  0.10300  Biso   1.000  C
  C132     1.0000 0.78928  0.23672  0.14529  Biso   1.000  C
  H193     1.0000 0.64723  0.18617  0.13812  Biso   1.000  H
  C133     1.0000 0.63709  0.28042  0.10290  Biso   1.000  C
  H194     1.0000 0.91429  0.44611  0.10521  Biso   1.000  H
  O106     1.0000 0.94533  0.43748  0.17152  Biso   1.000  O
  C134     1.0000 0.78178  0.45701  0.14029  Biso   1.000  C
  H195     1.0000 0.05217  0.57442  0.14232  Biso   1.000  H
  H196     1.0000 0.74082  0.48012  0.07219  Biso   1.000  H
  C135     1.0000 0.60990  0.49350  0.10741  Biso   1.000  C
  C136     1.0000 0.76202  0.28442  0.18289  Biso   1.000  C
  H197     1.0000 0.83501  0.26110  0.12369  Biso   1.000  H
  O107     1.0000 0.83690  0.17812  0.16210  Biso   1.000  O
  H198     1.0000 0.68199  0.30690  0.08199  Biso   1.000  H
  O108     1.0000 0.61308  0.32380  0.14239  Biso   1.000  O
  C137     1.0000 0.53767  0.26552  0.07699  Biso   1.000  C
  H199     1.0000 0.91641  0.40131  0.17950  Biso   1.000  H
  H200     1.0000 0.76073  0.47159  0.17180  Biso   1.000  H
  O109     1.0000 0.76353  0.38488  0.13430  Biso   1.000  O
  H201     1.0000 0.58878  0.44511  0.10279  Biso   1.000  H
  H202     1.0000 0.57810  0.52209  0.08339  Biso   1.000  H
  O110     1.0000 0.57878  0.51661  0.15170  Biso   1.000  O
  C138     1.0000 0.69948  0.34818  0.16570  Biso   1.000  C
  H203     1.0000 0.72060  0.25831  0.20541  Biso   1.000  H
  O111     1.0000 0.85137  0.30859  0.20691  Biso   1.000  O
  H204     1.0000 0.84713  0.15048  0.14060  Biso   1.000  H
  H205     1.0000 0.55198  0.24651  0.04621  Biso   1.000  H
  H206     1.0000 0.49981  0.30890  0.07321  Biso   1.000  H
  O112     1.0000 0.47952  0.21608  0.10332  Biso   1.000  O
  H207     1.0000 0.53631  0.48939  0.16220  Biso   1.000  H
  H208     1.0000 0.68047  0.37840  0.19210  Biso   1.000  H
  H209     1.0000 0.87143  0.34518  0.19480  Biso   1.000  H
  C139     1.0000 0.39600  0.18917  0.08451  Biso   1.000  C
  C140     1.0000 0.35231  0.21592  0.04369  Biso   1.000  C
  C141     1.0000 0.35496  0.13152  0.10391  Biso   1.000  C
  H210     1.0000 0.38131  0.25362  0.02780  Biso   1.000  H
  C142     1.0000 0.26372  0.18428  0.02741  Biso   1.000  C
  C143     1.0000 0.27478  0.09919  0.08679  Biso   1.000  C
  H211     1.0000 0.38472  0.11341  0.13090  Biso   1.000  H
  H212     1.0000 0.22867  0.20502  0.00270  Biso   1.000  H
  C144     1.0000 0.22829  0.12610  0.04600  Biso   1.000  C
  H213     1.0000 0.24903  0.05928  0.10139  Biso   1.000  H
  N3       1.0000 0.14318  0.09172  0.02671  Biso   1.000  N
  O113     1.0000 0.10419  0.11541  0.99009  Biso   1.000  O
  O114     1.0000 0.10290  0.04170  0.04541  Biso   1.000  O
  O115     1.0000 0.50610  0.32038  0.24560  Biso   1.000  O
  C145     1.0000 0.44772  0.26352  0.25782  Biso   1.000  C
  H214     1.0000 0.55274  0.32459  0.26440  Biso   1.000  H
  C146     1.0000 0.34338  0.27589  0.24581  Biso   1.000  C
  H215     1.0000 0.45271  0.25630  0.29171  Biso   1.000  H
  C147     1.0000 0.48421  0.19502  0.23219  Biso   1.000  C
  O116     1.0000 0.27962  0.21729  0.25761  Biso   1.000  O
  H216     1.0000 0.31991  0.31701  0.26349  Biso   1.000  H
  O117     1.0000 0.33513  0.29132  0.19840  Biso   1.000  O
  C148     1.0000 0.41539  0.13810  0.24080  Biso   1.000  C
  H217     1.0000 0.48383  0.20450  0.19851  Biso   1.000  H
  O118     1.0000 0.58726  0.18012  0.24560  Biso   1.000  O
  C149     1.0000 0.30741  0.15558  0.23390  Biso   1.000  C
  C150     1.0000 0.28167  0.35381  0.18370  Biso   1.000  C
  H218     1.0000 0.42470  0.12220  0.27312  Biso   1.000  H
  O119     1.0000 0.44227  0.08082  0.20982  Biso   1.000  O
  H219     1.0000 0.60423  0.14168  0.23499  Biso   1.000  H
  H220     1.0000 0.29621  0.16332  0.20040  Biso   1.000  H
  C151     1.0000 0.23472  0.09962  0.25011  Biso   1.000  C
  C152     1.0000 0.35201  0.39852  0.15762  Biso   1.000  C
  H221     1.0000 0.25714  0.37919  0.21129  Biso   1.000  H
  C153     1.0000 0.19202  0.33038  0.15401  Biso   1.000  C
  C154     1.0000 0.47823  0.01680  0.22799  Biso   1.000  C
  H222     1.0000 0.23942  0.09572  0.28390  Biso   1.000  H
  H223     1.0000 0.25547  0.05491  0.23681  Biso   1.000  H
  O120     1.0000 0.13470  0.11173  0.23811  Biso   1.000  O
  C155     1.0000 0.30052  0.46080  0.13672  Biso   1.000  C
  H224     1.0000 0.38146  0.37050  0.13220  Biso   1.000  H
  O121     1.0000 0.43242  0.42279  0.18699  Biso   1.000  O
  H225     1.0000 0.21678  0.30111  0.12810  Biso   1.000  H
  O122     1.0000 0.14273  0.39278  0.13468  Biso   1.000  O
  C156     1.0000 0.11388  0.29132  0.17981  Biso   1.000  C
  H226     1.0000 0.49088  0.02348  0.26149  Biso   1.000  H
  C157     1.0000 0.57666  0.99658  0.20530  Biso   1.000  C
  O123     1.0000 0.40501  0.96272  0.22309  Biso   1.000  O
  H227     1.0000 0.09911  0.08029  0.24899  Biso   1.000  H
  C158     1.0000 0.20890  0.43658  0.10689  Biso   1.000  C
  H228     1.0000 0.27554  0.49071  0.16220  Biso   1.000  H
  O124     1.0000 0.36443  0.50250  0.10710  Biso   1.000  O
  H229     1.0000 0.46968  0.44890  0.17201  Biso   1.000  H
  O125     1.0000 0.04028  0.26352  0.14648  Biso   1.000  O
  O126     1.0000 0.08503  0.33302  0.22060  Biso   1.000  O
  O127     1.0000 0.64776  0.05228  0.20999  Biso   1.000  O
  H230     1.0000 0.60347  0.95440  0.22060  Biso   1.000  H
  C159     1.0000 0.55539  0.98010  0.15359  Biso   1.000  C
  C160     1.0000 0.38101  0.94840  0.17540  Biso   1.000  C
  H231     1.0000 0.17127  0.47812  0.09631  Biso   1.000  H
  O128     1.0000 0.24139  0.39931  0.06841  Biso   1.000  O
  H232     1.0000 0.36791  0.48428  0.08108  Biso   1.000  H
  H233     1.0000 0.03718  0.28948  0.12369  Biso   1.000  H
  H234     1.0000 0.61952  0.08698  0.22092  Biso   1.000  H
  H235     1.0000 0.53517  0.02348  0.13749  Biso   1.000  H
  O129     1.0000 0.64988  0.95519  0.13381  Biso   1.000  O
  C161     1.0000 0.47331  0.92750  0.14900  Biso   1.000  C
  H236     1.0000 0.35368  0.99142  0.16129  Biso   1.000  H
  C162     1.0000 0.30007  0.89380  0.17540  Biso   1.000  C
  C163     1.0000 0.21799  0.42489  0.02321  Biso   1.000  C
  H237     1.0000 0.63800  0.92703  0.11280  Biso   1.000  H
  H238     1.0000 0.49731  0.88180  0.16042  Biso   1.000  H
  O130     1.0000 0.44961  0.92229  0.10079  Biso   1.000  O
  H239     1.0000 0.27682  0.88622  0.14361  Biso   1.000  H
  H240     1.0000 0.24313  0.91039  0.19382  Biso   1.000  H
  O131     1.0000 0.33543  0.82978  0.19410  Biso   1.000  O
  H241     1.0000 0.19747  0.47449  0.02489  Biso   1.000  H
  C164     1.0000 0.13304  0.38051  0.00280  Biso   1.000  C
  C165     1.0000 0.30870  0.41668  0.99160  Biso   1.000  C
  C166     1.0000 0.43507  0.85421  0.07891  Biso   1.000  C
  H242     1.0000 0.38199  0.83762  0.21241  Biso   1.000  H
  H243     1.0000 0.15378  0.33102  0.00270  Biso   1.000  H
  C167     1.0000 0.03150  0.38730  0.02881  Biso   1.000  C
  O132     1.0000 0.11229  0.40267  0.95459  Biso   1.000  O
  O133     1.0000 0.38729  0.46301  0.01071  Biso   1.000  O
  C168     1.0000 0.28901  0.43458  0.94269  Biso   1.000  C
  H244     1.0000 0.33240  0.36793  0.99331  Biso   1.000  H
  H245     1.0000 0.44370  0.81762  0.10279  Biso   1.000  H
  C169     1.0000 0.52419  0.84700  0.04191  Biso   1.000  C
  O134     1.0000 0.34573  0.84621  0.05948  Biso   1.000  O
  H246     1.0000 0.03422  0.43047  0.04698  Biso   1.000  H
  O135     1.0000 0.00220  0.33812  0.05640  Biso   1.000  O
  H247     1.0000 0.97910  0.39362  0.00539  Biso   1.000  H
  C170     1.0000 0.19338  0.39372  0.92459  Biso   1.000  C
  H248     1.0000 0.44302  0.44501  0.00669  Biso   1.000  H
  H249     1.0000 0.27349  0.48502  0.94129  Biso   1.000  H
  O136     1.0000 0.37223  0.42221  0.91321  Biso   1.000  O
  H250     1.0000 0.52328  0.79940  0.02871  Biso   1.000  H
  O137     1.0000 0.62028  0.86021  0.06120  Biso   1.000  O
  C171     1.0000 0.49898  0.90070  0.00259  Biso   1.000  C
  C172     1.0000 0.32157  0.89501  0.02472  Biso   1.000  C
  H251     1.0000 0.03210  0.34149  0.08150  Biso   1.000  H
  H252     1.0000 0.17529  0.41010  0.89318  Biso   1.000  H
  O138     1.0000 0.22420  0.32228  0.92270  Biso   1.000  O
  H253     1.0000 0.35617  0.39409  0.89280  Biso   1.000  H
  H254     1.0000 0.61528  0.89001  0.08189  Biso   1.000  H
  O139     1.0000 0.57742  0.89059  0.96629  Biso   1.000  O
  C173     1.0000 0.40017  0.88927  0.98379  Biso   1.000  C
  H255     1.0000 0.50352  0.94872  0.01509  Biso   1.000  H
  H256     1.0000 0.32407  0.94261  0.03792  Biso   1.000  H
  C174     1.0000 0.21943  0.87938  0.01029  Biso   1.000  C
  C175     1.0000 0.19111  0.28442  0.88139  Biso   1.000  C
  H257     1.0000 0.55743  0.90718  0.94139  Biso   1.000  H
  H258     1.0000 0.39691  0.84199  0.97000  Biso   1.000  H
  O140     1.0000 0.37897  0.93961  0.94899  Biso   1.000  O
  H259     1.0000 0.19732  0.91602  0.98890  Biso   1.000  H
  O141     1.0000 0.20557  0.81488  0.98890  Biso   1.000  O
  H260     1.0000 0.17597  0.88159  0.03771  Biso   1.000  H
  C176     1.0000 0.28932  0.26331  0.85471  Biso   1.000  C
  H261     1.0000 0.14719  0.31380  0.86188  Biso   1.000  H
  C177     1.0000 0.13712  0.21961  0.89710  Biso   1.000  C
  C178     1.0000 0.34981  0.91471  0.90432  Biso   1.000  C
  H262     1.0000 0.14530  0.80919  0.98309  Biso   1.000  H
  C179     1.0000 0.26198  0.21561  0.81711  Biso   1.000  C
  H263     1.0000 0.33497  0.23888  0.87631  Biso   1.000  H
  O142     1.0000 0.33687  0.32191  0.83790  Biso   1.000  O
  H264     1.0000 0.18202  0.19312  0.91801  Biso   1.000  H
  O143     1.0000 0.11312  0.17622  0.85761  Biso   1.000  O
  C180     1.0000 0.03771  0.23451  0.92301  Biso   1.000  C
  H265     1.0000 0.36110  0.86379  0.90250  Biso   1.000  H
  C181     1.0000 0.41622  0.95182  0.86850  Biso   1.000  C
  O144     1.0000 0.24956  0.92918  0.89560  Biso   1.000  O
  C182     1.0000 0.19952  0.15179  0.83430  Biso   1.000  C
  H266     1.0000 0.22056  0.24172  0.79459  Biso   1.000  H
  O145     1.0000 0.35140  0.19139  0.79309  Biso   1.000  O
  H267     1.0000 0.34709  0.34950  0.85940  Biso   1.000  H
  H268     1.0000 0.99977  0.19112  0.92679  Biso   1.000  H
  O146     1.0000 0.97948  0.28389  0.89668  Biso   1.000  O
  H269     1.0000 0.05202  0.25351  0.95379  Biso   1.000  H
  H270     1.0000 0.40380  0.93071  0.83769  Biso   1.000  H
  O147     1.0000 0.52253  0.94351  0.87991  Biso   1.000  O
  C183     1.0000 0.39267  0.03159  0.86560  Biso   1.000  C
  C184     1.0000 0.22193  0.00142  0.89700  Biso   1.000  C
  H271     1.0000 0.18051  0.12162  0.80790  Biso   1.000  H
  O148     1.0000 0.26350  0.11510  0.86570  Biso   1.000  O
  H272     1.0000 0.37139  0.15479  0.80520  Biso   1.000  H
  C185     1.0000 0.89596  0.31080  0.91549  Biso   1.000  C
  H273     1.0000 0.55221  0.92560  0.85768  Biso   1.000  H
  H274     1.0000 0.41433  0.05391  0.89479  Biso   1.000  H
  O149     1.0000 0.44529  0.06250  0.82848  Biso   1.000  O
  C186     1.0000 0.28182  0.04302  0.85971  Biso   1.000  C
  H275     1.0000 0.24078  0.01990  0.92781  Biso   1.000  H
  C187     1.0000 0.10987  0.00648  0.89259  Biso   1.000  C
  C188     1.0000 0.85228  0.28410  0.95631  Biso   1.000  C
  C189     1.0000 0.85500  0.36850  0.89609  Biso   1.000  C
  H276     1.0000 0.41637  0.09872  0.82050  Biso   1.000  H
  H277     1.0000 0.26070  0.02838  0.82820  Biso   1.000  H
  H278     1.0000 0.07806  0.97789  0.91661  Biso   1.000  H
  O150     1.0000 0.07882  0.98341  0.84830  Biso   1.000  O
  H279     1.0000 0.08882  0.05491  0.89721  Biso   1.000  H
  H280     1.0000 0.88128  0.24641  0.97220  Biso   1.000  H
  C190     1.0000 0.76369  0.31570  0.97259  Biso   1.000  C
  C191     1.0000 0.77482  0.40078  0.91321  Biso   1.000  C
  H281     1.0000 0.88468  0.38662  0.86910  Biso   1.000  H
  H282     1.0000 0.03627  0.01058  0.83780  Biso   1.000  H
  H283     1.0000 0.72870  0.29500  0.99730  Biso   1.000  H
  C192     1.0000 0.72833  0.37387  0.95400  Biso   1.000  C
  H284     1.0000 0.74900  0.44069  0.89861  Biso   1.000  H
  N4       1.0000 0.64322  0.40831  0.97329  Biso   1.000  N
  O151     1.0000 0.60294  0.45827  0.95459  Biso   1.000  O
  O152     1.0000 0.60423  0.38462  0.00991  Biso   1.000  O
