data_image0
_cell_length_a       14.368
_cell_length_b       15.779
_cell_length_c       16.356
_cell_angle_alpha    87.61
_cell_angle_beta     78.03
_cell_angle_gamma    80.23

_symmetry_space_group_name_H-M    "P 1"
_symmetry_int_tables_number       1

loop_
  _symmetry_equiv_pos_as_xyz
  'x, y, z'

loop_
  _atom_site_label
  _atom_site_occupancy
  _atom_site_fract_x
  _atom_site_fract_y
  _atom_site_fract_z
  _atom_site_thermal_displace_type
  _atom_site_B_iso_or_equiv
  _atom_site_type_symbol
  C1       1.0000 0.55476  0.58752  0.74938  Biso   1.000  C
  C2       1.0000 0.59625  0.56145  0.81769  Biso   1.000  C
  C3       1.0000 0.46144  0.63047  0.75963  Biso   1.000  C
  H1       1.0000 0.59077  0.57587  0.69569  Biso   1.000  H
  C4       1.0000 0.69927  0.51825  0.80750  Biso   1.000  C
  C5       1.0000 0.53903  0.57852  0.89769  Biso   1.000  C
  C6       1.0000 0.40616  0.64762  0.83788  Biso   1.000  C
  H2       1.0000 0.43555  0.64797  0.71281  Biso   1.000  H
  C7       1.0000 0.76696  0.53623  0.73713  Biso   1.000  C
  C8       1.0000 0.73066  0.46253  0.86681  Biso   1.000  C
  H3       1.0000 0.56453  0.56102  0.94469  Biso   1.000  H
  C9       1.0000 0.44453  0.62154  0.90731  Biso   1.000  C
  H4       1.0000 0.34314  0.67677  0.84419  Biso   1.000  H
  C10      1.0000 0.86498  0.50235  0.72631  Biso   1.000  C
  H5       1.0000 0.74585  0.57227  0.69581  Biso   1.000  H
  C11      1.0000 0.82789  0.42676  0.85969  Biso   1.000  C
  H6       1.0000 0.68597  0.44825  0.91288  Biso   1.000  H
  H7       1.0000 0.40716  0.63274  0.96063  Biso   1.000  H
  C12      1.0000 0.93282  0.52212  0.64713  Biso   1.000  C
  C13      1.0000 0.89447  0.45115  0.79188  Biso   1.000  C
  C14      1.0000 0.86307  0.36253  0.92200  Biso   1.000  C
  C15      1.0000 0.99846  0.44566  0.60163  Biso   1.000  C
  H8       1.0000 0.89473  0.55223  0.60900  Biso   1.000  H
  H9       1.0000 0.97284  0.56107  0.66063  Biso   1.000  H
  O1       1.0000 0.99094  0.41706  0.78400  Biso   1.000  O
  O2       1.0000 0.78879  0.31337  0.95413  Biso   1.000  O
  H10      1.0000 0.87806  0.39225  0.96713  Biso   1.000  H
  H11      1.0000 0.92095  0.32503  0.89513  Biso   1.000  H
  C16      1.0000 0.96187  0.37794  0.57331  Biso   1.000  C
  C17      1.0000 0.09818  0.44394  0.58063  Biso   1.000  C
  C18      1.0000 0.05223  0.47544  0.79463  Biso   1.000  C
  C19      1.0000 0.81305  0.25146  0.01638  Biso   1.000  C
  O3       1.0000 0.86235  0.38378  0.58463  Biso   1.000  O
  C20      1.0000 0.02338  0.30957  0.52863  Biso   1.000  C
  H12      1.0000 0.12337  0.48974  0.59669  Biso   1.000  H
  C21      1.0000 0.16145  0.37633  0.53669  Biso   1.000  C
  H13      1.0000 0.11564  0.45877  0.75969  Biso   1.000  H
  H14      1.0000 0.02619  0.53292  0.77819  Biso   1.000  H
  C22      1.0000 0.05973  0.47456  0.88500  Biso   1.000  C
  C23      1.0000 0.91257  0.19632  0.99213  Biso   1.000  C
  H15      1.0000 0.80993  0.28171  0.06763  Biso   1.000  H
  H16      1.0000 0.76500  0.21389  0.02788  Biso   1.000  H
  C24      1.0000 0.81984  0.32937  0.65019  Biso   1.000  C
  C25      1.0000 0.98425  0.23746  0.49538  Biso   1.000  C
  C26      1.0000 0.12055  0.30949  0.51213  Biso   1.000  C
  C27      1.0000 0.26697  0.37726  0.51381  Biso   1.000  C
  H17      1.0000 0.99585  0.48846  0.91969  Biso   1.000  H
  O4       1.0000 0.11903  0.53664  0.89938  Biso   1.000  O
  H18      1.0000 0.08819  0.41741  0.90038  Biso   1.000  H
  C28      1.0000 0.93031  0.12290  0.94281  Biso   1.000  C
  C29      1.0000 0.98794  0.22127  0.02081  Biso   1.000  C
  C30      1.0000 0.71237  0.34966  0.65488  Biso   1.000  C
  H19      1.0000 0.84380  0.26927  0.63713  Biso   1.000  H
  H20      1.0000 0.83529  0.34167  0.70300  Biso   1.000  H
  O5       1.0000 0.96408  0.17156  0.55769  Biso   1.000  O
  H21      1.0000 0.92560  0.26106  0.47638  Biso   1.000  H
  H22      1.0000 0.03096  0.21155  0.44769  Biso   1.000  H
  H23      1.0000 0.16117  0.26314  0.48338  Biso   1.000  H
  C31      1.0000 0.33315  0.30107  0.51181  Biso   1.000  C
  C32      1.0000 0.30288  0.45349  0.49288  Biso   1.000  C
  C33      1.0000 0.21764  0.50346  0.89969  Biso   1.000  C
  O6       1.0000 0.85506  0.09110  0.91963  Biso   1.000  O
  C34      1.0000 0.02368  0.07662  0.92113  Biso   1.000  C
  H24      1.0000 0.97554  0.26978  0.05419  Biso   1.000  H
  C35      1.0000 0.08176  0.17607  0.00138  Biso   1.000  C
  O7       1.0000 0.66926  0.30434  0.72613  Biso   1.000  O
  H25      1.0000 0.69625  0.33097  0.60463  Biso   1.000  H
  H26      1.0000 0.68985  0.41103  0.66113  Biso   1.000  H
  C36      1.0000 0.04819  0.11768  0.57500  Biso   1.000  C
  H27      1.0000 0.31106  0.24896  0.52388  Biso   1.000  H
  C37      1.0000 0.43198  0.30288  0.49181  Biso   1.000  C
  C38      1.0000 0.40068  0.45447  0.47200  Biso   1.000  C
  H28      1.0000 0.25993  0.50474  0.49313  Biso   1.000  H
  H29      1.0000 0.24584  0.54801  0.91988  Biso   1.000  H
  H30      1.0000 0.21965  0.45624  0.93963  Biso   1.000  H
  C39      1.0000 0.27845  0.47282  0.81988  Biso   1.000  C
  C40      1.0000 0.81359  0.13806  0.85363  Biso   1.000  C
  C41      1.0000 0.04765  0.99603  0.86788  Biso   1.000  C
  C42      1.0000 0.09697  0.10355  0.95113  Biso   1.000  C
  C43      1.0000 0.16377  0.20100  0.03200  Biso   1.000  C
  C44      1.0000 0.56838  0.33198  0.74750  Biso   1.000  C
  C45      1.0000 0.01512  0.05918  0.64569  Biso   1.000  C
  H31      1.0000 0.08197  0.08438  0.52600  Biso   1.000  H
  H32      1.0000 0.09155  0.15217  0.59050  Biso   1.000  H
  H33      1.0000 0.47565  0.25196  0.49119  Biso   1.000  H
  C46      1.0000 0.46541  0.38064  0.47250  Biso   1.000  C
  H34      1.0000 0.42278  0.50627  0.45719  Biso   1.000  H
  O8       1.0000 0.26627  0.38637  0.80469  Biso   1.000  O
  H35      1.0000 0.34553  0.47384  0.82088  Biso   1.000  H
  H36      1.0000 0.26113  0.51043  0.77513  Biso   1.000  H
  C47      1.0000 0.73476  0.09477  0.83669  Biso   1.000  C
  H37      1.0000 0.78785  0.19704  0.87069  Biso   1.000  H
  H38      1.0000 0.86292  0.13892  0.80319  Biso   1.000  H
  C48      1.0000 0.01507  0.00104  0.78613  Biso   1.000  C
  H39      1.0000 0.01993  0.95066  0.90113  Biso   1.000  H
  H40      1.0000 0.11717  0.97862  0.85631  Biso   1.000  H
  H41      1.0000 0.15887  0.07201  0.93731  Biso   1.000  H
  C49      1.0000 0.23847  0.14030  0.04888  Biso   1.000  C
  C50      1.0000 0.16719  0.28818  0.04450  Biso   1.000  C
  C51      1.0000 0.52756  0.28951  0.82450  Biso   1.000  C
  H42      1.0000 0.55484  0.39385  0.75513  Biso   1.000  H
  H43      1.0000 0.53869  0.31846  0.70263  Biso   1.000  H
  C52      1.0000 0.95108  0.00568  0.63638  Biso   1.000  C
  C53      1.0000 0.04707  0.05564  0.72100  Biso   1.000  C
  H44      1.0000 0.53130  0.38214  0.46019  Biso   1.000  H
  C54      1.0000 0.31485  0.35522  0.72463  Biso   1.000  C
  O9       1.0000 0.65598  0.10482  0.90713  Biso   1.000  O
  H45      1.0000 0.75876  0.03413  0.82650  Biso   1.000  H
  H46      1.0000 0.71319  0.11987  0.78738  Biso   1.000  H
  C55      1.0000 0.95185  0.94717  0.77363  Biso   1.000  C
  H47      1.0000 0.23720  0.08221  0.04263  Biso   1.000  H
  C56      1.0000 0.31608  0.16520  0.07519  Biso   1.000  C
  C57      1.0000 0.24349  0.31191  0.07138  Biso   1.000  C
  H48      1.0000 0.11709  0.33018  0.03431  Biso   1.000  H
  O10      1.0000 0.52908  0.20184  0.80913  Biso   1.000  O
  H49      1.0000 0.46178  0.31734  0.84531  Biso   1.000  H
  H50      1.0000 0.56489  0.29456  0.86669  Biso   1.000  H
  H51      1.0000 0.92870  0.00814  0.58681  Biso   1.000  H
  C58      1.0000 0.91885  0.94827  0.69819  Biso   1.000  C
  O11      1.0000 0.11687  0.10457  0.73131  Biso   1.000  O
  C59      1.0000 0.32369  0.26105  0.71938  Biso   1.000  C
  H52      1.0000 0.27997  0.38226  0.68300  Biso   1.000  H
  H53      1.0000 0.37877  0.37093  0.71213  Biso   1.000  H
  C60      1.0000 0.57226  0.07741  0.89069  Biso   1.000  C
  H54      1.0000 0.93108  0.90951  0.81613  Biso   1.000  H
  H55      1.0000 0.36668  0.12359  0.08500  Biso   1.000  H
  C61      1.0000 0.31878  0.25026  0.08681  Biso   1.000  C
  H56      1.0000 0.24446  0.36980  0.07938  Biso   1.000  H
  C62      1.0000 0.49556  0.15195  0.88169  Biso   1.000  C
  C63      1.0000 0.84823  0.89045  0.68950  Biso   1.000  C
  C64      1.0000 0.08438  0.19337  0.75019  Biso   1.000  C
  O12      1.0000 0.23847  0.23203  0.70319  Biso   1.000  O
  H57      1.0000 0.33729  0.23554  0.77150  Biso   1.000  H
  H58      1.0000 0.37818  0.24013  0.67519  Biso   1.000  H
  H59      1.0000 0.58960  0.04401  0.83981  Biso   1.000  H
  H60      1.0000 0.54729  0.04070  0.93613  Biso   1.000  H
  H61      1.0000 0.37066  0.26628  0.10469  Biso   1.000  H
  H62      1.0000 0.48037  0.18755  0.93119  Biso   1.000  H
  H63      1.0000 0.43748  0.13122  0.87581  Biso   1.000  H
  C65      1.0000 0.77548  0.91538  0.64663  Biso   1.000  C
  C66      1.0000 0.85809  0.80764  0.72431  Biso   1.000  C
  C67      1.0000 0.16759  0.22992  0.77513  Biso   1.000  C
  H64      1.0000 0.06610  0.22393  0.70181  Biso   1.000  H
  H65      1.0000 0.02860  0.19994  0.79588  Biso   1.000  H
  H66      1.0000 0.76864  0.96983  0.62231  Biso   1.000  H
  C68      1.0000 0.71258  0.86122  0.63888  Biso   1.000  C
  C69      1.0000 0.79552  0.75322  0.71688  Biso   1.000  C
  H67      1.0000 0.90766  0.78937  0.75281  Biso   1.000  H
  H68      1.0000 0.19319  0.19374  0.81731  Biso   1.000  H
  H69      1.0000 0.14470  0.28745  0.79750  Biso   1.000  H
  H70      1.0000 0.66355  0.87956  0.60981  Biso   1.000  H
  C70      1.0000 0.72127  0.77905  0.67431  Biso   1.000  C
  H71      1.0000 0.80289  0.69853  0.74063  Biso   1.000  H
  H72      1.0000 0.67835  0.74243  0.66950  Biso   1.000  H
  C71      1.0000 0.44513  0.41240  0.25063  Biso   1.000  C
  C72      1.0000 0.40364  0.43847  0.18231  Biso   1.000  C
  C73      1.0000 0.53851  0.36945  0.24038  Biso   1.000  C
  H73      1.0000 0.40919  0.42406  0.30431  Biso   1.000  H
  C74      1.0000 0.30069  0.48168  0.19250  Biso   1.000  C
  C75      1.0000 0.46086  0.42141  0.10231  Biso   1.000  C
  C76      1.0000 0.59373  0.35231  0.16213  Biso   1.000  C
  H74      1.0000 0.56441  0.35196  0.28719  Biso   1.000  H
  C77      1.0000 0.23299  0.46370  0.26288  Biso   1.000  C
  C78      1.0000 0.26923  0.53740  0.13319  Biso   1.000  C
  H75      1.0000 0.43535  0.43890  0.05531  Biso   1.000  H
  C79      1.0000 0.55536  0.37839  0.09269  Biso   1.000  C
  H76      1.0000 0.65675  0.32316  0.15581  Biso   1.000  H
  C80      1.0000 0.13497  0.49758  0.27369  Biso   1.000  C
  H77      1.0000 0.25404  0.42766  0.30419  Biso   1.000  H
  C81      1.0000 0.17207  0.57317  0.14031  Biso   1.000  C
  H78      1.0000 0.31398  0.55167  0.08713  Biso   1.000  H
  H79      1.0000 0.59279  0.36718  0.03938  Biso   1.000  H
  C82      1.0000 0.10548  0.54877  0.20813  Biso   1.000  C
  C83      1.0000 0.06707  0.47780  0.35288  Biso   1.000  C
  C84      1.0000 0.13688  0.63739  0.07800  Biso   1.000  C
  O13      1.0000 0.00895  0.58287  0.21600  Biso   1.000  O
  C85      1.0000 0.00143  0.55427  0.39838  Biso   1.000  C
  H80      1.0000 0.10516  0.44770  0.39100  Biso   1.000  H
  H81      1.0000 0.02705  0.43886  0.33938  Biso   1.000  H
  O14      1.0000 0.21117  0.68656  0.04588  Biso   1.000  O
  H82      1.0000 0.12189  0.60768  0.03288  Biso   1.000  H
  H83      1.0000 0.07894  0.67489  0.10488  Biso   1.000  H
  C86      1.0000 0.94766  0.52448  0.20538  Biso   1.000  C
  C87      1.0000 0.03808  0.62198  0.42669  Biso   1.000  C
  C88      1.0000 0.90177  0.55599  0.41938  Biso   1.000  C
  C89      1.0000 0.18684  0.74847  0.98362  Biso   1.000  C
  H84      1.0000 0.88424  0.54116  0.24031  Biso   1.000  H
  H85      1.0000 0.97377  0.46701  0.22181  Biso   1.000  H
  C90      1.0000 0.94016  0.52537  0.11500  Biso   1.000  C
  O15      1.0000 0.13754  0.61614  0.41538  Biso   1.000  O
  C91      1.0000 0.97658  0.69035  0.47138  Biso   1.000  C
  H86      1.0000 0.87659  0.51018  0.40331  Biso   1.000  H
  C92      1.0000 0.83843  0.62359  0.46331  Biso   1.000  C
  C93      1.0000 0.08732  0.80360  0.00788  Biso   1.000  C
  H87      1.0000 0.18995  0.71828  0.93237  Biso   1.000  H
  H88      1.0000 0.23496  0.78604  0.97212  Biso   1.000  H
  H89      1.0000 0.00403  0.51153  0.08031  Biso   1.000  H
  O16      1.0000 0.88086  0.46328  0.10063  Biso   1.000  O
  H90      1.0000 0.91177  0.58252  0.09963  Biso   1.000  H
  C94      1.0000 0.18004  0.67055  0.34981  Biso   1.000  C
  C95      1.0000 0.01563  0.76247  0.50463  Biso   1.000  C
  C96      1.0000 0.87933  0.69050  0.48788  Biso   1.000  C
  C97      1.0000 0.73298  0.62266  0.48619  Biso   1.000  C
  C98      1.0000 0.06965  0.87702  0.05719  Biso   1.000  C
  C99      1.0000 0.01195  0.77866  0.97919  Biso   1.000  C
  C100     1.0000 0.78225  0.49647  0.10031  Biso   1.000  C
  C101     1.0000 0.28752  0.65027  0.34513  Biso   1.000  C
  H91      1.0000 0.15616  0.73066  0.36288  Biso   1.000  H
  H92      1.0000 0.16467  0.65825  0.29700  Biso   1.000  H
  O17      1.0000 0.03581  0.82837  0.44231  Biso   1.000  O
  H93      1.0000 0.07436  0.73886  0.52363  Biso   1.000  H
  H94      1.0000 0.96892  0.78838  0.55231  Biso   1.000  H
  H95      1.0000 0.83872  0.73679  0.51663  Biso   1.000  H
  C102     1.0000 0.66674  0.69885  0.48819  Biso   1.000  C
  C103     1.0000 0.69707  0.54644  0.50713  Biso   1.000  C
  O18      1.0000 0.14483  0.90882  0.08038  Biso   1.000  O
  C104     1.0000 0.97621  0.92330  0.07888  Biso   1.000  C
  C105     1.0000 0.91813  0.82386  0.99862  Biso   1.000  C
  H96      1.0000 0.02434  0.73014  0.94581  Biso   1.000  H
  H97      1.0000 0.75405  0.45191  0.08013  Biso   1.000  H
  H98      1.0000 0.78023  0.54369  0.06038  Biso   1.000  H
  C106     1.0000 0.72144  0.52710  0.18013  Biso   1.000  C
  O19      1.0000 0.33063  0.69558  0.27388  Biso   1.000  O
  H99      1.0000 0.30363  0.66895  0.39538  Biso   1.000  H
  H100     1.0000 0.31004  0.58889  0.33888  Biso   1.000  H
  C107     1.0000 0.95177  0.88225  0.42500  Biso   1.000  C
  H101     1.0000 0.68883  0.75096  0.47613  Biso   1.000  H
  C108     1.0000 0.56798  0.69704  0.50819  Biso   1.000  C
  C109     1.0000 0.59928  0.54546  0.52800  Biso   1.000  C
  H102     1.0000 0.73995  0.49519  0.50688  Biso   1.000  H
  C110     1.0000 0.18637  0.86187  0.14638  Biso   1.000  C
  C111     1.0000 0.90292  0.89637  0.04888  Biso   1.000  C
  C112     1.0000 0.95224  0.00390  0.13213  Biso   1.000  C
  C113     1.0000 0.83612  0.79893  0.96800  Biso   1.000  C
  O20      1.0000 0.73369  0.61356  0.19531  Biso   1.000  O
  H103     1.0000 0.65435  0.52608  0.17913  Biso   1.000  H
  H104     1.0000 0.73876  0.48949  0.22488  Biso   1.000  H
  C114     1.0000 0.43157  0.66801  0.25250  Biso   1.000  C
  C115     1.0000 0.98483  0.94081  0.35431  Biso   1.000  C
  H105     1.0000 0.91792  0.91554  0.47400  Biso   1.000  H
  H106     1.0000 0.90833  0.84776  0.40950  Biso   1.000  H
  H107     1.0000 0.52424  0.74797  0.50881  Biso   1.000  H
  C116     1.0000 0.53455  0.61929  0.52750  Biso   1.000  C
  H108     1.0000 0.57718  0.49365  0.54281  Biso   1.000  H
  H109     1.0000 0.21204  0.80289  0.12931  Biso   1.000  H
  H110     1.0000 0.13704  0.86100  0.19681  Biso   1.000  H
  C117     1.0000 0.26512  0.90522  0.16331  Biso   1.000  C
  H111     1.0000 0.84102  0.92792  0.06269  Biso   1.000  H
  C118     1.0000 0.98482  0.99889  0.21388  Biso   1.000  C
  H112     1.0000 0.97996  0.04927  0.09888  Biso   1.000  H
  H113     1.0000 0.88279  0.02131  0.14369  Biso   1.000  H
  C119     1.0000 0.76142  0.85962  0.95112  Biso   1.000  C
  C120     1.0000 0.83277  0.71175  0.95550  Biso   1.000  C
  C121     1.0000 0.68504  0.64470  0.27538  Biso   1.000  C
  C122     1.0000 0.47233  0.71041  0.17550  Biso   1.000  C
  H114     1.0000 0.44505  0.60607  0.24488  Biso   1.000  H
  H115     1.0000 0.46127  0.68146  0.29738  Biso   1.000  H
  C123     1.0000 0.04881  0.99425  0.36363  Biso   1.000  C
  C124     1.0000 0.95282  0.94429  0.27900  Biso   1.000  C
  H116     1.0000 0.46866  0.61779  0.53981  Biso   1.000  H
  O21      1.0000 0.34391  0.89510  0.09288  Biso   1.000  O
  H117     1.0000 0.24112  0.96580  0.17350  Biso   1.000  H
  H118     1.0000 0.28670  0.88006  0.21263  Biso   1.000  H
  C125     1.0000 0.04804  0.05276  0.22638  Biso   1.000  C
  H119     1.0000 0.76276  0.91771  0.95737  Biso   1.000  H
  C126     1.0000 0.68388  0.83473  0.92481  Biso   1.000  C
  C127     1.0000 0.75647  0.68801  0.92862  Biso   1.000  C
  H120     1.0000 0.88287  0.66975  0.96569  Biso   1.000  H
  H121     1.0000 0.71992  0.61766  0.31700  Biso   1.000  H
  H122     1.0000 0.62112  0.62899  0.28788  Biso   1.000  H
  C128     1.0000 0.67627  0.73888  0.28063  Biso   1.000  C
  O22      1.0000 0.47088  0.79809  0.19088  Biso   1.000  O
  H123     1.0000 0.53818  0.68258  0.15469  Biso   1.000  H
  H124     1.0000 0.43507  0.70537  0.13331  Biso   1.000  H
  H125     1.0000 0.07125  0.99178  0.41319  Biso   1.000  H
  C129     1.0000 0.08103  0.05166  0.30181  Biso   1.000  C
  O23      1.0000 0.88301  0.89536  0.26869  Biso   1.000  O
  C130     1.0000 0.42762  0.92251  0.10931  Biso   1.000  C
  H126     1.0000 0.06887  0.09042  0.18388  Biso   1.000  H
  H127     1.0000 0.63327  0.87634  0.91500  Biso   1.000  H
  C131     1.0000 0.68118  0.74966  0.91319  Biso   1.000  C
  H128     1.0000 0.75543  0.63013  0.92062  Biso   1.000  H
  O24      1.0000 0.76142  0.76790  0.29681  Biso   1.000  O
  H129     1.0000 0.66266  0.76439  0.22850  Biso   1.000  H
  H130     1.0000 0.62171  0.75979  0.32481  Biso   1.000  H
  C132     1.0000 0.50432  0.84798  0.11831  Biso   1.000  C
  C133     1.0000 0.15166  0.10947  0.31050  Biso   1.000  C
  C134     1.0000 0.91556  0.80662  0.24981  Biso   1.000  C
  H131     1.0000 0.41029  0.95592  0.16019  Biso   1.000  H
  H132     1.0000 0.45260  0.95923  0.06388  Biso   1.000  H
  H133     1.0000 0.62923  0.73365  0.89531  Biso   1.000  H
  C135     1.0000 0.83236  0.77001  0.22488  Biso   1.000  C
  H134     1.0000 0.51951  0.81238  0.06881  Biso   1.000  H
  H135     1.0000 0.56241  0.86871  0.12419  Biso   1.000  H
  C136     1.0000 0.22447  0.08461  0.35338  Biso   1.000  C
  C137     1.0000 0.14187  0.19229  0.27569  Biso   1.000  C
  H136     1.0000 0.93386  0.77599  0.29819  Biso   1.000  H
  H137     1.0000 0.97136  0.79999  0.20413  Biso   1.000  H
  H138     1.0000 0.80677  0.80618  0.18269  Biso   1.000  H
  H139     1.0000 0.85526  0.71248  0.20250  Biso   1.000  H
  H140     1.0000 0.23125  0.03010  0.37769  Biso   1.000  H
  C138     1.0000 0.28731  0.13870  0.36113  Biso   1.000  C
  C139     1.0000 0.20444  0.24670  0.28313  Biso   1.000  C
  H141     1.0000 0.09221  0.21062  0.24719  Biso   1.000  H
  H142     1.0000 0.33634  0.12037  0.39019  Biso   1.000  H
  C140     1.0000 0.27862  0.22088  0.32569  Biso   1.000  C
  H143     1.0000 0.19707  0.30140  0.25938  Biso   1.000  H
  H144     1.0000 0.32153  0.25750  0.33050  Biso   1.000  H
