data_image0
_cell_length_a       11.271
_cell_length_b       11.765
_cell_length_c       20.119
_cell_angle_alpha    88.27
_cell_angle_beta     83.03
_cell_angle_gamma    86.35

_symmetry_space_group_name_H-M    "P 1"
_symmetry_int_tables_number       1

loop_
  _symmetry_equiv_pos_as_xyz
  'x, y, z'

loop_
  _atom_site_label
  _atom_site_occupancy
  _atom_site_fract_x
  _atom_site_fract_y
  _atom_site_fract_z
  _atom_site_thermal_displace_type
  _atom_site_B_iso_or_equiv
  _atom_site_type_symbol
  C1       1.0000 0.58933  0.42140  0.42679  Biso   1.000  C
  O1       1.0000 0.71572  0.41055  0.40781  Biso   1.000  O
  H1       1.0000 0.57270  0.42275  0.47573  Biso   1.000  H
  H2       1.0000 0.55641  0.49241  0.40751  Biso   1.000  H
  H3       1.0000 0.55210  0.35655  0.41011  Biso   1.000  H
  C2       1.0000 0.78229  0.49689  0.42830  Biso   1.000  C
  C3       1.0000 0.90640  0.48452  0.40881  Biso   1.000  C
  C4       1.0000 0.73347  0.58862  0.46581  Biso   1.000  C
  C5       1.0000 0.96261  0.38606  0.36709  Biso   1.000  C
  C6       1.0000 0.97771  0.56614  0.42810  Biso   1.000  C
  H4       1.0000 0.64977  0.59438  0.47974  Biso   1.000  H
  C7       1.0000 0.80423  0.67268  0.48359  Biso   1.000  C
  C8       1.0000 0.97135  0.41497  0.29331  Biso   1.000  C
  H5       1.0000 0.91411  0.31899  0.37691  Biso   1.000  H
  H6       1.0000 0.04379  0.36565  0.37951  Biso   1.000  H
  C9       1.0000 0.92821  0.66096  0.46491  Biso   1.000  C
  H7       1.0000 0.06190  0.55791  0.41632  Biso   1.000  H
  C10      1.0000 0.75017  0.77678  0.52061  Biso   1.000  C
  C11      1.0000 0.87001  0.40968  0.26020  Biso   1.000  C
  C12      1.0000 0.07003  0.45196  0.25730  Biso   1.000  C
  O2       1.0000 0.99547  0.74459  0.48509  Biso   1.000  O
  H8       1.0000 0.67578  0.75729  0.54891  Biso   1.000  H
  H9       1.0000 0.80702  0.80178  0.55031  Biso   1.000  H
  C13      1.0000 0.72212  0.87266  0.47242  Biso   1.000  C
  C14      1.0000 0.87447  0.44185  0.19249  Biso   1.000  C
  H10      1.0000 0.79797  0.38408  0.28359  Biso   1.000  H
  C15      1.0000 0.07577  0.48437  0.18973  Biso   1.000  C
  O3       1.0000 0.17963  0.46043  0.28940  Biso   1.000  O
  C16      1.0000 0.11794  0.74069  0.46241  Biso   1.000  C
  C17      1.0000 0.61181  0.89159  0.44993  Biso   1.000  C
  C18      1.0000 0.81247  0.94363  0.44763  Biso   1.000  C
  O4       1.0000 0.78062  0.44195  0.15672  Biso   1.000  O
  C19      1.0000 0.97817  0.47947  0.15562  Biso   1.000  C
  H11      1.0000 0.14836  0.51020  0.16699  Biso   1.000  H
  S1       1.0000 0.27193  0.35826  0.29276  Biso   1.000  S
  S2       1.0000 0.30782  0.46107  0.27493  Biso   1.000  S
  H12      1.0000 0.15233  0.80968  0.47583  Biso   1.000  H
  H13      1.0000 0.15781  0.67359  0.48204  Biso   1.000  H
  H14      1.0000 0.12954  0.73611  0.41352  Biso   1.000  H
  O5       1.0000 0.52680  0.81576  0.47493  Biso   1.000  O
  C20      1.0000 0.59018  0.98005  0.40430  Biso   1.000  C
  H15      1.0000 0.88901  0.93308  0.46291  Biso   1.000  H
  C21      1.0000 0.79196  0.03037  0.40020  Biso   1.000  C
  C22      1.0000 0.67314  0.41017  0.18793  Biso   1.000  C
  C23      1.0000 0.98026  0.51515  0.08299  Biso   1.000  C
  O6       1.0000 0.35386  0.39840  0.33639  Biso   1.000  O
  O7       1.0000 0.21637  0.25313  0.30463  Biso   1.000  O
  C24      1.0000 0.35451  0.35780  0.21192  Biso   1.000  C
  O8       1.0000 0.28040  0.44158  0.20841  Biso   1.000  O
  F1       1.0000 0.29717  0.24626  0.31710  Biso   1.000  F
  F2       1.0000 0.38386  0.46403  0.19168  Biso   1.000  F
  O9       1.0000 0.37886  0.53465  0.30613  Biso   1.000  O
  C25      1.0000 0.37577  0.32139  0.28590  Biso   1.000  C
  C26      1.0000 0.40934  0.83414  0.45529  Biso   1.000  C
  H16      1.0000 0.51259  0.99216  0.39053  Biso   1.000  H
  C27      1.0000 0.67957  0.05079  0.37871  Biso   1.000  C
  O10      1.0000 0.87851  0.10204  0.37270  Biso   1.000  O
  H17      1.0000 0.65596  0.44751  0.23120  Biso   1.000  H
  H18      1.0000 0.60998  0.43288  0.16003  Biso   1.000  H
  H19      1.0000 0.67648  0.32728  0.19509  Biso   1.000  H
  C28      1.0000 0.93269  0.63525  0.07162  Biso   1.000  C
  H20      1.0000 0.93259  0.46302  0.06101  Biso   1.000  H
  H21      1.0000 0.06387  0.50662  0.06131  Biso   1.000  H
  F3       1.0000 0.44774  0.35317  0.32972  Biso   1.000  F
  F4       1.0000 0.45429  0.28745  0.21192  Biso   1.000  F
  F5       1.0000 0.29120  0.30979  0.16950  Biso   1.000  F
  F6       1.0000 0.47305  0.30972  0.23972  Biso   1.000  F
  H22      1.0000 0.46107  0.59670  0.27828  Biso   1.000  H
  H23      1.0000 0.35739  0.77740  0.47783  Biso   1.000  H
  H24      1.0000 0.37681  0.91064  0.46811  Biso   1.000  H
  H25      1.0000 0.41333  0.82708  0.40671  Biso   1.000  H
  C29      1.0000 0.65563  0.14391  0.32712  Biso   1.000  C
  C30      1.0000 0.99939  0.06947  0.38252  Biso   1.000  C
  C31      1.0000 0.81233  0.65961  0.06932  Biso   1.000  C
  C32      1.0000 0.00572  0.72498  0.06822  Biso   1.000  C
  C33      1.0000 0.69070  0.10469  0.25549  Biso   1.000  C
  H26      1.0000 0.56948  0.16838  0.33313  Biso   1.000  H
  H27      1.0000 0.70137  0.21048  0.33473  Biso   1.000  H
  H28      1.0000 0.02180  0.99440  0.36353  Biso   1.000  H
  H29      1.0000 0.00695  0.06625  0.43050  Biso   1.000  H
  H30      1.0000 0.05248  0.12560  0.36023  Biso   1.000  H
  C34      1.0000 0.77147  0.77475  0.06081  Biso   1.000  C
  H31      1.0000 0.75796  0.60060  0.07338  Biso   1.000  H
  C35      1.0000 0.96188  0.83810  0.06141  Biso   1.000  C
  O11      1.0000 0.12742  0.67700  0.06461  Biso   1.000  O
  O12      1.0000 0.11384  0.73201  0.10022  Biso   1.000  O
  C36      1.0000 0.60620  0.05863  0.21978  Biso   1.000  C
  C37      1.0000 0.80697  0.11297  0.22409  Biso   1.000  C
  O13      1.0000 0.64262  0.79508  0.06371  Biso   1.000  O
  C38      1.0000 0.84141  0.86384  0.05630  Biso   1.000  C
  H32      1.0000 0.01492  0.89775  0.06041  Biso   1.000  H
  C39      1.0000 0.19493  0.78798  0.08880  Biso   1.000  C
  C40      1.0000 0.20696  0.74796  0.03120  Biso   1.000  C
  C41      1.0000 0.64070  0.02428  0.15422  Biso   1.000  C
  O14      1.0000 0.49354  0.05052  0.25539  Biso   1.000  O
  C42      1.0000 0.83978  0.07969  0.15943  Biso   1.000  C
  H33      1.0000 0.86526  0.14244  0.24823  Biso   1.000  H
  S3       1.0000 0.58131  0.81022  0.99805  Biso   1.000  S
  C43      1.0000 0.79319  0.98575  0.05349  Biso   1.000  C
  H34      1.0000 0.18678  0.78924  0.13789  Biso   1.000  H
  H35      1.0000 0.28004  0.78176  0.07132  Biso   1.000  H
  H36      1.0000 0.15775  0.85874  0.07162  Biso   1.000  H
  H37      1.0000 0.28595  0.76377  0.04302  Biso   1.000  H
  H38      1.0000 0.21275  0.67878  0.00521  Biso   1.000  H
  H39      1.0000 0.17668  0.81261  0.00451  Biso   1.000  H
  C44      1.0000 0.75873  0.03069  0.12261  Biso   1.000  C
  H40      1.0000 0.58224  0.99558  0.12983  Biso   1.000  H
  C45      1.0000 0.40028  0.01559  0.21823  Biso   1.000  C
  O15      1.0000 0.95345  0.08509  0.12532  Biso   1.000  O
  O16      1.0000 0.46849  0.86672  0.01698  Biso   1.000  O
  O17      1.0000 0.65813  0.84505  0.94075  Biso   1.000  O
  C46      1.0000 0.55085  0.66204  0.98422  Biso   1.000  C
  H41      1.0000 0.72227  0.99105  0.02870  Biso   1.000  H
  H42      1.0000 0.85479  0.03285  0.02910  Biso   1.000  H
  H43      1.0000 0.41475  0.93465  0.20781  Biso   1.000  H
  H44      1.0000 0.32239  0.02758  0.24523  Biso   1.000  H
  H45      1.0000 0.40081  0.06081  0.17651  Biso   1.000  H
  C47      1.0000 0.04243  0.14077  0.15702  Biso   1.000  C
  F7       1.0000 0.49990  0.61425  0.04202  Biso   1.000  F
  F8       1.0000 0.65178  0.59998  0.96374  Biso   1.000  F
  F9       1.0000 0.47867  0.66015  0.93834  Biso   1.000  F
  H46      1.0000 0.04959  0.10525  0.20120  Biso   1.000  H
  H47      1.0000 0.12005  0.13281  0.12922  Biso   1.000  H
  H48      1.0000 0.01809  0.22182  0.16218  Biso   1.000  H
  C48      1.0000 0.41045  0.57860  0.57320  Biso   1.000  C
  O18      1.0000 0.28406  0.58936  0.59223  Biso   1.000  O
  H49      1.0000 0.42708  0.57716  0.52431  Biso   1.000  H
  H50      1.0000 0.44337  0.50759  0.59253  Biso   1.000  H
  H51      1.0000 0.44769  0.64336  0.58993  Biso   1.000  H
  C49      1.0000 0.21750  0.50311  0.57170  Biso   1.000  C
  C50      1.0000 0.26631  0.41138  0.53423  Biso   1.000  C
  C51      1.0000 0.09338  0.51547  0.59123  Biso   1.000  C
  C52      1.0000 0.19564  0.32732  0.51640  Biso   1.000  C
  H52      1.0000 0.35001  0.40561  0.52031  Biso   1.000  H
  C53      1.0000 0.02208  0.43377  0.57190  Biso   1.000  C
  C54      1.0000 0.03718  0.61386  0.63290  Biso   1.000  C
  C55      1.0000 0.24961  0.22322  0.47943  Biso   1.000  C
  C56      1.0000 0.07157  0.33895  0.53513  Biso   1.000  C
  H53      1.0000 0.93787  0.44209  0.58372  Biso   1.000  H
  C57      1.0000 0.02843  0.58495  0.70673  Biso   1.000  C
  H54      1.0000 0.08567  0.68101  0.62313  Biso   1.000  H
  H55      1.0000 0.95599  0.63426  0.62053  Biso   1.000  H
  H56      1.0000 0.32400  0.24271  0.45114  Biso   1.000  H
  H57      1.0000 0.19284  0.19822  0.44973  Biso   1.000  H
  C58      1.0000 0.27775  0.12725  0.52762  Biso   1.000  C
  O19      1.0000 0.00431  0.25541  0.51490  Biso   1.000  O
  C59      1.0000 0.12977  0.59031  0.73984  Biso   1.000  C
  C60      1.0000 0.92975  0.54796  0.74274  Biso   1.000  C
  C61      1.0000 0.38796  0.10841  0.55011  Biso   1.000  C
  C62      1.0000 0.18731  0.05628  0.55241  Biso   1.000  C
  C63      1.0000 0.88193  0.25930  0.53764  Biso   1.000  C
  C64      1.0000 0.12533  0.55806  0.80751  Biso   1.000  C
  H58      1.0000 0.20190  0.61592  0.71640  Biso   1.000  H
  O20      1.0000 0.82015  0.53957  0.71064  Biso   1.000  O
  C65      1.0000 0.92401  0.51554  0.81031  Biso   1.000  C
  O21      1.0000 0.47299  0.18415  0.52511  Biso   1.000  O
  C66      1.0000 0.40961  0.01986  0.59574  Biso   1.000  C
  H59      1.0000 0.11077  0.06692  0.53714  Biso   1.000  H
  C67      1.0000 0.20783  0.96954  0.59979  Biso   1.000  C
  H60      1.0000 0.84754  0.19032  0.52421  Biso   1.000  H
  H61      1.0000 0.84197  0.32641  0.51800  Biso   1.000  H
  H62      1.0000 0.87032  0.26389  0.58652  Biso   1.000  H
  O22      1.0000 0.21916  0.55796  0.84332  Biso   1.000  O
  C68      1.0000 0.02161  0.52044  0.84442  Biso   1.000  C
  S4       1.0000 0.72785  0.64165  0.70728  Biso   1.000  S
  S5       1.0000 0.69196  0.53884  0.72511  Biso   1.000  S
  H63      1.0000 0.85142  0.48979  0.83305  Biso   1.000  H
  C69      1.0000 0.59054  0.16577  0.54470  Biso   1.000  C
  H64      1.0000 0.48718  0.00783  0.60951  Biso   1.000  H
  C70      1.0000 0.32030  0.94921  0.62133  Biso   1.000  C
  O23      1.0000 0.12127  0.89787  0.62734  Biso   1.000  O
  C71      1.0000 0.32664  0.58974  0.81211  Biso   1.000  C
  C72      1.0000 0.01952  0.48476  0.91705  Biso   1.000  C
  O24      1.0000 0.64593  0.60160  0.66361  Biso   1.000  O
  O25      1.0000 0.78350  0.74687  0.69541  Biso   1.000  O
  C73      1.0000 0.64527  0.64219  0.78812  Biso   1.000  C
  O26      1.0000 0.71938  0.55834  0.79163  Biso   1.000  O
  F10      1.0000 0.70262  0.75365  0.68294  Biso   1.000  F
  F11      1.0000 0.61593  0.53597  0.80831  Biso   1.000  F
  O27      1.0000 0.62101  0.46527  0.69391  Biso   1.000  O
  C74      1.0000 0.62401  0.67860  0.71414  Biso   1.000  C
  H65      1.0000 0.64239  0.22259  0.52221  Biso   1.000  H
  H66      1.0000 0.62297  0.08927  0.53193  Biso   1.000  H
  H67      1.0000 0.58645  0.17292  0.59333  Biso   1.000  H
  C75      1.0000 0.34415  0.85608  0.67292  Biso   1.000  C
  C76      1.0000 0.00039  0.93044  0.61753  Biso   1.000  C
  H68      1.0000 0.34381  0.55249  0.76884  Biso   1.000  H
  H69      1.0000 0.38989  0.56712  0.84001  Biso   1.000  H
  H70      1.0000 0.32332  0.67263  0.80490  Biso   1.000  H
  C77      1.0000 0.06718  0.36466  0.92842  Biso   1.000  C
  H71      1.0000 0.06727  0.53698  0.93903  Biso   1.000  H
  H72      1.0000 0.93591  0.49338  0.93873  Biso   1.000  H
  F12      1.0000 0.55204  0.64674  0.67032  Biso   1.000  F
  F13      1.0000 0.54558  0.71246  0.78812  Biso   1.000  F
  F14      1.0000 0.70866  0.69021  0.83055  Biso   1.000  F
  F15      1.0000 0.52672  0.69028  0.76032  Biso   1.000  F
  H73      1.0000 0.53881  0.40330  0.72171  Biso   1.000  H
  H74      1.0000 0.43039  0.83162  0.66691  Biso   1.000  H
  H75      1.0000 0.29850  0.78952  0.66531  Biso   1.000  H
  C78      1.0000 0.30917  0.89531  0.74455  Biso   1.000  C
  H76      1.0000 0.99283  0.93366  0.56954  Biso   1.000  H
  H77      1.0000 0.94739  0.87439  0.63981  Biso   1.000  H
  H78      1.0000 0.97798  0.00560  0.63651  Biso   1.000  H
  C79      1.0000 0.18745  0.34038  0.93072  Biso   1.000  C
  C80      1.0000 0.99406  0.27502  0.93182  Biso   1.000  C
  C81      1.0000 0.39367  0.94137  0.78021  Biso   1.000  C
  C82      1.0000 0.19283  0.88695  0.77590  Biso   1.000  C
  C83      1.0000 0.22831  0.22516  0.93924  Biso   1.000  C
  H79      1.0000 0.24182  0.39940  0.92661  Biso   1.000  H
  C84      1.0000 0.03798  0.16190  0.93863  Biso   1.000  C
  O28      1.0000 0.87235  0.32300  0.93543  Biso   1.000  O
  O29      1.0000 0.88594  0.26799  0.89982  Biso   1.000  O
  O30      1.0000 0.50624  0.94947  0.74465  Biso   1.000  O
  C85      1.0000 0.35917  0.97564  0.84582  Biso   1.000  C
  C86      1.0000 0.16000  0.92031  0.84061  Biso   1.000  C
  H80      1.0000 0.13453  0.85747  0.75181  Biso   1.000  H
  C87      1.0000 0.15837  0.13607  0.94374  Biso   1.000  C
  O31      1.0000 0.35716  0.20492  0.93633  Biso   1.000  O
  H81      1.0000 0.98487  0.10216  0.93964  Biso   1.000  H
  C88      1.0000 0.80485  0.21202  0.91124  Biso   1.000  C
  C89      1.0000 0.79283  0.25195  0.96884  Biso   1.000  C
  C90      1.0000 0.59950  0.98441  0.78181  Biso   1.000  C
  H82      1.0000 0.41754  0.00442  0.87021  Biso   1.000  H
  C91      1.0000 0.24104  0.96931  0.87743  Biso   1.000  C
  O32      1.0000 0.04633  0.91490  0.87472  Biso   1.000  O
  C92      1.0000 0.20668  0.01417  0.94655  Biso   1.000  C
  S6       1.0000 0.41847  0.18969  0.00199  Biso   1.000  S
  H83      1.0000 0.81309  0.21067  0.86215  Biso   1.000  H
  H84      1.0000 0.71974  0.21816  0.92872  Biso   1.000  H
  H85      1.0000 0.84204  0.14117  0.92842  Biso   1.000  H
  H86      1.0000 0.71384  0.23614  0.95702  Biso   1.000  H
  H87      1.0000 0.78703  0.32122  0.99483  Biso   1.000  H
  H88      1.0000 0.82310  0.18739  0.99553  Biso   1.000  H
  H89      1.0000 0.58504  0.06526  0.79223  Biso   1.000  H
  H90      1.0000 0.67748  0.97242  0.75481  Biso   1.000  H
  H91      1.0000 0.59905  0.93919  0.82353  Biso   1.000  H
  C93      1.0000 0.95735  0.85915  0.84302  Biso   1.000  C
  H92      1.0000 0.27752  0.00887  0.97134  Biso   1.000  H
  H93      1.0000 0.14499  0.96706  0.97094  Biso   1.000  H
  O33      1.0000 0.53138  0.13328  0.98301  Biso   1.000  O
  O34      1.0000 0.34165  0.15495  0.05929  Biso   1.000  O
  C94      1.0000 0.44894  0.33787  0.01577  Biso   1.000  C
  H94      1.0000 0.95019  0.89466  0.79884  Biso   1.000  H
  H95      1.0000 0.87973  0.86719  0.87082  Biso   1.000  H
  H96      1.0000 0.98170  0.77818  0.83781  Biso   1.000  H
  F16      1.0000 0.49997  0.38566  0.95802  Biso   1.000  F
  F17      1.0000 0.34800  0.40002  0.03630  Biso   1.000  F
  F18      1.0000 0.52111  0.33976  0.06170  Biso   1.000  F
  Ne1      1.0000 0.07650  0.33021  0.76682  Biso   1.000  Ne
  He1      1.0000 0.85884  0.17827  0.72119  Biso   1.000  He
  He2      1.0000 0.43502  0.28674  0.72945  Biso   1.000  He
  Ar1      1.0000 0.12556  0.24118  0.72989  Biso   1.000  Ar
  Ne2      1.0000 0.92330  0.66974  0.23321  Biso   1.000  Ne
  He3      1.0000 0.13945  0.82114  0.27881  Biso   1.000  He
  He4      1.0000 0.46648  0.67198  0.26904  Biso   1.000  He
  Ar2      1.0000 0.87412  0.75879  0.27032  Biso   1.000  Ar
