data_image0
_cell_length_a       16.979
_cell_length_b       18.535
_cell_length_c       23.93
_cell_angle_alpha    94.47
_cell_angle_beta     91.64
_cell_angle_gamma    115.57

_symmetry_space_group_name_H-M    "P 1"
_symmetry_int_tables_number       1

loop_
  _symmetry_equiv_pos_as_xyz
  'x, y, z'

loop_
  _atom_site_label
  _atom_site_occupancy
  _atom_site_fract_x
  _atom_site_fract_y
  _atom_site_fract_z
  _atom_site_thermal_displace_type
  _atom_site_B_iso_or_equiv
  _atom_site_type_symbol
  C1       1.0000 0.21223  0.25631  0.57092  Biso   1.000  C
  C2       1.0000 0.16719  0.22355  0.51004  Biso   1.000  C
  C3       1.0000 0.15797  0.20096  0.61248  Biso   1.000  C
  H1       1.0000 0.27069  0.25912  0.57252  Biso   1.000  H
  H2       1.0000 0.21727  0.31007  0.58042  Biso   1.000  H
  H3       1.0000 0.11424  0.23008  0.50681  Biso   1.000  H
  H4       1.0000 0.15366  0.16754  0.50319  Biso   1.000  H
  H5       1.0000 0.20618  0.25299  0.48303  Biso   1.000  H
  C4       1.0000 0.19882  0.23953  0.67088  Biso   1.000  C
  H6       1.0000 0.15797  0.14868  0.60571  Biso   1.000  H
  H7       1.0000 0.09804  0.19396  0.60870  Biso   1.000  H
  H8       1.0000 0.25743  0.24367  0.67681  Biso   1.000  H
  H9       1.0000 0.19988  0.29211  0.67882  Biso   1.000  H
  O1       1.0000 0.13548  0.17917  0.70374  Biso   1.000  O
  C5       1.0000 0.14309  0.20921  0.76189  Biso   1.000  C
  C6       1.0000 0.10469  0.25623  0.78076  Biso   1.000  C
  C7       1.0000 0.19529  0.18914  0.79966  Biso   1.000  C
  C8       1.0000 0.11348  0.28464  0.83756  Biso   1.000  C
  C9       1.0000 0.04265  0.27449  0.73912  Biso   1.000  C
  C10      1.0000 0.20408  0.21679  0.85530  Biso   1.000  C
  C11      1.0000 0.23521  0.13049  0.77937  Biso   1.000  C
  H10      1.0000 0.08739  0.31732  0.85021  Biso   1.000  H
  C12      1.0000 0.16198  0.26304  0.87462  Biso   1.000  C
  H11      1.0000 0.06829  0.33153  0.73479  Biso   1.000  H
  H12      1.0000 0.03714  0.24568  0.70252  Biso   1.000  H
  C13      1.0000 0.95094  0.24852  0.76198  Biso   1.000  C
  H13      1.0000 0.23837  0.20466  0.88042  Biso   1.000  H
  C14      1.0000 0.19435  0.05695  0.81504  Biso   1.000  C
  H14      1.0000 0.29845  0.15653  0.78580  Biso   1.000  H
  H15      1.0000 0.22028  0.11319  0.73962  Biso   1.000  H
  N1       1.0000 0.17713  0.29776  0.93080  Biso   1.000  N
  C15      1.0000 0.90235  0.16733  0.76559  Biso   1.000  C
  C16      1.0000 0.92537  0.30380  0.78761  Biso   1.000  C
  C17      1.0000 0.10684  0.00736  0.80912  Biso   1.000  C
  C18      1.0000 0.24855  0.05051  0.85857  Biso   1.000  C
  O2       1.0000 0.23324  0.29307  0.96025  Biso   1.000  O
  O3       1.0000 0.13297  0.33066  0.94832  Biso   1.000  O
  C19      1.0000 0.82631  0.13993  0.79513  Biso   1.000  C
  O4       1.0000 0.92662  0.11139  0.74038  Biso   1.000  O
  H16      1.0000 0.95945  0.35851  0.78622  Biso   1.000  H
  C20      1.0000 0.84735  0.27680  0.81580  Biso   1.000  C
  O5       1.0000 0.05729  0.01469  0.76681  Biso   1.000  O
  C21      1.0000 0.06891  0.94844  0.84622  Biso   1.000  C
  H17      1.0000 0.30817  0.08431  0.86282  Biso   1.000  H
  C22      1.0000 0.20907  0.99151  0.89471  Biso   1.000  C
  C23      1.0000 0.79962  0.19618  0.81958  Biso   1.000  C
  C24      1.0000 0.78026  0.05334  0.80945  Biso   1.000  C
  C25      1.0000 0.87546  0.06454  0.68639  Biso   1.000  C
  N2       1.0000 0.82359  0.32222  0.83223  Biso   1.000  N
  C26      1.0000 0.02442  0.93946  0.72555  Biso   1.000  C
  C27      1.0000 0.97078  0.90667  0.84899  Biso   1.000  C
  C28      1.0000 0.12095  0.94177  0.88987  Biso   1.000  C
  N3       1.0000 0.26032  0.98048  0.93752  Biso   1.000  N
  H18      1.0000 0.74867  0.17852  0.83870  Biso   1.000  H
  C29      1.0000 0.84581  0.04019  0.84916  Biso   1.000  C
  H19      1.0000 0.76475  0.01631  0.77559  Biso   1.000  H
  H20      1.0000 0.72726  0.04464  0.82803  Biso   1.000  H
  H21      1.0000 0.84115  0.00868  0.69269  Biso   1.000  H
  H22      1.0000 0.83550  0.08612  0.67462  Biso   1.000  H
  C30      1.0000 0.93621  0.06957  0.64139  Biso   1.000  C
  O6       1.0000 0.83969  0.38849  0.81933  Biso   1.000  O
  O7       1.0000 0.76591  0.30649  0.86357  Biso   1.000  O
  H23      1.0000 0.96296  0.92049  0.71420  Biso   1.000  H
  H24      1.0000 0.03335  0.89668  0.74130  Biso   1.000  H
  C31      1.0000 0.08119  0.96972  0.67706  Biso   1.000  C
  C32      1.0000 0.93521  0.97224  0.86748  Biso   1.000  C
  H25      1.0000 0.95576  0.86712  0.87601  Biso   1.000  H
  H26      1.0000 0.94355  0.87901  0.81252  Biso   1.000  H
  H27      1.0000 0.09623  0.90398  0.91542  Biso   1.000  H
  O8       1.0000 0.33657  0.00975  0.94567  Biso   1.000  O
  O9       1.0000 0.21802  0.92989  0.96891  Biso   1.000  O
  C33      1.0000 0.87156  0.98080  0.83496  Biso   1.000  C
  C34      1.0000 0.88626  0.09252  0.89756  Biso   1.000  C
  H28      1.0000 0.97414  0.04488  0.65101  Biso   1.000  H
  H29      1.0000 0.97166  0.12492  0.63441  Biso   1.000  H
  C35      1.0000 0.87353  0.02285  0.59118  Biso   1.000  C
  H30      1.0000 0.07497  0.01443  0.66223  Biso   1.000  H
  H31      1.0000 0.14242  0.98506  0.68731  Biso   1.000  H
  C36      1.0000 0.04054  0.89344  0.63639  Biso   1.000  C
  C37      1.0000 0.97328  0.02377  0.91576  Biso   1.000  C
  O10      1.0000 0.83173  0.92513  0.78542  Biso   1.000  O
  H32      1.0000 0.86970  0.13295  0.90840  Biso   1.000  H
  C38      1.0000 0.94984  0.08464  0.92899  Biso   1.000  C
  H33      1.0000 0.88587  0.97849  0.57710  Biso   1.000  H
  H34      1.0000 0.81396  0.00068  0.60261  Biso   1.000  H
  C39      1.0000 0.88185  0.07473  0.54630  Biso   1.000  C
  H35      1.0000 0.97806  0.87506  0.62920  Biso   1.000  H
  H36      1.0000 0.05181  0.85036  0.64962  Biso   1.000  H
  C40      1.0000 0.08916  0.92478  0.58635  Biso   1.000  C
  H37      1.0000 0.01420  0.01715  0.93882  Biso   1.000  H
  C41      1.0000 0.75336  0.85099  0.79933  Biso   1.000  C
  N4       1.0000 0.98878  0.14172  0.98088  Biso   1.000  N
  H38      1.0000 0.94224  0.11178  0.54479  Biso   1.000  H
  H39      1.0000 0.84796  0.10416  0.55382  Biso   1.000  H
  H40      1.0000 0.86084  0.04240  0.51101  Biso   1.000  H
  H41      1.0000 0.05074  0.90147  0.55303  Biso   1.000  H
  H42      1.0000 0.13739  0.91093  0.58441  Biso   1.000  H
  H43      1.0000 0.11066  0.98218  0.58912  Biso   1.000  H
  H44      1.0000 0.71428  0.86512  0.82160  Biso   1.000  H
  H45      1.0000 0.77116  0.81629  0.81933  Biso   1.000  H
  C42      1.0000 0.71101  0.81169  0.74126  Biso   1.000  C
  O11      1.0000 0.96269  0.18801  0.99345  Biso   1.000  O
  O12      1.0000 0.04294  0.13226  0.00593  Biso   1.000  O
  H46      1.0000 0.65134  0.77127  0.74303  Biso   1.000  H
  H47      1.0000 0.71173  0.85097  0.71651  Biso   1.000  H
  C43      1.0000 0.77103  0.77436  0.72328  Biso   1.000  C
  H48      1.0000 0.76517  0.72931  0.74361  Biso   1.000  H
  H49      1.0000 0.83195  0.81300  0.72370  Biso   1.000  H
  C44      1.0000 0.72333  0.74879  0.66294  Biso   1.000  C
  H50      1.0000 0.66198  0.73310  0.66572  Biso   1.000  H
  H51      1.0000 0.73175  0.70440  0.64571  Biso   1.000  H
  H52      1.0000 0.74715  0.79314  0.64059  Biso   1.000  H
