data_image0
_cell_length_a       13.423
_cell_length_b       48.142
_cell_length_c       13.73
_cell_angle_alpha    90
_cell_angle_beta     95.24
_cell_angle_gamma    90

_symmetry_space_group_name_H-M    "P 1"
_symmetry_int_tables_number       1

loop_
  _symmetry_equiv_pos_as_xyz
  'x, y, z'

loop_
  _atom_site_label
  _atom_site_occupancy
  _atom_site_fract_x
  _atom_site_fract_y
  _atom_site_fract_z
  _atom_site_thermal_displace_type
  _atom_site_B_iso_or_equiv
  _atom_site_type_symbol
  C1       1.0000 0.38719  0.43912  0.64699  Biso   1.000  C
  N1       1.0000 0.38229  0.41737  0.57297  Biso   1.000  N
  N2       1.0000 0.29487  0.45185  0.66110  Biso   1.000  N
  C2       1.0000 0.41624  0.42370  0.74338  Biso   1.000  C
  H1       1.0000 0.43866  0.45330  0.63411  Biso   1.000  H
  C3       1.0000 0.38162  0.42252  0.47006  Biso   1.000  C
  C4       1.0000 0.40589  0.39209  0.61583  Biso   1.000  C
  C5       1.0000 0.24571  0.47343  0.59908  Biso   1.000  C
  C6       1.0000 0.26559  0.44691  0.75289  Biso   1.000  C
  N3       1.0000 0.42247  0.39548  0.71442  Biso   1.000  N
  N4       1.0000 0.33455  0.43019  0.80043  Biso   1.000  N
  H2       1.0000 0.48146  0.43060  0.77571  Biso   1.000  H
  N5       1.0000 0.28242  0.42865  0.42340  Biso   1.000  N
  H3       1.0000 0.42641  0.43839  0.45990  Biso   1.000  H
  H4       1.0000 0.40846  0.40601  0.43839  Biso   1.000  H
  O1       1.0000 0.41167  0.37007  0.57092  Biso   1.000  O
  N6       1.0000 0.19188  0.46238  0.51168  Biso   1.000  N
  H5       1.0000 0.29670  0.48681  0.58021  Biso   1.000  H
  H6       1.0000 0.19838  0.48369  0.63711  Biso   1.000  H
  O2       1.0000 0.19065  0.45648  0.78558  Biso   1.000  O
  C7       1.0000 0.46531  0.37379  0.77820  Biso   1.000  C
  C8       1.0000 0.33384  0.42424  0.90283  Biso   1.000  C
  C9       1.0000 0.23667  0.41203  0.35231  Biso   1.000  C
  C10      1.0000 0.23772  0.45601  0.42340  Biso   1.000  C
  C11      1.0000 0.09190  0.46481  0.49566  Biso   1.000  C
  H7       1.0000 0.52316  0.38160  0.81930  Biso   1.000  H
  H8       1.0000 0.49050  0.35879  0.73768  Biso   1.000  H
  N7       1.0000 0.39678  0.36220  0.84051  Biso   1.000  N
  H9       1.0000 0.40175  0.42761  0.93523  Biso   1.000  H
  H10      1.0000 0.28769  0.43739  0.93120  Biso   1.000  H
  N8       1.0000 0.30441  0.39641  0.92433  Biso   1.000  N
  N9       1.0000 0.15617  0.42566  0.30960  Biso   1.000  N
  O3       1.0000 0.26319  0.38887  0.32920  Biso   1.000  O
  C12      1.0000 0.14728  0.45378  0.34522  Biso   1.000  C
  H11      1.0000 0.28572  0.47079  0.40687  Biso   1.000  H
  N10      1.0000 0.06281  0.45879  0.39963  Biso   1.000  N
  O4       1.0000 0.03401  0.47131  0.55710  Biso   1.000  O
  C13      1.0000 0.37459  0.37323  0.93237  Biso   1.000  C
  C14      1.0000 0.35956  0.33630  0.82647  Biso   1.000  C
  C15      1.0000 0.21820  0.39028  0.96492  Biso   1.000  C
  C16      1.0000 0.09405  0.41527  0.22527  Biso   1.000  C
  H12      1.0000 0.15153  0.46780  0.29182  Biso   1.000  H
  C17      1.0000 0.96467  0.46595  0.35311  Biso   1.000  C
  C18      1.0000 0.31294  0.34988  0.97743  Biso   1.000  C
  H13      1.0000 0.43670  0.37780  0.97516  Biso   1.000  H
  N11      1.0000 0.30365  0.32915  0.90188  Biso   1.000  N
  O5       1.0000 0.37020  0.32078  0.75538  Biso   1.000  O
  N12      1.0000 0.21979  0.36369  0.99308  Biso   1.000  N
  O6       1.0000 0.14985  0.40696  0.97406  Biso   1.000  O
  N13      1.0000 0.99467  0.40719  0.24523  Biso   1.000  N
  H14      1.0000 0.12777  0.39901  0.19857  Biso   1.000  H
  H15      1.0000 0.08892  0.42989  0.17429  Biso   1.000  H
  N14      1.0000 0.90212  0.44232  0.32627  Biso   1.000  N
  H16      1.0000 0.97326  0.47701  0.29351  Biso   1.000  H
  H17      1.0000 0.93006  0.47790  0.39809  Biso   1.000  H
  H18      1.0000 0.34752  0.34251  0.03974  Biso   1.000  H
  C19      1.0000 0.27164  0.30090  0.91811  Biso   1.000  C
  C20      1.0000 0.14192  0.35131  0.04391  Biso   1.000  C
  C21      1.0000 0.96526  0.37973  0.23982  Biso   1.000  C
  C22      1.0000 0.91176  0.42628  0.23887  Biso   1.000  C
  C23      1.0000 0.81735  0.43646  0.37030  Biso   1.000  C
  N15      1.0000 0.16593  0.29783  0.90063  Biso   1.000  N
  H19      1.0000 0.29300  0.29550  0.98642  Biso   1.000  H
  H20      1.0000 0.30480  0.28821  0.87430  Biso   1.000  H
  N16      1.0000 0.07688  0.33345  0.98328  Biso   1.000  N
  H21      1.0000 0.10149  0.36621  0.07046  Biso   1.000  H
  H22      1.0000 0.17293  0.34041  0.09994  Biso   1.000  H
  O7       1.0000 0.02101  0.36006  0.23682  Biso   1.000  O
  N17      1.0000 0.86281  0.37915  0.23807  Biso   1.000  N
  C24      1.0000 0.81896  0.40661  0.23682  Biso   1.000  C
  H23      1.0000 0.91006  0.43831  0.17926  Biso   1.000  H
  N18      1.0000 0.77241  0.41411  0.32379  Biso   1.000  N
  O8       1.0000 0.78695  0.44905  0.43803  Biso   1.000  O
  C25      1.0000 0.12075  0.28449  0.82047  Biso   1.000  C
  C26      1.0000 0.09629  0.30410  0.97180  Biso   1.000  C
  C27      1.0000 0.97690  0.33966  0.96170  Biso   1.000  C
  C28      1.0000 0.80625  0.35412  0.22278  Biso   1.000  C
  H24      1.0000 0.77250  0.40960  0.17648  Biso   1.000  H
  C29      1.0000 0.67371  0.40501  0.34149  Biso   1.000  C
  N19      1.0000 0.02127  0.28312  0.82983  Biso   1.000  N
  O9       1.0000 0.16357  0.27560  0.75253  Biso   1.000  O
  C30      1.0000 0.99619  0.29305  0.92338  Biso   1.000  C
  H25      1.0000 0.11548  0.29490  0.03601  Biso   1.000  H
  N20      1.0000 0.93197  0.31717  0.91862  Biso   1.000  N
  O10      1.0000 0.93698  0.36180  0.97779  Biso   1.000  O
  H26      1.0000 0.74987  0.35750  0.17261  Biso   1.000  H
  H27      1.0000 0.84941  0.33960  0.19747  Biso   1.000  H
  N21      1.0000 0.76692  0.34394  0.31208  Biso   1.000  N
  H28      1.0000 0.63262  0.40360  0.27800  Biso   1.000  H
  H29      1.0000 0.64268  0.41930  0.38091  Biso   1.000  H
  N22      1.0000 0.67061  0.37886  0.39122  Biso   1.000  N
  C31      1.0000 0.95438  0.26409  0.76927  Biso   1.000  C
  H30      1.0000 0.96896  0.27780  0.96287  Biso   1.000  H
  C32      1.0000 0.82273  0.31534  0.90400  Biso   1.000  C
  C33      1.0000 0.67249  0.35225  0.34280  Biso   1.000  C
  C34      1.0000 0.80486  0.32055  0.35940  Biso   1.000  C
  C35      1.0000 0.65355  0.37637  0.48776  Biso   1.000  C
  N23      1.0000 0.87711  0.27897  0.71091  Biso   1.000  N
  H31      1.0000 0.92304  0.25090  0.81257  Biso   1.000  H
  H32      1.0000 0.99448  0.25321  0.72568  Biso   1.000  H
  N24      1.0000 0.78744  0.31332  0.80050  Biso   1.000  N
  H33      1.0000 0.79319  0.33200  0.93230  Biso   1.000  H
  H34      1.0000 0.80013  0.29880  0.93881  Biso   1.000  H
  H35      1.0000 0.61821  0.35080  0.28809  Biso   1.000  H
  C36      1.0000 0.65601  0.33127  0.42633  Biso   1.000  C
  N25      1.0000 0.74278  0.31403  0.42933  Biso   1.000  N
  O11      1.0000 0.87860  0.30759  0.34170  Biso   1.000  O
  N26      1.0000 0.65018  0.34882  0.50992  Biso   1.000  N
  O12      1.0000 0.64317  0.39566  0.54408  Biso   1.000  O
  C37      1.0000 0.87038  0.27676  0.61261  Biso   1.000  C
  C38      1.0000 0.78414  0.28759  0.74609  Biso   1.000  C
  C39      1.0000 0.73567  0.33399  0.75121  Biso   1.000  C
  H36      1.0000 0.59332  0.32030  0.41163  Biso   1.000  H
  C40      1.0000 0.74497  0.28661  0.47350  Biso   1.000  C
  C41      1.0000 0.62127  0.33887  0.60157  Biso   1.000  C
  N27      1.0000 0.77909  0.28698  0.57641  Biso   1.000  N
  O13      1.0000 0.93321  0.26727  0.56339  Biso   1.000  O
  C42      1.0000 0.71770  0.29463  0.65211  Biso   1.000  C
  H37      1.0000 0.75424  0.27230  0.78332  Biso   1.000  H
  N28      1.0000 0.69984  0.32421  0.66191  Biso   1.000  N
  O14      1.0000 0.72140  0.35738  0.78339  Biso   1.000  O
  H38      1.0000 0.78956  0.27450  0.43883  Biso   1.000  H
  H39      1.0000 0.67691  0.27851  0.46509  Biso   1.000  H
  H40      1.0000 0.59880  0.35491  0.63931  Biso   1.000  H
  H41      1.0000 0.56337  0.32620  0.58869  Biso   1.000  H
  H42      1.0000 0.65380  0.28381  0.64750  Biso   1.000  H
  C43      1.0000 0.61280  0.56088  0.35297  Biso   1.000  C
  N29      1.0000 0.70506  0.54815  0.33893  Biso   1.000  N
  C44      1.0000 0.58368  0.57630  0.25657  Biso   1.000  C
  H43      1.0000 0.56126  0.54670  0.36591  Biso   1.000  H
  N30      1.0000 0.61770  0.58263  0.42698  Biso   1.000  N
  C45      1.0000 0.75428  0.52657  0.40087  Biso   1.000  C
  C46      1.0000 0.73440  0.55309  0.24706  Biso   1.000  C
  N31      1.0000 0.66537  0.56981  0.19960  Biso   1.000  N
  H44      1.0000 0.51846  0.56940  0.22432  Biso   1.000  H
  N32      1.0000 0.57753  0.60452  0.28561  Biso   1.000  N
  C47      1.0000 0.59411  0.60791  0.38420  Biso   1.000  C
  C48      1.0000 0.61837  0.57748  0.52989  Biso   1.000  C
  H45      1.0000 0.70330  0.51319  0.41982  Biso   1.000  H
  H46      1.0000 0.80161  0.51631  0.36292  Biso   1.000  H
  N33      1.0000 0.80811  0.53762  0.48828  Biso   1.000  N
  O15      1.0000 0.80927  0.54352  0.21437  Biso   1.000  O
  C49      1.0000 0.66609  0.57576  0.09720  Biso   1.000  C
  C50      1.0000 0.53469  0.62621  0.22183  Biso   1.000  C
  O16      1.0000 0.58825  0.62993  0.42911  Biso   1.000  O
  N34      1.0000 0.71758  0.57135  0.57663  Biso   1.000  N
  H47      1.0000 0.57359  0.56161  0.54013  Biso   1.000  H
  H48      1.0000 0.59147  0.59399  0.56163  Biso   1.000  H
  C51      1.0000 0.76228  0.54399  0.57663  Biso   1.000  C
  C52      1.0000 0.90809  0.53519  0.50429  Biso   1.000  C
  H49      1.0000 0.59817  0.57239  0.06480  Biso   1.000  H
  H50      1.0000 0.71231  0.56261  0.06882  Biso   1.000  H
  N35      1.0000 0.69559  0.60359  0.07570  Biso   1.000  N
  H51      1.0000 0.47677  0.61840  0.18073  Biso   1.000  H
  H52      1.0000 0.50949  0.64121  0.26228  Biso   1.000  H
  N36      1.0000 0.60322  0.63780  0.15952  Biso   1.000  N
  C53      1.0000 0.76326  0.58797  0.64772  Biso   1.000  C
  H53      1.0000 0.71427  0.52921  0.59308  Biso   1.000  H
  C54      1.0000 0.85265  0.54622  0.65481  Biso   1.000  C
  N37      1.0000 0.93719  0.54121  0.60040  Biso   1.000  N
  O17      1.0000 0.96598  0.52869  0.44293  Biso   1.000  O
  C55      1.0000 0.62540  0.62677  0.06758  Biso   1.000  C
  C56      1.0000 0.78179  0.60972  0.03511  Biso   1.000  C
  C57      1.0000 0.64036  0.66370  0.17349  Biso   1.000  C
  N38      1.0000 0.84376  0.57434  0.69043  Biso   1.000  N
  O18      1.0000 0.73681  0.61113  0.67083  Biso   1.000  O
  H54      1.0000 0.84847  0.53220  0.70820  Biso   1.000  H
  C58      1.0000 0.03525  0.53405  0.64691  Biso   1.000  C
  C59      1.0000 0.68698  0.65012  0.02260  Biso   1.000  C
  H55      1.0000 0.56329  0.62220  0.02479  Biso   1.000  H
  N39      1.0000 0.78020  0.63631  0.00688  Biso   1.000  N
  O19      1.0000 0.85007  0.59304  0.02589  Biso   1.000  O
  N40      1.0000 0.69627  0.67085  0.09808  Biso   1.000  N
  O20      1.0000 0.62979  0.67922  0.24458  Biso   1.000  O
  C60      1.0000 0.90586  0.58473  0.77469  Biso   1.000  C
  H56      1.0000 0.02667  0.52299  0.70652  Biso   1.000  H
  H57      1.0000 0.06986  0.52210  0.60193  Biso   1.000  H
  N41      1.0000 0.09787  0.55768  0.67368  Biso   1.000  N
  H58      1.0000 0.65248  0.65749  0.96029  Biso   1.000  H
  C61      1.0000 0.85807  0.64869  0.95604  Biso   1.000  C
  C62      1.0000 0.72828  0.69910  0.08192  Biso   1.000  C
  H59      1.0000 0.87215  0.60099  0.80138  Biso   1.000  H
  H60      1.0000 0.91107  0.57011  0.82566  Biso   1.000  H
  N42      1.0000 0.00525  0.59281  0.75479  Biso   1.000  N
  C63      1.0000 0.08816  0.57372  0.76108  Biso   1.000  C
  C64      1.0000 0.18257  0.56354  0.62973  Biso   1.000  C
  N43      1.0000 0.92311  0.66655  0.01668  Biso   1.000  N
  H61      1.0000 0.89843  0.63379  0.92957  Biso   1.000  H
  H62      1.0000 0.82707  0.65959  0.90009  Biso   1.000  H
  H63      1.0000 0.70700  0.70450  0.01360  Biso   1.000  H
  H64      1.0000 0.69520  0.71179  0.12573  Biso   1.000  H
  N44      1.0000 0.83399  0.70217  0.09940  Biso   1.000  N
  C65      1.0000 0.03466  0.62027  0.76021  Biso   1.000  C
  H65      1.0000 0.08985  0.56169  0.82069  Biso   1.000  H
  C66      1.0000 0.18096  0.59339  0.76320  Biso   1.000  C
  N45      1.0000 0.22758  0.58589  0.67617  Biso   1.000  N
  O21      1.0000 0.21297  0.55095  0.56200  Biso   1.000  O
  C67      1.0000 0.90370  0.69590  0.02823  Biso   1.000  C
  C68      1.0000 0.02310  0.66034  0.03832  Biso   1.000  C
  C69      1.0000 0.87917  0.71551  0.17948  Biso   1.000  C
  O22      1.0000 0.97899  0.63994  0.76320  Biso   1.000  O
  N46      1.0000 0.13718  0.62085  0.76189  Biso   1.000  N
  H66      1.0000 0.22749  0.59040  0.82347  Biso   1.000  H
  C70      1.0000 0.32628  0.59499  0.65847  Biso   1.000  C
  H67      1.0000 0.88444  0.70510  0.96394  Biso   1.000  H
  C71      1.0000 0.00380  0.70695  0.07658  Biso   1.000  C
  N47      1.0000 0.06802  0.68283  0.08140  Biso   1.000  N
  O23      1.0000 0.06302  0.63820  0.02223  Biso   1.000  O
  N48      1.0000 0.97872  0.71688  0.17019  Biso   1.000  N
  O24      1.0000 0.83643  0.72440  0.24750  Biso   1.000  O
  C72      1.0000 0.19366  0.64588  0.77717  Biso   1.000  C
  H68      1.0000 0.36738  0.59640  0.72203  Biso   1.000  H
  H69      1.0000 0.35725  0.58070  0.61912  Biso   1.000  H
  N49      1.0000 0.32939  0.62114  0.60881  Biso   1.000  N
  H70      1.0000 0.03103  0.72220  0.03708  Biso   1.000  H
  C73      1.0000 0.17719  0.68466  0.09603  Biso   1.000  C
  C74      1.0000 0.04561  0.73591  0.23068  Biso   1.000  C
  H71      1.0000 0.25006  0.64250  0.82742  Biso   1.000  H
  H72      1.0000 0.15058  0.66040  0.80248  Biso   1.000  H
  N50      1.0000 0.23307  0.65606  0.68787  Biso   1.000  N
  C75      1.0000 0.32751  0.64775  0.65723  Biso   1.000  C
  C76      1.0000 0.34636  0.62363  0.51219  Biso   1.000  C
  H73      1.0000 0.20680  0.66800  0.06773  Biso   1.000  H
  H74      1.0000 0.19979  0.70120  0.06122  Biso   1.000  H
  N51      1.0000 0.21249  0.68668  0.19952  Biso   1.000  N
  H75      1.0000 0.07688  0.74910  0.18738  Biso   1.000  H
  H76      1.0000 0.00551  0.74679  0.27427  Biso   1.000  H
  N52      1.0000 0.12289  0.72103  0.28912  Biso   1.000  N
  C77      1.0000 0.19506  0.67945  0.64062  Biso   1.000  C
  H77      1.0000 0.38179  0.64920  0.71193  Biso   1.000  H
  C78      1.0000 0.34399  0.66873  0.57370  Biso   1.000  C
  N53      1.0000 0.34981  0.65118  0.49010  Biso   1.000  N
  O25      1.0000 0.35675  0.60434  0.45587  Biso   1.000  O
  C79      1.0000 0.21577  0.71241  0.25387  Biso   1.000  C
  C80      1.0000 0.26432  0.66601  0.24882  Biso   1.000  C
  C81      1.0000 0.12961  0.72324  0.38742  Biso   1.000  C
  N54      1.0000 0.25722  0.68597  0.57070  Biso   1.000  N
  O26      1.0000 0.12140  0.69241  0.65832  Biso   1.000  O
  H78      1.0000 0.40668  0.67970  0.58840  Biso   1.000  H
  C82      1.0000 0.37872  0.66113  0.39839  Biso   1.000  C
  C83      1.0000 0.28230  0.70537  0.34792  Biso   1.000  C
  H79      1.0000 0.24568  0.72770  0.21671  Biso   1.000  H
  N55      1.0000 0.30008  0.67579  0.33812  Biso   1.000  N
  O27      1.0000 0.27859  0.64262  0.21656  Biso   1.000  O
  N56      1.0000 0.22090  0.71302  0.42362  Biso   1.000  N
  O28      1.0000 0.06678  0.73273  0.43657  Biso   1.000  O
  C84      1.0000 0.25495  0.71339  0.52653  Biso   1.000  C
  H80      1.0000 0.40120  0.64509  0.36072  Biso   1.000  H
  H81      1.0000 0.43662  0.67380  0.41133  Biso   1.000  H
  H82      1.0000 0.34620  0.71619  0.35253  Biso   1.000  H
  H83      1.0000 0.21036  0.72550  0.56119  Biso   1.000  H
  H84      1.0000 0.32308  0.72149  0.53486  Biso   1.000  H
  O29      1.0000 0.16357  0.22440  0.25248  Biso   1.000  O
  C85      1.0000 0.12075  0.21551  0.32049  Biso   1.000  C
  N57      1.0000 0.16601  0.20217  0.40058  Biso   1.000  N
  N58      1.0000 0.02127  0.21688  0.32978  Biso   1.000  N
  C86      1.0000 0.27172  0.19910  0.41813  Biso   1.000  C
  C87      1.0000 0.09630  0.19590  0.47182  Biso   1.000  C
  C88      1.0000 0.95438  0.23591  0.26930  Biso   1.000  C
  C89      1.0000 0.99619  0.20695  0.42340  Biso   1.000  C
  H85      1.0000 0.29300  0.20450  0.48637  Biso   1.000  H
  H86      1.0000 0.30480  0.21179  0.37432  Biso   1.000  H
  N59      1.0000 0.30365  0.17085  0.40190  Biso   1.000  N
  H87      1.0000 0.11548  0.20510  0.53603  Biso   1.000  H
  N60      1.0000 0.07688  0.16655  0.48330  Biso   1.000  N
  H88      1.0000 0.92312  0.24910  0.31260  Biso   1.000  H
  H89      1.0000 0.99449  0.24679  0.22571  Biso   1.000  H
  N61      1.0000 0.87711  0.22103  0.21093  Biso   1.000  N
  H90      1.0000 0.96897  0.22220  0.46290  Biso   1.000  H
  N62      1.0000 0.93197  0.18283  0.41857  Biso   1.000  N
  C90      1.0000 0.31301  0.15012  0.47738  Biso   1.000  C
  C91      1.0000 0.35956  0.16370  0.32649  Biso   1.000  C
  C92      1.0000 0.14185  0.14869  0.54393  Biso   1.000  C
  C93      1.0000 0.97690  0.16034  0.46173  Biso   1.000  C
  C94      1.0000 0.78422  0.21241  0.24611  Biso   1.000  C
  C95      1.0000 0.87039  0.22324  0.11263  Biso   1.000  C
  C96      1.0000 0.82281  0.18466  0.40402  Biso   1.000  C
  H91      1.0000 0.34744  0.15749  0.53969  Biso   1.000  H
  C97      1.0000 0.37460  0.12677  0.43240  Biso   1.000  C
  N63      1.0000 0.21980  0.13631  0.49310  Biso   1.000  N
  N64      1.0000 0.39678  0.13780  0.34053  Biso   1.000  N
  O30      1.0000 0.37020  0.17922  0.25540  Biso   1.000  O
  H92      1.0000 0.10149  0.13379  0.57041  Biso   1.000  H
  H93      1.0000 0.17285  0.15959  0.59988  Biso   1.000  H
  O31      1.0000 0.93698  0.13820  0.47782  Biso   1.000  O
  C98      1.0000 0.71771  0.20537  0.15213  Biso   1.000  C
  H94      1.0000 0.75432  0.22770  0.28327  Biso   1.000  H
  N65      1.0000 0.78752  0.18668  0.30053  Biso   1.000  N
  N66      1.0000 0.77910  0.21302  0.07643  Biso   1.000  N
  O32      1.0000 0.93321  0.23273  0.06341  Biso   1.000  O
  H95      1.0000 0.79320  0.16800  0.43232  Biso   1.000  H
  H96      1.0000 0.80021  0.20120  0.43883  Biso   1.000  H
  H97      1.0000 0.43670  0.12220  0.47518  Biso   1.000  H
  N67      1.0000 0.30440  0.10359  0.42428  Biso   1.000  N
  C99      1.0000 0.21820  0.10972  0.46487  Biso   1.000  C
  C100     1.0000 0.46531  0.12621  0.27822  Biso   1.000  C
  H98      1.0000 0.65380  0.21619  0.14752  Biso   1.000  H
  N68      1.0000 0.69992  0.17579  0.16193  Biso   1.000  N
  C101     1.0000 0.73568  0.16601  0.25123  Biso   1.000  C
  C102     1.0000 0.74497  0.21339  0.97345  Biso   1.000  C
  C103     1.0000 0.33391  0.07576  0.40278  Biso   1.000  C
  O33      1.0000 0.14985  0.09304  0.47409  Biso   1.000  O
  H99      1.0000 0.52316  0.11840  0.31932  Biso   1.000  H
  H100     1.0000 0.49051  0.14121  0.23770  Biso   1.000  H
  N69      1.0000 0.42247  0.10452  0.21437  Biso   1.000  N
  C104     1.0000 0.62128  0.16113  0.10159  Biso   1.000  C
  O34      1.0000 0.72140  0.14262  0.28341  Biso   1.000  O
  H101     1.0000 0.78956  0.22550  0.93878  Biso   1.000  H
  H102     1.0000 0.67684  0.22149  0.96504  Biso   1.000  H
  N70      1.0000 0.74278  0.18597  0.92927  Biso   1.000  N
  H103     1.0000 0.40175  0.07239  0.43518  Biso   1.000  H
  H104     1.0000 0.28769  0.06261  0.43123  Biso   1.000  H
  N71      1.0000 0.33462  0.06981  0.30038  Biso   1.000  N
  C105     1.0000 0.41632  0.07630  0.24341  Biso   1.000  C
  C106     1.0000 0.40588  0.10791  0.11578  Biso   1.000  C
  H105     1.0000 0.59880  0.14509  0.13933  Biso   1.000  H
  H106     1.0000 0.56338  0.17380  0.08872  Biso   1.000  H
  N72      1.0000 0.65018  0.15118  0.00987  Biso   1.000  N
  C107     1.0000 0.65601  0.16873  0.92628  Biso   1.000  C
  C108     1.0000 0.80486  0.17945  0.85935  Biso   1.000  C
  C109     1.0000 0.26560  0.05309  0.25291  Biso   1.000  C
  H107     1.0000 0.48147  0.06940  0.27573  Biso   1.000  H
  C110     1.0000 0.38720  0.06088  0.14701  Biso   1.000  C
  N73      1.0000 0.38229  0.08263  0.07299  Biso   1.000  N
  O35      1.0000 0.41167  0.12993  0.07087  Biso   1.000  O
  C111     1.0000 0.65356  0.12363  0.98779  Biso   1.000  C
  C112     1.0000 0.67249  0.14775  0.84275  Biso   1.000  C
  H108     1.0000 0.59324  0.17970  0.91158  Biso   1.000  H
  N74      1.0000 0.76684  0.15606  0.81203  Biso   1.000  N
  O36      1.0000 0.87860  0.19241  0.84165  Biso   1.000  O
  N75      1.0000 0.29487  0.04815  0.16112  Biso   1.000  N
  O37      1.0000 0.19073  0.04352  0.28561  Biso   1.000  O
  H109     1.0000 0.43866  0.04670  0.13406  Biso   1.000  H
  C113     1.0000 0.38155  0.07748  0.97009  Biso   1.000  C
  N76      1.0000 0.67061  0.12114  0.89117  Biso   1.000  N
  O38      1.0000 0.64317  0.10434  0.04410  Biso   1.000  O
  H110     1.0000 0.61813  0.14920  0.78804  Biso   1.000  H
  C114     1.0000 0.80626  0.14588  0.72280  Biso   1.000  C
  C115     1.0000 0.24572  0.02657  0.09910  Biso   1.000  C
  H111     1.0000 0.42633  0.06161  0.95985  Biso   1.000  H
  H112     1.0000 0.40845  0.09399  0.93834  Biso   1.000  H
  N77      1.0000 0.28234  0.07135  0.92335  Biso   1.000  N
  C116     1.0000 0.67363  0.09499  0.84143  Biso   1.000  C
  H113     1.0000 0.74986  0.14250  0.67256  Biso   1.000  H
  H114     1.0000 0.84941  0.16040  0.69750  Biso   1.000  H
  N78      1.0000 0.86274  0.12085  0.73809  Biso   1.000  N
  H115     1.0000 0.29670  0.01319  0.08023  Biso   1.000  H
  H116     1.0000 0.19839  0.01631  0.13714  Biso   1.000  H
  N79      1.0000 0.19189  0.03762  0.01170  Biso   1.000  N
  C117     1.0000 0.23764  0.04399  0.92335  Biso   1.000  C
  C118     1.0000 0.23666  0.08797  0.85226  Biso   1.000  C
  H117     1.0000 0.63254  0.09640  0.77795  Biso   1.000  H
  H118     1.0000 0.64267  0.08070  0.88086  Biso   1.000  H
  N80      1.0000 0.77240  0.08589  0.82374  Biso   1.000  N
  C119     1.0000 0.81896  0.09339  0.73677  Biso   1.000  C
  C120     1.0000 0.96526  0.12027  0.73977  Biso   1.000  C
  C121     1.0000 0.09190  0.03519  0.99568  Biso   1.000  C
  H119     1.0000 0.28565  0.02921  0.90689  Biso   1.000  H
  C122     1.0000 0.14727  0.04622  0.84517  Biso   1.000  C
  N81      1.0000 0.15616  0.07434  0.80955  Biso   1.000  N
  O39      1.0000 0.26319  0.11113  0.82915  Biso   1.000  O
  C123     1.0000 0.81735  0.06354  0.87025  Biso   1.000  C
  C124     1.0000 0.91176  0.07372  0.73889  Biso   1.000  C
  H120     1.0000 0.77250  0.09040  0.67643  Biso   1.000  H
  N82      1.0000 0.99467  0.09281  0.74518  Biso   1.000  N
  O40      1.0000 0.02100  0.13994  0.73677  Biso   1.000  O
  O41      1.0000 0.03402  0.02869  0.05712  Biso   1.000  O
  N83      1.0000 0.06273  0.04121  0.89958  Biso   1.000  N
  H121     1.0000 0.15145  0.03220  0.79177  Biso   1.000  H
  C125     1.0000 0.09406  0.08473  0.72529  Biso   1.000  C
  N84      1.0000 0.90205  0.05768  0.82630  Biso   1.000  N
  O42      1.0000 0.78695  0.05095  0.93798  Biso   1.000  O
  H122     1.0000 0.91007  0.06169  0.67929  Biso   1.000  H
  C126     1.0000 0.96467  0.03405  0.85306  Biso   1.000  C
  H123     1.0000 0.12777  0.10099  0.69859  Biso   1.000  H
  H124     1.0000 0.08884  0.07011  0.67424  Biso   1.000  H
  H125     1.0000 0.97326  0.02299  0.79346  Biso   1.000  H
  H126     1.0000 0.93006  0.02210  0.89804  Biso   1.000  H
  O43      1.0000 0.83635  0.77560  0.74748  Biso   1.000  O
  C127     1.0000 0.87917  0.78449  0.67953  Biso   1.000  C
  N85      1.0000 0.83398  0.79783  0.59937  Biso   1.000  N
  N86      1.0000 0.97864  0.78312  0.67017  Biso   1.000  N
  C128     1.0000 0.72828  0.80090  0.58189  Biso   1.000  C
  C129     1.0000 0.90370  0.80410  0.52821  Biso   1.000  C
  C130     1.0000 0.04554  0.76409  0.73073  Biso   1.000  C
  C131     1.0000 0.00380  0.79305  0.57663  Biso   1.000  C
  H127     1.0000 0.70700  0.79550  0.51358  Biso   1.000  H
  H128     1.0000 0.69519  0.78821  0.62570  Biso   1.000  H
  N87      1.0000 0.69627  0.82915  0.59813  Biso   1.000  N
  H129     1.0000 0.88451  0.79490  0.46399  Biso   1.000  H
  N88      1.0000 0.92311  0.83345  0.51673  Biso   1.000  N
  H130     1.0000 0.07688  0.75090  0.68743  Biso   1.000  H
  H131     1.0000 0.00551  0.75321  0.77432  Biso   1.000  H
  N89      1.0000 0.12288  0.77897  0.78910  Biso   1.000  N
  H132     1.0000 0.03096  0.77780  0.53713  Biso   1.000  H
  N90      1.0000 0.06794  0.81717  0.58138  Biso   1.000  N
  C132     1.0000 0.68698  0.84988  0.52258  Biso   1.000  C
  C133     1.0000 0.64035  0.83630  0.67346  Biso   1.000  C
  C134     1.0000 0.85807  0.85131  0.45609  Biso   1.000  C
  C135     1.0000 0.02309  0.83966  0.53830  Biso   1.000  C
  C136     1.0000 0.21578  0.78759  0.75392  Biso   1.000  C
  C137     1.0000 0.12953  0.77676  0.88739  Biso   1.000  C
  C138     1.0000 0.17718  0.81534  0.59601  Biso   1.000  C
  H133     1.0000 0.65247  0.84251  0.46026  Biso   1.000  H
  C139     1.0000 0.62540  0.87323  0.56763  Biso   1.000  C
  N91      1.0000 0.78020  0.86369  0.50693  Biso   1.000  N
  N92      1.0000 0.60314  0.86220  0.65949  Biso   1.000  N
  O44      1.0000 0.62979  0.82078  0.74463  Biso   1.000  O
  H134     1.0000 0.89851  0.86621  0.42962  Biso   1.000  H
  H135     1.0000 0.82706  0.84041  0.40007  Biso   1.000  H
  O45      1.0000 0.06301  0.86180  0.52221  Biso   1.000  O
  C140     1.0000 0.28229  0.79463  0.84790  Biso   1.000  C
  H136     1.0000 0.24567  0.77230  0.71669  Biso   1.000  H
  N93      1.0000 0.21248  0.81332  0.69950  Biso   1.000  N
  N94      1.0000 0.22090  0.78698  0.92360  Biso   1.000  N
  O46      1.0000 0.06678  0.76727  0.93662  Biso   1.000  O
  H137     1.0000 0.20680  0.83200  0.56770  Biso   1.000  H
  H138     1.0000 0.19978  0.79880  0.56119  Biso   1.000  H
  H139     1.0000 0.56329  0.87780  0.52477  Biso   1.000  H
  N95      1.0000 0.69559  0.89641  0.57568  Biso   1.000  N
  C141     1.0000 0.78179  0.89028  0.53508  Biso   1.000  C
  C142     1.0000 0.53469  0.87379  0.72181  Biso   1.000  C
  H140     1.0000 0.34620  0.78381  0.85251  Biso   1.000  H
  N96      1.0000 0.30008  0.82421  0.83810  Biso   1.000  N
  C143     1.0000 0.26424  0.83399  0.74880  Biso   1.000  C
  C144     1.0000 0.25502  0.78661  0.02650  Biso   1.000  C
  C145     1.0000 0.66608  0.92424  0.59718  Biso   1.000  C
  O47      1.0000 0.85006  0.90696  0.52587  Biso   1.000  O
  H141     1.0000 0.47676  0.88160  0.68070  Biso   1.000  H
  H142     1.0000 0.50949  0.85879  0.76233  Biso   1.000  H
  N97      1.0000 0.57745  0.89548  0.78558  Biso   1.000  N
  C146     1.0000 0.37864  0.83887  0.89836  Biso   1.000  C
  O48      1.0000 0.27860  0.85738  0.71661  Biso   1.000  O
  H143     1.0000 0.21036  0.77450  0.06124  Biso   1.000  H
  H144     1.0000 0.32308  0.77851  0.03491  Biso   1.000  H
  N98      1.0000 0.25722  0.81403  0.07075  Biso   1.000  N
  H145     1.0000 0.59817  0.92761  0.56478  Biso   1.000  H
  H146     1.0000 0.71230  0.93739  0.56880  Biso   1.000  H
  N99      1.0000 0.66537  0.93019  0.69957  Biso   1.000  N
  C147     1.0000 0.58368  0.92370  0.75662  Biso   1.000  C
  C148     1.0000 0.59403  0.89209  0.88418  Biso   1.000  C
  H147     1.0000 0.40120  0.85491  0.86070  Biso   1.000  H
  H148     1.0000 0.43654  0.82620  0.91131  Biso   1.000  H
  N100     1.0000 0.34974  0.84882  0.99008  Biso   1.000  N
  C149     1.0000 0.34399  0.83127  0.07375  Biso   1.000  C
  C150     1.0000 0.19506  0.82055  0.14060  Biso   1.000  C
  C151     1.0000 0.73440  0.94691  0.74711  Biso   1.000  C
  H149     1.0000 0.51845  0.93060  0.72429  Biso   1.000  H
  C152     1.0000 0.61280  0.93912  0.85302  Biso   1.000  C
  N101     1.0000 0.61770  0.91737  0.92696  Biso   1.000  N
  O49      1.0000 0.58824  0.87007  0.92908  Biso   1.000  O
  C153     1.0000 0.34637  0.87637  0.01224  Biso   1.000  C
  C154     1.0000 0.32750  0.85225  0.15720  Biso   1.000  C
  H150     1.0000 0.40668  0.82030  0.08845  Biso   1.000  H
  N102     1.0000 0.23308  0.84394  0.18792  Biso   1.000  N
  O50      1.0000 0.12139  0.80759  0.15830  Biso   1.000  O
  N103     1.0000 0.70505  0.95185  0.83890  Biso   1.000  N
  O51      1.0000 0.80927  0.95648  0.71442  Biso   1.000  O
  H151     1.0000 0.56126  0.95330  0.86589  Biso   1.000  H
  C155     1.0000 0.61838  0.92252  0.02994  Biso   1.000  C
  O52      1.0000 0.35675  0.89566  0.95593  Biso   1.000  O
  N104     1.0000 0.32939  0.87886  0.10886  Biso   1.000  N
  H152     1.0000 0.38178  0.85080  0.21191  Biso   1.000  H
  C156     1.0000 0.19366  0.85412  0.27722  Biso   1.000  C
  C157     1.0000 0.75428  0.97343  0.90092  Biso   1.000  C
  H153     1.0000 0.57358  0.93839  0.04011  Biso   1.000  H
  H154     1.0000 0.59146  0.90601  0.06161  Biso   1.000  H
  N105     1.0000 0.71757  0.92865  0.07660  Biso   1.000  N
  C158     1.0000 0.32628  0.90501  0.15852  Biso   1.000  C
  H155     1.0000 0.25005  0.85750  0.32740  Biso   1.000  H
  H156     1.0000 0.15058  0.83960  0.30253  Biso   1.000  H
  N106     1.0000 0.13718  0.87915  0.26194  Biso   1.000  N
  H157     1.0000 0.70330  0.98681  0.91979  Biso   1.000  H
  H158     1.0000 0.80154  0.98369  0.86289  Biso   1.000  H
  N107     1.0000 0.80804  0.96238  0.98833  Biso   1.000  N
  C159     1.0000 0.76227  0.95601  0.07660  Biso   1.000  C
  C160     1.0000 0.76325  0.91203  0.14770  Biso   1.000  C
  H159     1.0000 0.36738  0.90360  0.22200  Biso   1.000  H
  H160     1.0000 0.35732  0.91930  0.11910  Biso   1.000  H
  N108     1.0000 0.22759  0.91411  0.17622  Biso   1.000  N
  C161     1.0000 0.18096  0.90661  0.26325  Biso   1.000  C
  C162     1.0000 0.03466  0.87973  0.26026  Biso   1.000  C
  C163     1.0000 0.90810  0.96481  0.00434  Biso   1.000  C
  H161     1.0000 0.71428  0.97079  0.09313  Biso   1.000  H
  C164     1.0000 0.85272  0.95378  0.15486  Biso   1.000  C
  N109     1.0000 0.84375  0.92566  0.19041  Biso   1.000  N
  O53      1.0000 0.73680  0.88887  0.17081  Biso   1.000  O
  C165     1.0000 0.18256  0.93646  0.12970  Biso   1.000  C
  C166     1.0000 0.08816  0.92628  0.26113  Biso   1.000  C
  H162     1.0000 0.22749  0.90960  0.32352  Biso   1.000  H
  O54      1.0000 0.97899  0.86006  0.26325  Biso   1.000  O
  N110     1.0000 0.00533  0.90719  0.25484  Biso   1.000  N
  O55      1.0000 0.96598  0.97131  0.94291  Biso   1.000  O
  N111     1.0000 0.93719  0.95879  0.10045  Biso   1.000  N
  H163     1.0000 0.84847  0.96780  0.20825  Biso   1.000  H
  C167     1.0000 0.90587  0.91527  0.27474  Biso   1.000  C
  N112     1.0000 0.09788  0.94232  0.17373  Biso   1.000  N
  O56      1.0000 0.21297  0.94905  0.06205  Biso   1.000  O
  H164     1.0000 0.08985  0.93831  0.32074  Biso   1.000  H
  C168     1.0000 0.03533  0.96595  0.14696  Biso   1.000  C
  H165     1.0000 0.87215  0.89901  0.30143  Biso   1.000  H
  H166     1.0000 0.91107  0.92989  0.32572  Biso   1.000  H
  H167     1.0000 0.02666  0.97701  0.20650  Biso   1.000  H
  H168     1.0000 0.06986  0.97790  0.10191  Biso   1.000  H
  Ne1      1.0000 0.03725  0.12920  0.11478  Biso   1.000  Ne
  He1      1.0000 0.92973  0.08482  0.24011  Biso   1.000  He
  He2      1.0000 0.14955  0.17487  0.00231  Biso   1.000  He
  Ar1      1.0000 0.04424  0.13156  0.11509  Biso   1.000  Ar
  Ne2      1.0000 0.03725  0.37080  0.61479  Biso   1.000  Ne
  He3      1.0000 0.92989  0.41509  0.73983  Biso   1.000  He
  He4      1.0000 0.15262  0.32394  0.49915  Biso   1.000  He
  Ar2      1.0000 0.04424  0.36845  0.61509  Biso   1.000  Ar
  Ne3      1.0000 0.96271  0.62920  0.38521  Biso   1.000  Ne
  He5      1.0000 0.84592  0.67662  0.50235  Biso   1.000  He
  He6      1.0000 0.07280  0.58382  0.25753  Biso   1.000  He
  Ar3      1.0000 0.95572  0.63156  0.38490  Biso   1.000  Ar
  Ne4      1.0000 0.96271  0.87080  0.88522  Biso   1.000  Ne
  He7      1.0000 0.84303  0.82226  0.00535  Biso   1.000  He
  He8      1.0000 0.07410  0.91670  0.75631  Biso   1.000  He
  Ar4      1.0000 0.95569  0.86844  0.88493  Biso   1.000  Ar
