data_image0
_cell_length_a       14.491
_cell_length_b       25.126
_cell_length_c       21.749
_cell_angle_alpha    90
_cell_angle_beta     100.2
_cell_angle_gamma    90

_symmetry_space_group_name_H-M    "P 1"
_symmetry_int_tables_number       1

loop_
  _symmetry_equiv_pos_as_xyz
  'x, y, z'

loop_
  _atom_site_label
  _atom_site_occupancy
  _atom_site_fract_x
  _atom_site_fract_y
  _atom_site_fract_z
  _atom_site_thermal_displace_type
  _atom_site_B_iso_or_equiv
  _atom_site_type_symbol
  C1       1.0000 0.58947  0.48472  0.43569  Biso   1.000  C
  C2       1.0000 0.51240  0.44412  0.42742  Biso   1.000  C
  C3       1.0000 0.65907  0.47369  0.49530  Biso   1.000  C
  H1       1.0000 0.56249  0.52070  0.43779  Biso   1.000  H
  H2       1.0000 0.62222  0.48352  0.39948  Biso   1.000  H
  C4       1.0000 0.55109  0.38761  0.42709  Biso   1.000  C
  H3       1.0000 0.46922  0.45089  0.38752  Biso   1.000  H
  H4       1.0000 0.47620  0.44758  0.46180  Biso   1.000  H
  C5       1.0000 0.69978  0.41781  0.49581  Biso   1.000  C
  H5       1.0000 0.62729  0.47799  0.53178  Biso   1.000  H
  H6       1.0000 0.71072  0.50012  0.49932  Biso   1.000  H
  C6       1.0000 0.62150  0.37690  0.48558  Biso   1.000  C
  H7       1.0000 0.49889  0.36170  0.42410  Biso   1.000  H
  H8       1.0000 0.58142  0.38279  0.39009  Biso   1.000  H
  H9       1.0000 0.73783  0.41459  0.46241  Biso   1.000  H
  H10      1.0000 0.74128  0.41109  0.53641  Biso   1.000  H
  N1       1.0000 0.66287  0.32249  0.48441  Biso   1.000  N
  H11      1.0000 0.58799  0.37869  0.52202  Biso   1.000  H
  H12      1.0000 0.71260  0.31851  0.52169  Biso   1.000  H
  H13      1.0000 0.69298  0.31959  0.44709  Biso   1.000  H
  C7       1.0000 0.59442  0.27708  0.48339  Biso   1.000  C
  C8       1.0000 0.64612  0.22650  0.50371  Biso   1.000  C
  H14      1.0000 0.54977  0.28508  0.51170  Biso   1.000  H
  H15      1.0000 0.55820  0.27271  0.44059  Biso   1.000  H
  C9       1.0000 0.68921  0.19721  0.46250  Biso   1.000  C
  C10      1.0000 0.65358  0.20911  0.56500  Biso   1.000  C
  O1       1.0000 0.68147  0.21611  0.40172  Biso   1.000  O
  C11      1.0000 0.74238  0.15179  0.48161  Biso   1.000  C
  O2       1.0000 0.61111  0.24055  0.60331  Biso   1.000  O
  C12      1.0000 0.70017  0.16250  0.58579  Biso   1.000  C
  H16      1.0000 0.64983  0.19462  0.37692  Biso   1.000  H
  C13      1.0000 0.74453  0.13552  0.54342  Biso   1.000  C
  C14      1.0000 0.79740  0.12441  0.43779  Biso   1.000  C
  H17      1.0000 0.63540  0.23482  0.64068  Biso   1.000  H
  C15      1.0000 0.70058  0.14149  0.65199  Biso   1.000  C
  H18      1.0000 0.77807  0.10400  0.55720  Biso   1.000  H
  C16      1.0000 0.89360  0.15008  0.44092  Biso   1.000  C
  H19      1.0000 0.76233  0.13130  0.39462  Biso   1.000  H
  C17      1.0000 0.80183  0.06400  0.44512  Biso   1.000  C
  H20      1.0000 0.64042  0.15351  0.66400  Biso   1.000  H
  C18      1.0000 0.70121  0.08099  0.65591  Biso   1.000  C
  C19      1.0000 0.77962  0.16620  0.69959  Biso   1.000  C
  C20      1.0000 0.91013  0.18821  0.39822  Biso   1.000  C
  C21      1.0000 0.97000  0.13711  0.48820  Biso   1.000  C
  H21      1.0000 0.83172  0.04860  0.41219  Biso   1.000  H
  H22      1.0000 0.73822  0.04979  0.44181  Biso   1.000  H
  H23      1.0000 0.83846  0.05488  0.48610  Biso   1.000  H
  H24      1.0000 0.64770  0.06670  0.62648  Biso   1.000  H
  H25      1.0000 0.69657  0.06989  0.69843  Biso   1.000  H
  H26      1.0000 0.75962  0.06730  0.64512  Biso   1.000  H
  C22      1.0000 0.76239  0.20700  0.74019  Biso   1.000  C
  C23      1.0000 0.86996  0.14710  0.70511  Biso   1.000  C
  O3       1.0000 0.84158  0.20540  0.34982  Biso   1.000  O
  C24      1.0000 0.99894  0.20990  0.39743  Biso   1.000  C
  H27      1.0000 0.96040  0.11219  0.51931  Biso   1.000  H
  C25      1.0000 0.05836  0.15900  0.49142  Biso   1.000  C
  O4       1.0000 0.67158  0.22610  0.73318  Biso   1.000  O
  C26      1.0000 0.83372  0.22682  0.78630  Biso   1.000  C
  C27      1.0000 0.94492  0.16608  0.74982  Biso   1.000  C
  H28      1.0000 0.88220  0.11980  0.67740  Biso   1.000  H
  H29      1.0000 0.79128  0.21030  0.36309  Biso   1.000  H
  C28      1.0000 0.07217  0.19609  0.44653  Biso   1.000  C
  C29      1.0000 0.01359  0.24242  0.34221  Biso   1.000  C
  C30      1.0000 0.14077  0.14312  0.54290  Biso   1.000  C
  H30      1.0000 0.67256  0.25949  0.73482  Biso   1.000  H
  C31      1.0000 0.92437  0.20700  0.78831  Biso   1.000  C
  C32      1.0000 0.81651  0.26260  0.83839  Biso   1.000  C
  C33      1.0000 0.04136  0.14149  0.75668  Biso   1.000  C
  O5       1.0000 0.16102  0.21687  0.44980  Biso   1.000  O
  N2       1.0000 0.97729  0.29790  0.34221  Biso   1.000  N
  H31      1.0000 0.98229  0.22439  0.30362  Biso   1.000  H
  H32      1.0000 0.08148  0.24381  0.34108  Biso   1.000  H
  C34      1.0000 0.13606  0.16959  0.60541  Biso   1.000  C
  H33      1.0000 0.19849  0.15729  0.52950  Biso   1.000  H
  C35      1.0000 0.15388  0.08278  0.54809  Biso   1.000  C
  O6       1.0000 0.99132  0.22909  0.83456  Biso   1.000  O
  N3       1.0000 0.85467  0.31760  0.83400  Biso   1.000  N
  H34      1.0000 0.74810  0.26490  0.83778  Biso   1.000  H
  H35      1.0000 0.84581  0.24660  0.87880  Biso   1.000  H
  H36      1.0000 0.07586  0.15172  0.79901  Biso   1.000  H
  C36      1.0000 0.03700  0.08059  0.75509  Biso   1.000  C
  C37      1.0000 0.09449  0.16588  0.70940  Biso   1.000  C
  H37      1.0000 0.15719  0.24918  0.43980  Biso   1.000  H
  H38      1.0000 0.91129  0.29659  0.34833  Biso   1.000  H
  C38      1.0000 0.98194  0.32850  0.28362  Biso   1.000  C
  H39      1.0000 0.01381  0.31720  0.37808  Biso   1.000  H
  C39      1.0000 0.17771  0.21850  0.62008  Biso   1.000  C
  C40      1.0000 0.09406  0.14479  0.65040  Biso   1.000  C
  H40      1.0000 0.09508  0.06611  0.55430  Biso   1.000  H
  H41      1.0000 0.20348  0.07450  0.58359  Biso   1.000  H
  H42      1.0000 0.17160  0.06909  0.50959  Biso   1.000  H
  H43      1.0000 0.04109  0.23410  0.82059  Biso   1.000  H
  H44      1.0000 0.81791  0.33571  0.79719  Biso   1.000  H
  H45      1.0000 0.92029  0.31501  0.82723  Biso   1.000  H
  C41      1.0000 0.85246  0.35171  0.89160  Biso   1.000  C
  H46      1.0000 0.00427  0.06881  0.71398  Biso   1.000  H
  H47      1.0000 0.00332  0.06782  0.78752  Biso   1.000  H
  H48      1.0000 0.10086  0.06611  0.76271  Biso   1.000  H
  C42      1.0000 0.14491  0.21289  0.72361  Biso   1.000  C
  C43      1.0000 0.96422  0.38749  0.29381  Biso   1.000  C
  C44      1.0000 0.91114  0.30689  0.22882  Biso   1.000  C
  H49      1.0000 0.04626  0.32448  0.27348  Biso   1.000  H
  O7       1.0000 0.21747  0.24783  0.57832  Biso   1.000  O
  C45      1.0000 0.18500  0.24011  0.67969  Biso   1.000  C
  H50      1.0000 0.06349  0.11172  0.64031  Biso   1.000  H
  H51      1.0000 0.78870  0.34900  0.90282  Biso   1.000  H
  C46      1.0000 0.87018  0.40882  0.87651  Biso   1.000  C
  C47      1.0000 0.92430  0.33201  0.94668  Biso   1.000  C
  O8       1.0000 0.15311  0.23561  0.78275  Biso   1.000  O
  H52      1.0000 0.90149  0.39218  0.30521  Biso   1.000  H
  C48      1.0000 0.96945  0.41809  0.23452  Biso   1.000  C
  H53      1.0000 0.01182  0.40130  0.32852  Biso   1.000  H
  C49      1.0000 0.91391  0.33901  0.16940  Biso   1.000  C
  H54      1.0000 0.84730  0.30868  0.23919  Biso   1.000  H
  H55      1.0000 0.92540  0.26908  0.22172  Biso   1.000  H
  H56      1.0000 0.19892  0.23621  0.54202  Biso   1.000  H
  C50      1.0000 0.23747  0.29169  0.69642  Biso   1.000  C
  H57      1.0000 0.82118  0.42100  0.84171  Biso   1.000  H
  H58      1.0000 0.93167  0.41188  0.86301  Biso   1.000  H
  C51      1.0000 0.86932  0.44392  0.93351  Biso   1.000  C
  H59      1.0000 0.98736  0.33209  0.93519  Biso   1.000  H
  H60      1.0000 0.90910  0.29499  0.95701  Biso   1.000  H
  C52      1.0000 0.92443  0.36759  0.00349  Biso   1.000  C
  H61      1.0000 0.18567  0.21579  0.80919  Biso   1.000  H
  H62      1.0000 0.95682  0.45622  0.24102  Biso   1.000  H
  C53      1.0000 0.89934  0.39732  0.17949  Biso   1.000  C
  H63      1.0000 0.03348  0.41511  0.22490  Biso   1.000  H
  H64      1.0000 0.97530  0.33360  0.15632  Biso   1.000  H
  H65      1.0000 0.86450  0.32592  0.13539  Biso   1.000  H
  N4       1.0000 0.17049  0.33730  0.69520  Biso   1.000  N
  H66      1.0000 0.27622  0.28870  0.73860  Biso   1.000  H
  H67      1.0000 0.27998  0.29850  0.66628  Biso   1.000  H
  H68      1.0000 0.80620  0.44289  0.94500  Biso   1.000  H
  H69      1.0000 0.88279  0.48110  0.92318  Biso   1.000  H
  C54      1.0000 0.94186  0.42522  0.98859  Biso   1.000  C
  H70      1.0000 0.86325  0.36460  0.01737  Biso   1.000  H
  H71      1.0000 0.97375  0.35541  0.03797  Biso   1.000  H
  H72      1.0000 0.83488  0.40321  0.18752  Biso   1.000  H
  H73      1.0000 0.90619  0.41730  0.14141  Biso   1.000  H
  H74      1.0000 0.11898  0.33268  0.65900  Biso   1.000  H
  H75      1.0000 0.14251  0.33591  0.73351  Biso   1.000  H
  C55      1.0000 0.21326  0.39111  0.69100  Biso   1.000  C
  H76      1.0000 0.93830  0.44758  0.02559  Biso   1.000  H
  H77      1.0000 0.00549  0.42892  0.97850  Biso   1.000  H
  H78      1.0000 0.24881  0.39079  0.65549  Biso   1.000  H
  C56      1.0000 0.28067  0.40500  0.75042  Biso   1.000  C
  C57      1.0000 0.13267  0.43202  0.67600  Biso   1.000  C
  H79      1.0000 0.33388  0.37969  0.75640  Biso   1.000  H
  H80      1.0000 0.24829  0.40162  0.78672  Biso   1.000  H
  C58      1.0000 0.31768  0.46171  0.74739  Biso   1.000  C
  C59      1.0000 0.17258  0.48730  0.67268  Biso   1.000  C
  H81      1.0000 0.09260  0.42299  0.63559  Biso   1.000  H
  H82      1.0000 0.09338  0.43079  0.70889  Biso   1.000  H
  H83      1.0000 0.35825  0.47071  0.78761  Biso   1.000  H
  H84      1.0000 0.35611  0.46402  0.71412  Biso   1.000  H
  C60      1.0000 0.23806  0.50111  0.73421  Biso   1.000  C
  H85      1.0000 0.12079  0.51349  0.66479  Biso   1.000  H
  H86      1.0000 0.20779  0.48929  0.63769  Biso   1.000  H
  H87      1.0000 0.26368  0.53741  0.73141  Biso   1.000  H
  H88      1.0000 0.20216  0.50060  0.76892  Biso   1.000  H
  C61      1.0000 0.41049  0.51532  0.56430  Biso   1.000  C
  C62      1.0000 0.34089  0.52631  0.50469  Biso   1.000  C
  C63      1.0000 0.48757  0.55592  0.57262  Biso   1.000  C
  H89      1.0000 0.43746  0.47930  0.56220  Biso   1.000  H
  H90      1.0000 0.37781  0.51652  0.60051  Biso   1.000  H
  C64      1.0000 0.30018  0.58219  0.50422  Biso   1.000  C
  H91      1.0000 0.37266  0.52201  0.46820  Biso   1.000  H
  H92      1.0000 0.28932  0.49992  0.50072  Biso   1.000  H
  C65      1.0000 0.44886  0.61239  0.57290  Biso   1.000  C
  H93      1.0000 0.53082  0.54911  0.61251  Biso   1.000  H
  H94      1.0000 0.52376  0.55242  0.53819  Biso   1.000  H
  C66      1.0000 0.37852  0.62310  0.51441  Biso   1.000  C
  H95      1.0000 0.26221  0.58541  0.53762  Biso   1.000  H
  H96      1.0000 0.25869  0.58891  0.46362  Biso   1.000  H
  H97      1.0000 0.50107  0.63830  0.57589  Biso   1.000  H
  H98      1.0000 0.41860  0.61721  0.60990  Biso   1.000  H
  N5       1.0000 0.33710  0.67751  0.51562  Biso   1.000  N
  H99      1.0000 0.41198  0.62131  0.47801  Biso   1.000  H
  C67      1.0000 0.40561  0.72292  0.51660  Biso   1.000  C
  H100     1.0000 0.28736  0.68153  0.47829  Biso   1.000  H
  H101     1.0000 0.30698  0.68041  0.55290  Biso   1.000  H
  C68      1.0000 0.35390  0.77350  0.49628  Biso   1.000  C
  H102     1.0000 0.45018  0.71492  0.48829  Biso   1.000  H
  H103     1.0000 0.44182  0.72729  0.55939  Biso   1.000  H
  C69      1.0000 0.34637  0.79089  0.43499  Biso   1.000  C
  C70      1.0000 0.31082  0.80279  0.53748  Biso   1.000  C
  C71      1.0000 0.29979  0.83750  0.41420  Biso   1.000  C
  O9       1.0000 0.38893  0.75949  0.39672  Biso   1.000  O
  C72      1.0000 0.25759  0.84821  0.51842  Biso   1.000  C
  O10      1.0000 0.31850  0.78389  0.59831  Biso   1.000  O
  C73      1.0000 0.29938  0.85851  0.34800  Biso   1.000  C
  C74      1.0000 0.25551  0.86452  0.45662  Biso   1.000  C
  H104     1.0000 0.36463  0.76522  0.35930  Biso   1.000  H
  C75      1.0000 0.20256  0.87563  0.56220  Biso   1.000  C
  H105     1.0000 0.35021  0.80542  0.62312  Biso   1.000  H
  C76      1.0000 0.22041  0.83380  0.30039  Biso   1.000  C
  H106     1.0000 0.35961  0.84649  0.33599  Biso   1.000  H
  C77      1.0000 0.29883  0.91901  0.34412  Biso   1.000  C
  H107     1.0000 0.22189  0.89600  0.44279  Biso   1.000  H
  C78      1.0000 0.10637  0.84992  0.55911  Biso   1.000  C
  H108     1.0000 0.23771  0.86870  0.60541  Biso   1.000  H
  C79      1.0000 0.19821  0.93600  0.55491  Biso   1.000  C
  C80      1.0000 0.23757  0.79300  0.25980  Biso   1.000  C
  C81      1.0000 0.12999  0.85290  0.29488  Biso   1.000  C
  H109     1.0000 0.35232  0.93330  0.37351  Biso   1.000  H
  H110     1.0000 0.30340  0.93011  0.30161  Biso   1.000  H
  H111     1.0000 0.24042  0.93270  0.35491  Biso   1.000  H
  C82      1.0000 0.08991  0.81179  0.60181  Biso   1.000  C
  C83      1.0000 0.02996  0.86289  0.51179  Biso   1.000  C
  H112     1.0000 0.16830  0.95140  0.58780  Biso   1.000  H
  H113     1.0000 0.26180  0.95021  0.55818  Biso   1.000  H
  H114     1.0000 0.16149  0.94512  0.51389  Biso   1.000  H
  C84      1.0000 0.16631  0.77322  0.21369  Biso   1.000  C
  O11      1.0000 0.32838  0.77390  0.26680  Biso   1.000  O
  C85      1.0000 0.05512  0.83392  0.25022  Biso   1.000  C
  H115     1.0000 0.11776  0.88020  0.32258  Biso   1.000  H
  O12      1.0000 0.15839  0.79464  0.65021  Biso   1.000  O
  C86      1.0000 0.00110  0.79010  0.60261  Biso   1.000  C
  C87      1.0000 0.94161  0.84100  0.50861  Biso   1.000  C
  H116     1.0000 0.03957  0.88781  0.48072  Biso   1.000  H
  C88      1.0000 0.18352  0.73740  0.16160  Biso   1.000  C
  C89      1.0000 0.07559  0.79300  0.21172  Biso   1.000  C
  H117     1.0000 0.32741  0.74051  0.26522  Biso   1.000  H
  C90      1.0000 0.95860  0.85851  0.24330  Biso   1.000  C
  H118     1.0000 0.20868  0.78970  0.63690  Biso   1.000  H
  C91      1.0000 0.92780  0.80391  0.55351  Biso   1.000  C
  C92      1.0000 0.98636  0.75762  0.65778  Biso   1.000  C
  C93      1.0000 0.85918  0.85692  0.45708  Biso   1.000  C
  N6       1.0000 0.14528  0.68240  0.16599  Biso   1.000  N
  H119     1.0000 0.25193  0.73510  0.16220  Biso   1.000  H
  H120     1.0000 0.15422  0.75340  0.12119  Biso   1.000  H
  O13      1.0000 0.00872  0.77091  0.16547  Biso   1.000  O
  H121     1.0000 0.92409  0.84832  0.20098  Biso   1.000  H
  C94      1.0000 0.96302  0.91941  0.24489  Biso   1.000  C
  C95      1.0000 0.90547  0.83412  0.29058  Biso   1.000  C
  O14      1.0000 0.83900  0.78313  0.55019  Biso   1.000  O
  N7       1.0000 0.02266  0.70210  0.65778  Biso   1.000  N
  H122     1.0000 0.01768  0.77561  0.69642  Biso   1.000  H
  H123     1.0000 0.91848  0.75619  0.65890  Biso   1.000  H
  C96      1.0000 0.86391  0.83041  0.39462  Biso   1.000  C
  H124     1.0000 0.80147  0.84271  0.47049  Biso   1.000  H
  C97      1.0000 0.84607  0.91722  0.45190  Biso   1.000  C
  C98      1.0000 0.14750  0.64829  0.10838  Biso   1.000  C
  H125     1.0000 0.18212  0.66429  0.20280  Biso   1.000  H
  H126     1.0000 0.07967  0.68499  0.17281  Biso   1.000  H
  H127     1.0000 0.95893  0.76590  0.17940  Biso   1.000  H
  H128     1.0000 0.99569  0.93123  0.28600  Biso   1.000  H
  H129     1.0000 0.99672  0.93222  0.21252  Biso   1.000  H
  H130     1.0000 0.89911  0.93389  0.23732  Biso   1.000  H
  C99      1.0000 0.85511  0.78711  0.27638  Biso   1.000  C
  C100     1.0000 0.90590  0.85521  0.34959  Biso   1.000  C
  H131     1.0000 0.84277  0.75082  0.56019  Biso   1.000  H
  H132     1.0000 0.08868  0.70341  0.65171  Biso   1.000  H
  C101     1.0000 0.01809  0.67150  0.71641  Biso   1.000  C
  H133     1.0000 0.98621  0.68280  0.62190  Biso   1.000  H
  C102     1.0000 0.82232  0.78150  0.37991  Biso   1.000  C
  H134     1.0000 0.90487  0.93389  0.44568  Biso   1.000  H
  H135     1.0000 0.79647  0.92550  0.41639  Biso   1.000  H
  H136     1.0000 0.82843  0.93091  0.49039  Biso   1.000  H
  C103     1.0000 0.12979  0.59122  0.12352  Biso   1.000  C
  H137     1.0000 0.21133  0.65100  0.09722  Biso   1.000  H
  C104     1.0000 0.07572  0.66799  0.05330  Biso   1.000  C
  O15      1.0000 0.84692  0.76439  0.21724  Biso   1.000  O
  C105     1.0000 0.81503  0.75989  0.32029  Biso   1.000  C
  H138     1.0000 0.93654  0.88832  0.35972  Biso   1.000  H
  C106     1.0000 0.03580  0.61251  0.70618  Biso   1.000  C
  C107     1.0000 0.08890  0.69311  0.77121  Biso   1.000  C
  H139     1.0000 0.95370  0.67552  0.72650  Biso   1.000  H
  O16      1.0000 0.78250  0.75217  0.42172  Biso   1.000  O
  C108     1.0000 0.13070  0.55612  0.06648  Biso   1.000  C
  H140     1.0000 0.17877  0.57900  0.15828  Biso   1.000  H
  H141     1.0000 0.06830  0.58812  0.13702  Biso   1.000  H
  C109     1.0000 0.07553  0.63241  0.99650  Biso   1.000  C
  H142     1.0000 0.01260  0.66791  0.06480  Biso   1.000  H
  H143     1.0000 0.09092  0.70501  0.04298  Biso   1.000  H
  H144     1.0000 0.81429  0.78421  0.19079  Biso   1.000  H
  C110     1.0000 0.76250  0.70831  0.30362  Biso   1.000  C
  H145     1.0000 0.09847  0.60782  0.69478  Biso   1.000  H
  C111     1.0000 0.03059  0.58191  0.76551  Biso   1.000  C
  H146     1.0000 0.98822  0.59870  0.67152  Biso   1.000  H
  C112     1.0000 0.08605  0.66099  0.83059  Biso   1.000  C
  H147     1.0000 0.15266  0.69132  0.76079  Biso   1.000  H
  H148     1.0000 0.07457  0.73092  0.77831  Biso   1.000  H
  H149     1.0000 0.80112  0.76379  0.45802  Biso   1.000  H
  H150     1.0000 0.19383  0.55711  0.05499  Biso   1.000  H
  H151     1.0000 0.11723  0.51890  0.07680  Biso   1.000  H
  C113     1.0000 0.05810  0.57482  0.01140  Biso   1.000  C
  H152     1.0000 0.13678  0.63540  0.98262  Biso   1.000  H
  H153     1.0000 0.02627  0.64459  0.96202  Biso   1.000  H
  N8       1.0000 0.82947  0.66270  0.30478  Biso   1.000  N
  H154     1.0000 0.72381  0.71130  0.26138  Biso   1.000  H
  H155     1.0000 0.71998  0.70150  0.33370  Biso   1.000  H
  H156     1.0000 0.04315  0.54382  0.75902  Biso   1.000  H
  C114     1.0000 0.10069  0.60272  0.82050  Biso   1.000  C
  H157     1.0000 0.96648  0.58489  0.77509  Biso   1.000  H
  H158     1.0000 0.02467  0.66640  0.84372  Biso   1.000  H
  H159     1.0000 0.13546  0.67412  0.86460  Biso   1.000  H
  H160     1.0000 0.99453  0.57112  0.02149  Biso   1.000  H
  H161     1.0000 0.06165  0.55242  0.97440  Biso   1.000  H
  H162     1.0000 0.88098  0.66732  0.34099  Biso   1.000  H
  H163     1.0000 0.85753  0.66409  0.26652  Biso   1.000  H
  C115     1.0000 0.78670  0.60889  0.30899  Biso   1.000  C
  H164     1.0000 0.16509  0.59679  0.81251  Biso   1.000  H
  H165     1.0000 0.09378  0.58270  0.85862  Biso   1.000  H
  H166     1.0000 0.75121  0.60921  0.34449  Biso   1.000  H
  C116     1.0000 0.71930  0.59500  0.24961  Biso   1.000  C
  C117     1.0000 0.86728  0.56802  0.32399  Biso   1.000  C
  H167     1.0000 0.66608  0.62031  0.24358  Biso   1.000  H
  H168     1.0000 0.75168  0.59842  0.21331  Biso   1.000  H
  C118     1.0000 0.68228  0.53829  0.25260  Biso   1.000  C
  C119     1.0000 0.82738  0.51270  0.32730  Biso   1.000  C
  H169     1.0000 0.90742  0.57701  0.36440  Biso   1.000  H
  H170     1.0000 0.90657  0.56921  0.29110  Biso   1.000  H
  H171     1.0000 0.64172  0.52929  0.21242  Biso   1.000  H
  H172     1.0000 0.64393  0.53602  0.28591  Biso   1.000  H
  C120     1.0000 0.76191  0.49889  0.26582  Biso   1.000  C
  H173     1.0000 0.87923  0.48651  0.33520  Biso   1.000  H
  H174     1.0000 0.79217  0.51071  0.36229  Biso   1.000  H
  H175     1.0000 0.73628  0.46259  0.26858  Biso   1.000  H
  H176     1.0000 0.79781  0.49940  0.23111  Biso   1.000  H
  C121     1.0000 0.53699  0.41941  0.25512  Biso   1.000  C
  C122     1.0000 0.54142  0.35851  0.25671  Biso   1.000  C
  H177     1.0000 0.50433  0.43119  0.21401  Biso   1.000  H
  H178     1.0000 0.50330  0.43222  0.28750  Biso   1.000  H
  H179     1.0000 0.60091  0.43389  0.26269  Biso   1.000  H
  C123     1.0000 0.44490  0.33392  0.24980  Biso   1.000  C
  H180     1.0000 0.57591  0.34828  0.29899  Biso   1.000  H
  C124     1.0000 0.59447  0.33412  0.20939  Biso   1.000  C
  C125     1.0000 0.37001  0.35290  0.20509  Biso   1.000  C
  C126     1.0000 0.42442  0.29300  0.28829  Biso   1.000  C
  C127     1.0000 0.64489  0.28711  0.22359  Biso   1.000  C
  C128     1.0000 0.59411  0.35521  0.15038  Biso   1.000  C
  C129     1.0000 0.27961  0.33380  0.19962  Biso   1.000  C
  H181     1.0000 0.38218  0.38020  0.17739  Biso   1.000  H
  C130     1.0000 0.33370  0.27318  0.28628  Biso   1.000  C
  O17      1.0000 0.49130  0.27091  0.33454  Biso   1.000  O
  O18      1.0000 0.65310  0.26439  0.28278  Biso   1.000  O
  C131     1.0000 0.68499  0.25989  0.17972  Biso   1.000  C
  C132     1.0000 0.63611  0.33041  0.10539  Biso   1.000  C
  H182     1.0000 0.56348  0.38832  0.14029  Biso   1.000  H
  C133     1.0000 0.26238  0.29300  0.24022  Biso   1.000  C
  C134     1.0000 0.20057  0.35851  0.15202  Biso   1.000  C
  C135     1.0000 0.31650  0.23740  0.33842  Biso   1.000  C
  H183     1.0000 0.54108  0.26590  0.32062  Biso   1.000  H
  H184     1.0000 0.68573  0.28421  0.30922  Biso   1.000  H
  C136     1.0000 0.67770  0.28150  0.12011  Biso   1.000  C
  C137     1.0000 0.73752  0.20831  0.19640  Biso   1.000  C
  C138     1.0000 0.64082  0.35692  0.04289  Biso   1.000  C
  O19      1.0000 0.17157  0.27390  0.23321  Biso   1.000  O
  C139     1.0000 0.20023  0.33750  0.08582  Biso   1.000  C
  H185     1.0000 0.14040  0.34649  0.16398  Biso   1.000  H
  C140     1.0000 0.20119  0.41901  0.15590  Biso   1.000  C
  N9       1.0000 0.35472  0.18240  0.33398  Biso   1.000  N
  H186     1.0000 0.24809  0.23510  0.33781  Biso   1.000  H
  H187     1.0000 0.34579  0.25340  0.37879  Biso   1.000  H
  O20      1.0000 0.71752  0.25217  0.07830  Biso   1.000  O
  N10      1.0000 0.67047  0.16270  0.19519  Biso   1.000  N
  H188     1.0000 0.77620  0.21130  0.23859  Biso   1.000  H
  H189     1.0000 0.78004  0.20150  0.16631  Biso   1.000  H
  C141     1.0000 0.55834  0.34100  0.99140  Biso   1.000  C
  H190     1.0000 0.69847  0.34271  0.02948  Biso   1.000  H
  C142     1.0000 0.65395  0.41722  0.04812  Biso   1.000  C
  H191     1.0000 0.17261  0.24051  0.23480  Biso   1.000  H
  C143     1.0000 0.15356  0.29089  0.06498  Biso   1.000  C
  C144     1.0000 0.24451  0.36448  0.04340  Biso   1.000  C
  H192     1.0000 0.14769  0.43330  0.12651  Biso   1.000  H
  H193     1.0000 0.19662  0.43011  0.19841  Biso   1.000  H
  H194     1.0000 0.25960  0.43270  0.14510  Biso   1.000  H
  H195     1.0000 0.31790  0.16429  0.29722  Biso   1.000  H
  H196     1.0000 0.42028  0.18499  0.32721  Biso   1.000  H
  C145     1.0000 0.35251  0.14829  0.39159  Biso   1.000  C
  H197     1.0000 0.69890  0.26379  0.04200  Biso   1.000  H
  H198     1.0000 0.61903  0.16732  0.15898  Biso   1.000  H
  H199     1.0000 0.64249  0.16409  0.23349  Biso   1.000  H
  C146     1.0000 0.71331  0.10889  0.19098  Biso   1.000  C
  C147     1.0000 0.46992  0.36289  0.98823  Biso   1.000  C
  C148     1.0000 0.57215  0.30391  0.94651  Biso   1.000  C
  H200     1.0000 0.59513  0.43389  0.05429  Biso   1.000  H
  H201     1.0000 0.70353  0.42550  0.08358  Biso   1.000  H
  H202     1.0000 0.67158  0.43091  0.00958  Biso   1.000  H
  O21      1.0000 0.11109  0.25945  0.10329  Biso   1.000  O
  C149     1.0000 0.14611  0.27350  0.00369  Biso   1.000  C
  H203     1.0000 0.27812  0.39600  0.05718  Biso   1.000  H
  C150     1.0000 0.24238  0.34821  0.98164  Biso   1.000  C
  H204     1.0000 0.28869  0.15100  0.40280  Biso   1.000  H
  C151     1.0000 0.37016  0.09122  0.37650  Biso   1.000  C
  C152     1.0000 0.42430  0.16799  0.44671  Biso   1.000  C
  H205     1.0000 0.74881  0.10921  0.15552  Biso   1.000  H
  C153     1.0000 0.78072  0.09500  0.25041  Biso   1.000  C
  C154     1.0000 0.63272  0.06802  0.17598  Biso   1.000  C
  C155     1.0000 0.39358  0.34992  0.94090  Biso   1.000  C
  H206     1.0000 0.46038  0.38781  0.01929  Biso   1.000  H
  C156     1.0000 0.49885  0.29010  0.89741  Biso   1.000  C
  O22      1.0000 0.66095  0.28313  0.94983  Biso   1.000  O
  H207     1.0000 0.13539  0.26518  0.14071  Biso   1.000  H
  C157     1.0000 0.18913  0.30279  0.96253  Biso   1.000  C
  C158     1.0000 0.09434  0.22292  0.98342  Biso   1.000  C
  C159     1.0000 0.29732  0.37559  0.93782  Biso   1.000  C
  H208     1.0000 0.32116  0.07900  0.34169  Biso   1.000  H
  H209     1.0000 0.43172  0.08812  0.36299  Biso   1.000  H
  C160     1.0000 0.36930  0.05612  0.43349  Biso   1.000  C
  C161     1.0000 0.42442  0.13241  0.50352  Biso   1.000  C
  H210     1.0000 0.48742  0.16791  0.43522  Biso   1.000  H
  H211     1.0000 0.40909  0.20501  0.45699  Biso   1.000  H
  H212     1.0000 0.83393  0.12031  0.25639  Biso   1.000  H
  H213     1.0000 0.74827  0.09838  0.28671  Biso   1.000  H
  C162     1.0000 0.81774  0.03829  0.24742  Biso   1.000  C
  C163     1.0000 0.67264  0.01270  0.17271  Biso   1.000  C
  H214     1.0000 0.59260  0.07701  0.13562  Biso   1.000  H
  H215     1.0000 0.59338  0.06921  0.20892  Biso   1.000  H
  C164     1.0000 0.41004  0.31179  0.89820  Biso   1.000  C
  C165     1.0000 0.51359  0.25762  0.84224  Biso   1.000  C
  H216     1.0000 0.65718  0.25082  0.93983  Biso   1.000  H
  O23      1.0000 0.18145  0.28389  0.90171  Biso   1.000  O
  H217     1.0000 0.04982  0.21492  0.01168  Biso   1.000  H
  N11      1.0000 0.16285  0.17751  0.98440  Biso   1.000  N
  H218     1.0000 0.05813  0.22729  0.94062  Biso   1.000  H
  H219     1.0000 0.26224  0.36870  0.89461  Biso   1.000  H
  C166     1.0000 0.30174  0.43600  0.94511  Biso   1.000  C
  H220     1.0000 0.30618  0.05711  0.44498  Biso   1.000  H
  H221     1.0000 0.38279  0.01890  0.42321  Biso   1.000  H
  C167     1.0000 0.44192  0.07478  0.48862  Biso   1.000  C
  H222     1.0000 0.36317  0.13540  0.51740  Biso   1.000  H
  H223     1.0000 0.47368  0.14459  0.53800  Biso   1.000  H
  H224     1.0000 0.85830  0.02929  0.28759  Biso   1.000  H
  H225     1.0000 0.85609  0.03602  0.21411  Biso   1.000  H
  C168     1.0000 0.73811  0.99893  0.23419  Biso   1.000  C
  H226     1.0000 0.70778  0.01071  0.13772  Biso   1.000  H
  H227     1.0000 0.62078  0.98651  0.16482  Biso   1.000  H
  O24      1.0000 0.34157  0.29460  0.84985  Biso   1.000  O
  N12      1.0000 0.47729  0.20210  0.84224  Biso   1.000  N
  H228     1.0000 0.58147  0.25619  0.84111  Biso   1.000  H
  H229     1.0000 0.48227  0.27561  0.80360  Biso   1.000  H
  H230     1.0000 0.14974  0.30542  0.87690  Biso   1.000  H
  H231     1.0000 0.21258  0.18149  0.02168  Biso   1.000  H
  H232     1.0000 0.19297  0.18041  0.94712  Biso   1.000  H
  C169     1.0000 0.12143  0.12310  0.98561  Biso   1.000  C
  H233     1.0000 0.33165  0.45140  0.91222  Biso   1.000  H
  H234     1.0000 0.23815  0.45021  0.94184  Biso   1.000  H
  H235     1.0000 0.33846  0.44512  0.98612  Biso   1.000  H
  H236     1.0000 0.50547  0.07108  0.47848  Biso   1.000  H
  H237     1.0000 0.43830  0.05242  0.52562  Biso   1.000  H
  H238     1.0000 0.76373  0.96259  0.23139  Biso   1.000  H
  H239     1.0000 0.70221  0.99940  0.26891  Biso   1.000  H
  H240     1.0000 0.29127  0.28970  0.86312  Biso   1.000  H
  H241     1.0000 0.51374  0.18280  0.87811  Biso   1.000  H
  H242     1.0000 0.41127  0.20341  0.84831  Biso   1.000  H
  C170     1.0000 0.48186  0.17150  0.78360  Biso   1.000  C
  H243     1.0000 0.08797  0.12131  0.02200  Biso   1.000  H
  C171     1.0000 0.19977  0.08219  0.99580  Biso   1.000  C
  C172     1.0000 0.05102  0.11239  0.92712  Biso   1.000  C
  H244     1.0000 0.54625  0.17552  0.77351  Biso   1.000  H
  C173     1.0000 0.46415  0.11251  0.79384  Biso   1.000  C
  C174     1.0000 0.41105  0.19311  0.72881  Biso   1.000  C
  H245     1.0000 0.24133  0.08891  0.03639  Biso   1.000  H
  H246     1.0000 0.23776  0.08541  0.96244  Biso   1.000  H
  C175     1.0000 0.15906  0.02631  0.99533  Biso   1.000  C
  H247     1.0000 0.99888  0.13830  0.92413  Biso   1.000  H
  C176     1.0000 0.01238  0.05592  0.92740  Biso   1.000  C
  H248     1.0000 0.08135  0.11721  0.89012  Biso   1.000  H
  H249     1.0000 0.40148  0.10782  0.80523  Biso   1.000  H
  H250     1.0000 0.51173  0.09870  0.82850  Biso   1.000  H
  C177     1.0000 0.46936  0.08191  0.73450  Biso   1.000  C
  C178     1.0000 0.41383  0.16099  0.66943  Biso   1.000  C
  H251     1.0000 0.34729  0.19132  0.73922  Biso   1.000  H
  H252     1.0000 0.42538  0.23092  0.72170  Biso   1.000  H
  H253     1.0000 0.12729  0.02201  0.03181  Biso   1.000  H
  H254     1.0000 0.21063  0.99992  0.99930  Biso   1.000  H
  C179     1.0000 0.08946  0.01528  0.93572  Biso   1.000  C
  H255     1.0000 0.96913  0.04911  0.88750  Biso   1.000  H
  H256     1.0000 0.97619  0.05242  0.96183  Biso   1.000  H
  H257     1.0000 0.53347  0.08489  0.72493  Biso   1.000  H
  H258     1.0000 0.45673  0.04382  0.74100  Biso   1.000  H
  C180     1.0000 0.39926  0.10268  0.67952  Biso   1.000  C
  H259     1.0000 0.47528  0.16640  0.65630  Biso   1.000  H
  H260     1.0000 0.36449  0.17408  0.63542  Biso   1.000  H
  H261     1.0000 0.06242  0.97930  0.93782  Biso   1.000  H
  H262     1.0000 0.12214  0.01652  0.89951  Biso   1.000  H
  H263     1.0000 0.33486  0.09679  0.68751  Biso   1.000  H
  H264     1.0000 0.40617  0.08270  0.64140  Biso   1.000  H
  C181     1.0000 0.46297  0.58059  0.74491  Biso   1.000  C
  C182     1.0000 0.45862  0.64149  0.74332  Biso   1.000  C
  H265     1.0000 0.49571  0.56881  0.78602  Biso   1.000  H
  H266     1.0000 0.49666  0.56782  0.71249  Biso   1.000  H
  H267     1.0000 0.39905  0.56611  0.73730  Biso   1.000  H
  C183     1.0000 0.55505  0.66612  0.75019  Biso   1.000  C
  H268     1.0000 0.42411  0.65172  0.70100  Biso   1.000  H
  C184     1.0000 0.40549  0.66592  0.79060  Biso   1.000  C
  C185     1.0000 0.57560  0.70700  0.71169  Biso   1.000  C
  C186     1.0000 0.63001  0.64710  0.79490  Biso   1.000  C
  C187     1.0000 0.35506  0.71289  0.77640  Biso   1.000  C
  C188     1.0000 0.40585  0.64479  0.84960  Biso   1.000  C
  O25      1.0000 0.50865  0.72909  0.66544  Biso   1.000  O
  C189     1.0000 0.66626  0.72682  0.71370  Biso   1.000  C
  C190     1.0000 0.72036  0.66620  0.80041  Biso   1.000  C
  H269     1.0000 0.61778  0.61980  0.82260  Biso   1.000  H
  O26      1.0000 0.34687  0.73565  0.71725  Biso   1.000  O
  C191     1.0000 0.31498  0.74011  0.82031  Biso   1.000  C
  C192     1.0000 0.36391  0.66963  0.89459  Biso   1.000  C
  H270     1.0000 0.43648  0.61172  0.85969  Biso   1.000  H
  H271     1.0000 0.45888  0.73410  0.67941  Biso   1.000  H
  C193     1.0000 0.73759  0.70700  0.75981  Biso   1.000  C
  C194     1.0000 0.68347  0.76260  0.66161  Biso   1.000  C
  C195     1.0000 0.79940  0.64149  0.84802  Biso   1.000  C
  H272     1.0000 0.31431  0.71579  0.69081  Biso   1.000  H
  C196     1.0000 0.32227  0.71850  0.87992  Biso   1.000  C
  C197     1.0000 0.26250  0.79169  0.80359  Biso   1.000  C
  C198     1.0000 0.35920  0.64312  0.95710  Biso   1.000  C
  O27      1.0000 0.82840  0.72610  0.76682  Biso   1.000  O
  N13      1.0000 0.64530  0.81760  0.66600  Biso   1.000  N
  H273     1.0000 0.75188  0.76490  0.66222  Biso   1.000  H
  H274     1.0000 0.65417  0.74660  0.62120  Biso   1.000  H
  C199     1.0000 0.79981  0.66250  0.91421  Biso   1.000  C
  H275     1.0000 0.85962  0.65351  0.83601  Biso   1.000  H
  C200     1.0000 0.79877  0.58099  0.84409  Biso   1.000  C
  O28      1.0000 0.28251  0.74783  0.92169  Biso   1.000  O
  N14      1.0000 0.32949  0.83730  0.80480  Biso   1.000  N
  H276     1.0000 0.22376  0.78870  0.76140  Biso   1.000  H
  H277     1.0000 0.22000  0.79850  0.83372  Biso   1.000  H
  H278     1.0000 0.30149  0.65729  0.97051  Biso   1.000  H
  C201     1.0000 0.34609  0.58282  0.95192  Biso   1.000  C
  C202     1.0000 0.44162  0.65900  0.00858  Biso   1.000  C
  H279     1.0000 0.82741  0.75949  0.76519  Biso   1.000  H
  H280     1.0000 0.68207  0.83571  0.70282  Biso   1.000  H
  H281     1.0000 0.57969  0.81501  0.67282  Biso   1.000  H
  C203     1.0000 0.64752  0.85171  0.60840  Biso   1.000  C
  C204     1.0000 0.84639  0.70911  0.93500  Biso   1.000  C
  C205     1.0000 0.75545  0.63552  0.95659  Biso   1.000  C
  H282     1.0000 0.85227  0.56670  0.87352  Biso   1.000  H
  H283     1.0000 0.80342  0.56989  0.80163  Biso   1.000  H
  H284     1.0000 0.74036  0.56730  0.85488  Biso   1.000  H
  H285     1.0000 0.30106  0.73621  0.95799  Biso   1.000  H
  H286     1.0000 0.38100  0.83272  0.84101  Biso   1.000  H
  H287     1.0000 0.35747  0.83591  0.76649  Biso   1.000  H
  C206     1.0000 0.28672  0.89111  0.80901  Biso   1.000  C
  H288     1.0000 0.40489  0.56611  0.94570  Biso   1.000  H
  H289     1.0000 0.29649  0.57450  0.91641  Biso   1.000  H
  H290     1.0000 0.32837  0.56909  0.99041  Biso   1.000  H
  C207     1.0000 0.42781  0.69609  0.05348  Biso   1.000  C
  C208     1.0000 0.53005  0.63711  0.01181  Biso   1.000  C
  H291     1.0000 0.71127  0.84900  0.59719  Biso   1.000  H
  C209     1.0000 0.62979  0.90882  0.62349  Biso   1.000  C
  C210     1.0000 0.57567  0.83201  0.55332  Biso   1.000  C
  O29      1.0000 0.88887  0.74055  0.89670  Biso   1.000  O
  C211     1.0000 0.85385  0.72650  0.99630  Biso   1.000  C
  H292     1.0000 0.72191  0.60400  0.94281  Biso   1.000  H
  C212     1.0000 0.75766  0.65179  0.01839  Biso   1.000  C
  H293     1.0000 0.25116  0.89079  0.84451  Biso   1.000  H
  C213     1.0000 0.21931  0.90500  0.74958  Biso   1.000  C
  C214     1.0000 0.36730  0.93202  0.82400  Biso   1.000  C
  O30      1.0000 0.33902  0.71687  0.05021  Biso   1.000  O
  C215     1.0000 0.50110  0.70990  0.10258  Biso   1.000  C
  H294     1.0000 0.53958  0.61219  0.98069  Biso   1.000  H
  C216     1.0000 0.60644  0.65012  0.05908  Biso   1.000  C
  H295     1.0000 0.67879  0.92100  0.65830  Biso   1.000  H
  H296     1.0000 0.56831  0.91192  0.63699  Biso   1.000  H
  C217     1.0000 0.63072  0.94392  0.56650  Biso   1.000  C
  C218     1.0000 0.57562  0.86759  0.49651  Biso   1.000  C
  H297     1.0000 0.51262  0.83213  0.56481  Biso   1.000  H
  H298     1.0000 0.59087  0.79499  0.54300  Biso   1.000  H
  H299     1.0000 0.86458  0.73482  0.85932  Biso   1.000  H
  C219     1.0000 0.81084  0.69721  0.03750  Biso   1.000  C
  C220     1.0000 0.90561  0.77712  0.01657  Biso   1.000  C
  C221     1.0000 0.70263  0.62441  0.06217  Biso   1.000  C
  H300     1.0000 0.16610  0.87973  0.74360  Biso   1.000  H
  H301     1.0000 0.25168  0.90162  0.71328  Biso   1.000  H
  C222     1.0000 0.18230  0.96171  0.75262  Biso   1.000  C
  C223     1.0000 0.32740  0.98730  0.82732  Biso   1.000  C
  H302     1.0000 0.40737  0.92299  0.86441  Biso   1.000  H
  H303     1.0000 0.40659  0.93079  0.79111  Biso   1.000  H
  H304     1.0000 0.34285  0.74922  0.06021  Biso   1.000  H
  C224     1.0000 0.58991  0.68821  0.10178  Biso   1.000  C
  C225     1.0000 0.48645  0.74242  0.15780  Biso   1.000  C
  H305     1.0000 0.69378  0.94289  0.55500  Biso   1.000  H
  H306     1.0000 0.61718  0.98110  0.57682  Biso   1.000  H
  C226     1.0000 0.55812  0.92522  0.51142  Biso   1.000  C
  H307     1.0000 0.63679  0.86460  0.48259  Biso   1.000  H
  H308     1.0000 0.52628  0.85541  0.46199  Biso   1.000  H
  O31      1.0000 0.81850  0.71611  0.09828  Biso   1.000  O
  H309     1.0000 0.95020  0.78512  0.98831  Biso   1.000  H
  N15      1.0000 0.83710  0.82249  0.01559  Biso   1.000  N
  H310     1.0000 0.94183  0.77271  0.05937  Biso   1.000  H
  H311     1.0000 0.73772  0.63130  0.10538  Biso   1.000  H
  C227     1.0000 0.69821  0.56400  0.05488  Biso   1.000  C
  H312     1.0000 0.14166  0.97071  0.71239  Biso   1.000  H
  H313     1.0000 0.14388  0.96402  0.78593  Biso   1.000  H
  C228     1.0000 0.26191  0.00111  0.76579  Biso   1.000  C
  H314     1.0000 0.29219  0.98929  0.86231  Biso   1.000  H
  H315     1.0000 0.37918  0.01349  0.83521  Biso   1.000  H
  O32      1.0000 0.65847  0.70540  0.15018  Biso   1.000  O
  N16      1.0000 0.52275  0.79790  0.15780  Biso   1.000  N
  H316     1.0000 0.41856  0.74381  0.15887  Biso   1.000  H
  H317     1.0000 0.51775  0.72439  0.19639  Biso   1.000  H
  H318     1.0000 0.49448  0.92892  0.52151  Biso   1.000  H
  H319     1.0000 0.56167  0.94762  0.47442  Biso   1.000  H
  H320     1.0000 0.85022  0.69462  0.12309  Biso   1.000  H
  H321     1.0000 0.78738  0.81851  0.97831  Biso   1.000  H
  H322     1.0000 0.80706  0.81959  0.05287  Biso   1.000  H
  C229     1.0000 0.87853  0.87690  0.01438  Biso   1.000  C
  H323     1.0000 0.66831  0.54860  0.08777  Biso   1.000  H
  H324     1.0000 0.76182  0.54979  0.05820  Biso   1.000  H
  H325     1.0000 0.66151  0.55492  0.01391  Biso   1.000  H
  H326     1.0000 0.23630  0.03741  0.76860  Biso   1.000  H
  H327     1.0000 0.29775  0.00060  0.73108  Biso   1.000  H
  H328     1.0000 0.70875  0.71030  0.13687  Biso   1.000  H
  H329     1.0000 0.48622  0.81720  0.12187  Biso   1.000  H
  H330     1.0000 0.58875  0.79663  0.15168  Biso   1.000  H
  C230     1.0000 0.51810  0.82850  0.21638  Biso   1.000  C
  H331     1.0000 0.91199  0.87869  0.97798  Biso   1.000  H
  C231     1.0000 0.80026  0.91781  0.00419  Biso   1.000  C
  C232     1.0000 0.94894  0.88761  0.07287  Biso   1.000  C
  H332     1.0000 0.45371  0.82452  0.22647  Biso   1.000  H
  C233     1.0000 0.53582  0.88753  0.20620  Biso   1.000  C
  C234     1.0000 0.58891  0.80689  0.27118  Biso   1.000  C
  H333     1.0000 0.75869  0.91109  0.96359  Biso   1.000  H
  H334     1.0000 0.76221  0.91459  0.03759  Biso   1.000  H
  C235     1.0000 0.84097  0.97369  0.00471  Biso   1.000  C
  C236     1.0000 0.98765  0.94412  0.07259  Biso   1.000  C
  H335     1.0000 0.91861  0.88279  0.10987  Biso   1.000  H
  H336     1.0000 0.00116  0.86170  0.07590  Biso   1.000  H
  H337     1.0000 0.59856  0.89222  0.19480  Biso   1.000  H
  H338     1.0000 0.48823  0.90130  0.17149  Biso   1.000  H
  C237     1.0000 0.53060  0.91809  0.26548  Biso   1.000  C
  C238     1.0000 0.58614  0.83901  0.33061  Biso   1.000  C
  H339     1.0000 0.65274  0.80872  0.26081  Biso   1.000  H
  H340     1.0000 0.57465  0.76912  0.27828  Biso   1.000  H
  H341     1.0000 0.87268  0.97799  0.96822  Biso   1.000  H
  C239     1.0000 0.91056  0.98472  0.06427  Biso   1.000  C
  H342     1.0000 0.78932  0.00012  0.00069  Biso   1.000  H
  H343     1.0000 0.03082  0.95093  0.11248  Biso   1.000  H
  H344     1.0000 0.02385  0.94762  0.03820  Biso   1.000  H
  H345     1.0000 0.46656  0.91511  0.27511  Biso   1.000  H
  H346     1.0000 0.54323  0.95622  0.25899  Biso   1.000  H
  C240     1.0000 0.60070  0.89732  0.32047  Biso   1.000  C
  H347     1.0000 0.52475  0.83360  0.34369  Biso   1.000  H
  H348     1.0000 0.63553  0.82592  0.36457  Biso   1.000  H
  H349     1.0000 0.87781  0.98352  0.10048  Biso   1.000  H
  H350     1.0000 0.93754  0.02070  0.06217  Biso   1.000  H
  H351     1.0000 0.66510  0.90321  0.31248  Biso   1.000  H
  H352     1.0000 0.59385  0.91730  0.35859  Biso   1.000  H
