data_image0
_cell_length_a       17.078
_cell_length_b       16.107
_cell_length_c       16.277
_cell_angle_alpha    90
_cell_angle_beta     90
_cell_angle_gamma    90

_symmetry_space_group_name_H-M    "P 1"
_symmetry_int_tables_number       1

loop_
  _symmetry_equiv_pos_as_xyz
  'x, y, z'

loop_
  _atom_site_label
  _atom_site_occupancy
  _atom_site_fract_x
  _atom_site_fract_y
  _atom_site_fract_z
  _atom_site_thermal_displace_type
  _atom_site_B_iso_or_equiv
  _atom_site_type_symbol
  O1       1.0000 0.80419  0.45595  0.60595  Biso   1.000  O
  C1       1.0000 0.81596  0.41001  0.67537  Biso   1.000  C
  H1       1.0000 0.81210  0.42690  0.56540  Biso   1.000  H
  C2       1.0000 0.83839  0.32632  0.67451  Biso   1.000  C
  C3       1.0000 0.80531  0.45043  0.74995  Biso   1.000  C
  C4       1.0000 0.85150  0.28311  0.59231  Biso   1.000  C
  C5       1.0000 0.84899  0.28658  0.74995  Biso   1.000  C
  C6       1.0000 0.81596  0.41001  0.82460  Biso   1.000  C
  Br1      1.0000 0.77626  0.56367  0.74995  Biso   1.000  Br
  C7       1.0000 0.92845  0.31216  0.55428  Biso   1.000  C
  C8       1.0000 0.84688  0.18793  0.59698  Biso   1.000  C
  H2       1.0000 0.80952  0.30130  0.55551  Biso   1.000  H
  H3       1.0000 0.86392  0.23108  0.74995  Biso   1.000  H
  C9       1.0000 0.83839  0.32632  0.82546  Biso   1.000  C
  O2       1.0000 0.80419  0.45595  0.89396  Biso   1.000  O
  C10      1.0000 0.92891  0.36543  0.48608  Biso   1.000  C
  C11      1.0000 0.00000  0.28838  0.58739  Biso   1.000  C
  H4       1.0000 0.88769  0.16750  0.63316  Biso   1.000  H
  H5       1.0000 0.79681  0.17179  0.62008  Biso   1.000  H
  C12      1.0000 0.85619  0.14807  0.51238  Biso   1.000  C
  C13      1.0000 0.85150  0.28311  0.90766  Biso   1.000  C
  H6       1.0000 0.81210  0.42690  0.93457  Biso   1.000  H
  O3       1.0000 0.85771  0.39064  0.45653  Biso   1.000  O
  C14      1.0000 0.00000  0.39200  0.45297  Biso   1.000  C
  C15      1.0000 0.07155  0.31216  0.55428  Biso   1.000  C
  H7       1.0000 0.00000  0.25492  0.63390  Biso   1.000  H
  H8       1.0000 0.85139  0.08891  0.51729  Biso   1.000  H
  H9       1.0000 0.90690  0.16148  0.49057  Biso   1.000  H
  H10      1.0000 0.81637  0.16868  0.47619  Biso   1.000  H
  C16      1.0000 0.84688  0.18793  0.90299  Biso   1.000  C
  C17      1.0000 0.92845  0.31216  0.94569  Biso   1.000  C
  H11      1.0000 0.80952  0.30130  0.94446  Biso   1.000  H
  H12      1.0000 0.86427  0.42211  0.41746  Biso   1.000  H
  Br2      1.0000 0.00000  0.46607  0.36290  Biso   1.000  Br
  C18      1.0000 0.07109  0.36543  0.48608  Biso   1.000  C
  C19      1.0000 0.14850  0.28311  0.59231  Biso   1.000  C
  H13      1.0000 0.88769  0.16750  0.86681  Biso   1.000  H
  H14      1.0000 0.79681  0.17179  0.87989  Biso   1.000  H
  C20      1.0000 0.85619  0.14807  0.98759  Biso   1.000  C
  C21      1.0000 0.92891  0.36543  0.01388  Biso   1.000  C
  C22      1.0000 0.00000  0.28838  0.91258  Biso   1.000  C
  O4       1.0000 0.14229  0.39064  0.45653  Biso   1.000  O
  C23      1.0000 0.15312  0.18793  0.59698  Biso   1.000  C
  H15      1.0000 0.19048  0.30130  0.55551  Biso   1.000  H
  C24      1.0000 0.16155  0.32632  0.67451  Biso   1.000  C
  H16      1.0000 0.85139  0.08891  0.98267  Biso   1.000  H
  H17      1.0000 0.90690  0.16148  0.00940  Biso   1.000  H
  H18      1.0000 0.81637  0.16868  0.02378  Biso   1.000  H
  O5       1.0000 0.85771  0.39064  0.04350  Biso   1.000  O
  C25      1.0000 0.00000  0.39200  0.04700  Biso   1.000  C
  C26      1.0000 0.07155  0.31216  0.94569  Biso   1.000  C
  H19      1.0000 0.00000  0.25492  0.86607  Biso   1.000  H
  H20      1.0000 0.13567  0.42211  0.41746  Biso   1.000  H
  H21      1.0000 0.11231  0.16750  0.63316  Biso   1.000  H
  H22      1.0000 0.20319  0.17179  0.62008  Biso   1.000  H
  C27      1.0000 0.14381  0.14807  0.51238  Biso   1.000  C
  C28      1.0000 0.15101  0.28658  0.74995  Biso   1.000  C
  C29      1.0000 0.18404  0.41001  0.67537  Biso   1.000  C
  H23      1.0000 0.86427  0.42211  0.08251  Biso   1.000  H
  Br3      1.0000 0.00000  0.46607  0.13706  Biso   1.000  Br
  C30      1.0000 0.07109  0.36543  0.01388  Biso   1.000  C
  C31      1.0000 0.14850  0.28311  0.90766  Biso   1.000  C
  H24      1.0000 0.14861  0.08891  0.51729  Biso   1.000  H
  H25      1.0000 0.09310  0.16148  0.49057  Biso   1.000  H
  H26      1.0000 0.18363  0.16868  0.47619  Biso   1.000  H
  H27      1.0000 0.13608  0.23108  0.74995  Biso   1.000  H
  C32      1.0000 0.16155  0.32632  0.82546  Biso   1.000  C
  O6       1.0000 0.19581  0.45595  0.60595  Biso   1.000  O
  C33      1.0000 0.19469  0.45043  0.74995  Biso   1.000  C
  O7       1.0000 0.14229  0.39064  0.04350  Biso   1.000  O
  C34      1.0000 0.15312  0.18793  0.90299  Biso   1.000  C
  H28      1.0000 0.19048  0.30130  0.94446  Biso   1.000  H
  C35      1.0000 0.18404  0.41001  0.82460  Biso   1.000  C
  H29      1.0000 0.18790  0.42690  0.56540  Biso   1.000  H
  Br4      1.0000 0.22374  0.56367  0.74995  Biso   1.000  Br
  H30      1.0000 0.13567  0.42211  0.08251  Biso   1.000  H
  H31      1.0000 0.11231  0.16750  0.86681  Biso   1.000  H
  H32      1.0000 0.20319  0.17179  0.87989  Biso   1.000  H
  C36      1.0000 0.14381  0.14807  0.98759  Biso   1.000  C
  O8       1.0000 0.19581  0.45595  0.89396  Biso   1.000  O
  H33      1.0000 0.14861  0.08891  0.98267  Biso   1.000  H
  H34      1.0000 0.09310  0.16148  0.00940  Biso   1.000  H
  H35      1.0000 0.18363  0.16868  0.02378  Biso   1.000  H
  H36      1.0000 0.18790  0.42690  0.93457  Biso   1.000  H
  O9       1.0000 0.80419  0.54405  0.39399  Biso   1.000  O
  C37      1.0000 0.81596  0.58999  0.32457  Biso   1.000  C
  H37      1.0000 0.81210  0.57310  0.43460  Biso   1.000  H
  C38      1.0000 0.80531  0.54964  0.24998  Biso   1.000  C
  C39      1.0000 0.83839  0.67368  0.32549  Biso   1.000  C
  C40      1.0000 0.81596  0.58999  0.17540  Biso   1.000  C
  Br5      1.0000 0.77626  0.43639  0.24998  Biso   1.000  Br
  C41      1.0000 0.85150  0.71689  0.40769  Biso   1.000  C
  C42      1.0000 0.84899  0.71342  0.24998  Biso   1.000  C
  O10      1.0000 0.80419  0.54405  0.10598  Biso   1.000  O
  C43      1.0000 0.83839  0.67368  0.17448  Biso   1.000  C
  C44      1.0000 0.84688  0.81213  0.40296  Biso   1.000  C
  C45      1.0000 0.92845  0.68784  0.44566  Biso   1.000  C
  H38      1.0000 0.80952  0.69870  0.44449  Biso   1.000  H
  H39      1.0000 0.86392  0.76892  0.24998  Biso   1.000  H
  H40      1.0000 0.81210  0.57310  0.06537  Biso   1.000  H
  C46      1.0000 0.85150  0.71689  0.09228  Biso   1.000  C
  H41      1.0000 0.88769  0.83250  0.36678  Biso   1.000  H
  H42      1.0000 0.79681  0.82821  0.37986  Biso   1.000  H
  C47      1.0000 0.85619  0.85193  0.48756  Biso   1.000  C
  C48      1.0000 0.92891  0.63463  0.51392  Biso   1.000  C
  C49      1.0000 0.00000  0.71162  0.41261  Biso   1.000  C
  C50      1.0000 0.84688  0.81213  0.09701  Biso   1.000  C
  C51      1.0000 0.92845  0.68784  0.05431  Biso   1.000  C
  H43      1.0000 0.80952  0.69870  0.05548  Biso   1.000  H
  H44      1.0000 0.85139  0.91109  0.48271  Biso   1.000  H
  H45      1.0000 0.90690  0.83852  0.50937  Biso   1.000  H
  H46      1.0000 0.81637  0.83132  0.52381  Biso   1.000  H
  O11      1.0000 0.85771  0.60936  0.54347  Biso   1.000  O
  C52      1.0000 0.00000  0.60800  0.54697  Biso   1.000  C
  C53      1.0000 0.07155  0.68784  0.44566  Biso   1.000  C
  H47      1.0000 0.00000  0.74514  0.36610  Biso   1.000  H
  H48      1.0000 0.88769  0.83250  0.13319  Biso   1.000  H
  H49      1.0000 0.79681  0.82821  0.12011  Biso   1.000  H
  C54      1.0000 0.85619  0.85193  0.01241  Biso   1.000  C
  C55      1.0000 0.92891  0.63463  0.98605  Biso   1.000  C
  C56      1.0000 0.00000  0.71162  0.08742  Biso   1.000  C
  H50      1.0000 0.86427  0.57789  0.58248  Biso   1.000  H
  Br6      1.0000 0.00000  0.53393  0.63703  Biso   1.000  Br
  C57      1.0000 0.07109  0.63463  0.51392  Biso   1.000  C
  C58      1.0000 0.14850  0.71689  0.40769  Biso   1.000  C
  H51      1.0000 0.85139  0.91109  0.01733  Biso   1.000  H
  H52      1.0000 0.90690  0.83852  0.99060  Biso   1.000  H
  H53      1.0000 0.81637  0.83132  0.97616  Biso   1.000  H
  O12      1.0000 0.85771  0.60936  0.95650  Biso   1.000  O
  C59      1.0000 0.00000  0.60800  0.95300  Biso   1.000  C
  C60      1.0000 0.07155  0.68784  0.05431  Biso   1.000  C
  H54      1.0000 0.00000  0.74514  0.13387  Biso   1.000  H
  O13      1.0000 0.14229  0.60936  0.54347  Biso   1.000  O
  C61      1.0000 0.15312  0.81213  0.40296  Biso   1.000  C
  H55      1.0000 0.19048  0.69870  0.44449  Biso   1.000  H
  C62      1.0000 0.16155  0.67368  0.32549  Biso   1.000  C
  H56      1.0000 0.86427  0.57789  0.91749  Biso   1.000  H
  Br7      1.0000 0.00000  0.53393  0.86294  Biso   1.000  Br
  C63      1.0000 0.07109  0.63463  0.98605  Biso   1.000  C
  C64      1.0000 0.14850  0.71689  0.09228  Biso   1.000  C
  H57      1.0000 0.13567  0.57789  0.58248  Biso   1.000  H
  H58      1.0000 0.11231  0.83250  0.36678  Biso   1.000  H
  H59      1.0000 0.20319  0.82821  0.37986  Biso   1.000  H
  C65      1.0000 0.14381  0.85193  0.48756  Biso   1.000  C
  C66      1.0000 0.15101  0.71342  0.24998  Biso   1.000  C
  C67      1.0000 0.18404  0.58999  0.32457  Biso   1.000  C
  O14      1.0000 0.14229  0.60936  0.95650  Biso   1.000  O
  C68      1.0000 0.15312  0.81213  0.09701  Biso   1.000  C
  H60      1.0000 0.19048  0.69870  0.05548  Biso   1.000  H
  C69      1.0000 0.16155  0.67368  0.17448  Biso   1.000  C
  H61      1.0000 0.14861  0.91109  0.48271  Biso   1.000  H
  H62      1.0000 0.09310  0.83852  0.50937  Biso   1.000  H
  H63      1.0000 0.18363  0.83132  0.52381  Biso   1.000  H
  H64      1.0000 0.13608  0.76892  0.24998  Biso   1.000  H
  O15      1.0000 0.19581  0.54405  0.39399  Biso   1.000  O
  C70      1.0000 0.19469  0.54964  0.24998  Biso   1.000  C
  H65      1.0000 0.13567  0.57789  0.91749  Biso   1.000  H
  H66      1.0000 0.11231  0.83250  0.13319  Biso   1.000  H
  H67      1.0000 0.20319  0.82821  0.12011  Biso   1.000  H
  C71      1.0000 0.14381  0.85193  0.01241  Biso   1.000  C
  C72      1.0000 0.18404  0.58999  0.17540  Biso   1.000  C
  H68      1.0000 0.18790  0.57310  0.43460  Biso   1.000  H
  Br8      1.0000 0.22374  0.43639  0.24998  Biso   1.000  Br
  H69      1.0000 0.09310  0.83852  0.99060  Biso   1.000  H
  H70      1.0000 0.18363  0.83132  0.97616  Biso   1.000  H
  H71      1.0000 0.14861  0.91109  0.01733  Biso   1.000  H
  O16      1.0000 0.19581  0.54405  0.10598  Biso   1.000  O
  H72      1.0000 0.18790  0.57310  0.06537  Biso   1.000  H
  C73      1.0000 0.64381  0.64810  0.51238  Biso   1.000  C
  C74      1.0000 0.65312  0.68790  0.59698  Biso   1.000  C
  H73      1.0000 0.64861  0.58894  0.51729  Biso   1.000  H
  H74      1.0000 0.59310  0.66151  0.49057  Biso   1.000  H
  H75      1.0000 0.68357  0.66872  0.47619  Biso   1.000  H
  C75      1.0000 0.64850  0.78314  0.59231  Biso   1.000  C
  H76      1.0000 0.61231  0.66754  0.63316  Biso   1.000  H
  H77      1.0000 0.70319  0.67182  0.62008  Biso   1.000  H
  C76      1.0000 0.57155  0.81219  0.55428  Biso   1.000  C
  H78      1.0000 0.69048  0.80133  0.55551  Biso   1.000  H
  C77      1.0000 0.66155  0.82629  0.67451  Biso   1.000  C
  C78      1.0000 0.50000  0.78841  0.58739  Biso   1.000  C
  C79      1.0000 0.57109  0.86540  0.48608  Biso   1.000  C
  C80      1.0000 0.65101  0.78661  0.74995  Biso   1.000  C
  C81      1.0000 0.68404  0.91004  0.67537  Biso   1.000  C
  C82      1.0000 0.42845  0.81219  0.55428  Biso   1.000  C
  H79      1.0000 0.50000  0.75489  0.63390  Biso   1.000  H
  C83      1.0000 0.50000  0.89203  0.45297  Biso   1.000  C
  O17      1.0000 0.64229  0.89067  0.45653  Biso   1.000  O
  H80      1.0000 0.63608  0.73111  0.74995  Biso   1.000  H
  C84      1.0000 0.66155  0.82629  0.82546  Biso   1.000  C
  O18      1.0000 0.69575  0.95598  0.60595  Biso   1.000  O
  C85      1.0000 0.69469  0.95039  0.74995  Biso   1.000  C
  C86      1.0000 0.35150  0.78314  0.59231  Biso   1.000  C
  C87      1.0000 0.42891  0.86540  0.48608  Biso   1.000  C
  Br9      1.0000 0.50000  0.96604  0.36290  Biso   1.000  Br
  H81      1.0000 0.63567  0.92215  0.41746  Biso   1.000  H
  C88      1.0000 0.64850  0.78314  0.90766  Biso   1.000  C
  C89      1.0000 0.68404  0.91004  0.82460  Biso   1.000  C
  H82      1.0000 0.68790  0.92693  0.56540  Biso   1.000  H
  Br10     1.0000 0.72374  0.06364  0.74995  Biso   1.000  Br
  C90      1.0000 0.34688  0.68790  0.59698  Biso   1.000  C
  H83      1.0000 0.30952  0.80133  0.55551  Biso   1.000  H
  C91      1.0000 0.33845  0.82629  0.67451  Biso   1.000  C
  O19      1.0000 0.35771  0.89067  0.45653  Biso   1.000  O
  C92      1.0000 0.57155  0.81219  0.94569  Biso   1.000  C
  C93      1.0000 0.65312  0.68790  0.90299  Biso   1.000  C
  H84      1.0000 0.69048  0.80133  0.94446  Biso   1.000  H
  O20      1.0000 0.69575  0.95598  0.89396  Biso   1.000  O
  C94      1.0000 0.35619  0.64810  0.51238  Biso   1.000  C
  H85      1.0000 0.38769  0.66754  0.63316  Biso   1.000  H
  H86      1.0000 0.29681  0.67182  0.62008  Biso   1.000  H
  C95      1.0000 0.34899  0.78661  0.74995  Biso   1.000  C
  C96      1.0000 0.31596  0.91004  0.67537  Biso   1.000  C
  H87      1.0000 0.36427  0.92215  0.41746  Biso   1.000  H
  C97      1.0000 0.50000  0.78841  0.91258  Biso   1.000  C
  C98      1.0000 0.57109  0.86540  0.01388  Biso   1.000  C
  H88      1.0000 0.61231  0.66754  0.86681  Biso   1.000  H
  H89      1.0000 0.70319  0.67182  0.87989  Biso   1.000  H
  C99      1.0000 0.64381  0.64810  0.98759  Biso   1.000  C
  H90      1.0000 0.68790  0.92693  0.93457  Biso   1.000  H
  H91      1.0000 0.35139  0.58894  0.51729  Biso   1.000  H
  H92      1.0000 0.40690  0.66151  0.49057  Biso   1.000  H
  H93      1.0000 0.31637  0.66872  0.47619  Biso   1.000  H
  H94      1.0000 0.36392  0.73111  0.74995  Biso   1.000  H
  C100     1.0000 0.33845  0.82629  0.82546  Biso   1.000  C
  O21      1.0000 0.30419  0.95598  0.60595  Biso   1.000  O
  C101     1.0000 0.30531  0.95039  0.74995  Biso   1.000  C
  C102     1.0000 0.42845  0.81219  0.94569  Biso   1.000  C
  H95      1.0000 0.50000  0.75489  0.86607  Biso   1.000  H
  C103     1.0000 0.50000  0.89203  0.04700  Biso   1.000  C
  O22      1.0000 0.64229  0.89067  0.04350  Biso   1.000  O
  H96      1.0000 0.64861  0.58894  0.98267  Biso   1.000  H
  H97      1.0000 0.59310  0.66151  0.00940  Biso   1.000  H
  H98      1.0000 0.68357  0.66872  0.02378  Biso   1.000  H
  C104     1.0000 0.35150  0.78314  0.90766  Biso   1.000  C
  C105     1.0000 0.31596  0.91004  0.82460  Biso   1.000  C
  H99      1.0000 0.31210  0.92693  0.56540  Biso   1.000  H
  Br11     1.0000 0.27626  0.06364  0.74995  Biso   1.000  Br
  C106     1.0000 0.42891  0.86540  0.01388  Biso   1.000  C
  Br12     1.0000 0.50000  0.96604  0.13706  Biso   1.000  Br
  H100     1.0000 0.63567  0.92215  0.08251  Biso   1.000  H
  C107     1.0000 0.34688  0.68790  0.90299  Biso   1.000  C
  H101     1.0000 0.30952  0.80133  0.94446  Biso   1.000  H
  O23      1.0000 0.30419  0.95598  0.89396  Biso   1.000  O
  O24      1.0000 0.35771  0.89067  0.04350  Biso   1.000  O
  H102     1.0000 0.38769  0.66754  0.86681  Biso   1.000  H
  H103     1.0000 0.29681  0.67182  0.87989  Biso   1.000  H
  C108     1.0000 0.35619  0.64810  0.98759  Biso   1.000  C
  H104     1.0000 0.31210  0.92693  0.93457  Biso   1.000  H
  H105     1.0000 0.36427  0.92215  0.08251  Biso   1.000  H
  H106     1.0000 0.35139  0.58894  0.98267  Biso   1.000  H
  H107     1.0000 0.40690  0.66151  0.00940  Biso   1.000  H
  H108     1.0000 0.31637  0.66872  0.02378  Biso   1.000  H
  C109     1.0000 0.64381  0.35190  0.48756  Biso   1.000  C
  C110     1.0000 0.65312  0.31210  0.40296  Biso   1.000  C
  H109     1.0000 0.64861  0.41113  0.48271  Biso   1.000  H
  H110     1.0000 0.59310  0.33849  0.50937  Biso   1.000  H
  H111     1.0000 0.68357  0.33128  0.52381  Biso   1.000  H
  C111     1.0000 0.64850  0.21692  0.40769  Biso   1.000  C
  H112     1.0000 0.61231  0.33253  0.36678  Biso   1.000  H
  H113     1.0000 0.70319  0.32818  0.37986  Biso   1.000  H
  C112     1.0000 0.57155  0.18787  0.44566  Biso   1.000  C
  H114     1.0000 0.69048  0.19873  0.44449  Biso   1.000  H
  C113     1.0000 0.66155  0.17371  0.32549  Biso   1.000  C
  C114     1.0000 0.50000  0.21159  0.41261  Biso   1.000  C
  C115     1.0000 0.57109  0.13460  0.51392  Biso   1.000  C
  C116     1.0000 0.65101  0.21339  0.24998  Biso   1.000  C
  C117     1.0000 0.68404  0.09002  0.32457  Biso   1.000  C
  C118     1.0000 0.42845  0.18787  0.44566  Biso   1.000  C
  H115     1.0000 0.50000  0.24511  0.36610  Biso   1.000  H
  C119     1.0000 0.50000  0.10803  0.54697  Biso   1.000  C
  O25      1.0000 0.64229  0.10933  0.54347  Biso   1.000  O
  C120     1.0000 0.66155  0.17371  0.17448  Biso   1.000  C
  H116     1.0000 0.63608  0.26889  0.24998  Biso   1.000  H
  O26      1.0000 0.69575  0.04408  0.39399  Biso   1.000  O
  C121     1.0000 0.69469  0.04961  0.24998  Biso   1.000  C
  C122     1.0000 0.35150  0.21692  0.40769  Biso   1.000  C
  C123     1.0000 0.42891  0.13460  0.51392  Biso   1.000  C
  Br13     1.0000 0.50000  0.03396  0.63703  Biso   1.000  Br
  H117     1.0000 0.63567  0.07792  0.58248  Biso   1.000  H
  C124     1.0000 0.64850  0.21692  0.09228  Biso   1.000  C
  C125     1.0000 0.68404  0.09002  0.17540  Biso   1.000  C
  H118     1.0000 0.68790  0.07307  0.43460  Biso   1.000  H
  Br14     1.0000 0.72374  0.93636  0.24998  Biso   1.000  Br
  C126     1.0000 0.33845  0.17371  0.32549  Biso   1.000  C
  C127     1.0000 0.34688  0.31210  0.40296  Biso   1.000  C
  H119     1.0000 0.30952  0.19873  0.44449  Biso   1.000  H
  O27      1.0000 0.35771  0.10933  0.54347  Biso   1.000  O
  C128     1.0000 0.57155  0.18787  0.05431  Biso   1.000  C
  C129     1.0000 0.65312  0.31210  0.09701  Biso   1.000  C
  H120     1.0000 0.69048  0.19873  0.05548  Biso   1.000  H
  O28      1.0000 0.69575  0.04408  0.10598  Biso   1.000  O
  C130     1.0000 0.34899  0.21339  0.24998  Biso   1.000  C
  C131     1.0000 0.31596  0.09002  0.32457  Biso   1.000  C
  H121     1.0000 0.38769  0.33253  0.36678  Biso   1.000  H
  H122     1.0000 0.29681  0.32818  0.37986  Biso   1.000  H
  C132     1.0000 0.35619  0.35190  0.48756  Biso   1.000  C
  H123     1.0000 0.36427  0.07792  0.58248  Biso   1.000  H
  C133     1.0000 0.50000  0.21159  0.08742  Biso   1.000  C
  C134     1.0000 0.57109  0.13460  0.98605  Biso   1.000  C
  H124     1.0000 0.61231  0.33253  0.13319  Biso   1.000  H
  H125     1.0000 0.70319  0.32818  0.12011  Biso   1.000  H
  C135     1.0000 0.64381  0.35190  0.01241  Biso   1.000  C
  H126     1.0000 0.68790  0.07307  0.06537  Biso   1.000  H
  H127     1.0000 0.36392  0.26889  0.24998  Biso   1.000  H
  C136     1.0000 0.33845  0.17371  0.17448  Biso   1.000  C
  O29      1.0000 0.30419  0.04408  0.39399  Biso   1.000  O
  C137     1.0000 0.30531  0.04961  0.24998  Biso   1.000  C
  H128     1.0000 0.35139  0.41113  0.48271  Biso   1.000  H
  H129     1.0000 0.40690  0.33849  0.50937  Biso   1.000  H
  H130     1.0000 0.31637  0.33128  0.52381  Biso   1.000  H
  C138     1.0000 0.42845  0.18787  0.05431  Biso   1.000  C
  H131     1.0000 0.50000  0.24511  0.13387  Biso   1.000  H
  C139     1.0000 0.50000  0.10803  0.95300  Biso   1.000  C
  O30      1.0000 0.64229  0.10933  0.95650  Biso   1.000  O
  H132     1.0000 0.64861  0.41113  0.01733  Biso   1.000  H
  H133     1.0000 0.59310  0.33849  0.99060  Biso   1.000  H
  H134     1.0000 0.68357  0.33128  0.97616  Biso   1.000  H
  C140     1.0000 0.35150  0.21692  0.09228  Biso   1.000  C
  C141     1.0000 0.31596  0.09002  0.17540  Biso   1.000  C
  H135     1.0000 0.31210  0.07307  0.43460  Biso   1.000  H
  Br15     1.0000 0.27626  0.93636  0.24998  Biso   1.000  Br
  C142     1.0000 0.42891  0.13460  0.98605  Biso   1.000  C
  Br16     1.0000 0.50000  0.03396  0.86294  Biso   1.000  Br
  H136     1.0000 0.63567  0.07792  0.91749  Biso   1.000  H
  C143     1.0000 0.34688  0.31210  0.09701  Biso   1.000  C
  H137     1.0000 0.30952  0.19873  0.05548  Biso   1.000  H
  O31      1.0000 0.30419  0.04408  0.10598  Biso   1.000  O
  O32      1.0000 0.35771  0.10933  0.95650  Biso   1.000  O
  H138     1.0000 0.38769  0.33253  0.13319  Biso   1.000  H
  H139     1.0000 0.29681  0.32818  0.12011  Biso   1.000  H
  C144     1.0000 0.35619  0.35190  0.01241  Biso   1.000  C
  H140     1.0000 0.31210  0.07307  0.06537  Biso   1.000  H
  H141     1.0000 0.36427  0.07792  0.91749  Biso   1.000  H
  H142     1.0000 0.35139  0.41113  0.01733  Biso   1.000  H
  H143     1.0000 0.40690  0.33849  0.99060  Biso   1.000  H
  H144     1.0000 0.31637  0.33128  0.97616  Biso   1.000  H
