data_image0
_cell_length_a       32.684
_cell_length_b       20.741
_cell_length_c       8.939
_cell_angle_alpha    90
_cell_angle_beta     95.26
_cell_angle_gamma    90

_symmetry_space_group_name_H-M    "P 1"
_symmetry_int_tables_number       1

loop_
  _symmetry_equiv_pos_as_xyz
  'x, y, z'

loop_
  _atom_site_label
  _atom_site_occupancy
  _atom_site_fract_x
  _atom_site_fract_y
  _atom_site_fract_z
  _atom_site_thermal_displace_type
  _atom_site_B_iso_or_equiv
  _atom_site_type_symbol
  C1       1.0000 0.56568  0.41579  0.42567  Biso   1.000  C
  C2       1.0000 0.58371  0.42992  0.29389  Biso   1.000  C
  H1       1.0000 0.56029  0.37038  0.43016  Biso   1.000  H
  H2       1.0000 0.54029  0.43908  0.42679  Biso   1.000  H
  H3       1.0000 0.58401  0.42819  0.51093  Biso   1.000  H
  C3       1.0000 0.59379  0.50248  0.27614  Biso   1.000  C
  H4       1.0000 0.56520  0.41642  0.20862  Biso   1.000  H
  H5       1.0000 0.60879  0.40519  0.29243  Biso   1.000  H
  O1       1.0000 0.60924  0.50648  0.12257  Biso   1.000  O
  H6       1.0000 0.56951  0.52881  0.28153  Biso   1.000  H
  H7       1.0000 0.61469  0.51632  0.35332  Biso   1.000  H
  C4       1.0000 0.61969  0.56039  0.07325  Biso   1.000  C
  C5       1.0000 0.61139  0.61930  0.14121  Biso   1.000  C
  C6       1.0000 0.63877  0.56179  0.92990  Biso   1.000  C
  C7       1.0000 0.61944  0.67600  0.07415  Biso   1.000  C
  H8       1.0000 0.60030  0.61959  0.23345  Biso   1.000  H
  S1       1.0000 0.64810  0.48918  0.84811  Biso   1.000  S
  C8       1.0000 0.64889  0.61612  0.87710  Biso   1.000  C
  O2       1.0000 0.61111  0.73960  0.12762  Biso   1.000  O
  C9       1.0000 0.63878  0.67692  0.95214  Biso   1.000  C
  N1       1.0000 0.67307  0.44410  0.97630  Biso   1.000  N
  O3       1.0000 0.60911  0.45909  0.80261  Biso   1.000  O
  O4       1.0000 0.67289  0.50562  0.72881  Biso   1.000  O
  H9       1.0000 0.66266  0.61752  0.79071  Biso   1.000  H
  C10      1.0000 0.59530  0.74818  0.26086  Biso   1.000  C
  S2       1.0000 0.64854  0.75155  0.84474  Biso   1.000  S
  H10      1.0000 0.65999  0.41469  0.01966  Biso   1.000  H
  C11      1.0000 0.71550  0.45191  0.01764  Biso   1.000  C
  H11      1.0000 0.61510  0.73401  0.34163  Biso   1.000  H
  H12      1.0000 0.57071  0.72229  0.26367  Biso   1.000  H
  C12      1.0000 0.58519  0.81669  0.28355  Biso   1.000  C
  N2       1.0000 0.67457  0.80121  0.96281  Biso   1.000  N
  O5       1.0000 0.61039  0.78318  0.82171  Biso   1.000  O
  O6       1.0000 0.67517  0.73820  0.73072  Biso   1.000  O
  C13      1.0000 0.72490  0.45711  0.17773  Biso   1.000  C
  C14      1.0000 0.74606  0.45070  0.92585  Biso   1.000  C
  H13      1.0000 0.56509  0.83038  0.20312  Biso   1.000  H
  H14      1.0000 0.60980  0.84249  0.27805  Biso   1.000  H
  C15      1.0000 0.56760  0.82932  0.43757  Biso   1.000  C
  C16      1.0000 0.71679  0.79128  0.02011  Biso   1.000  C
  H15      1.0000 0.66226  0.83501  0.99180  Biso   1.000  H
  C17      1.0000 0.76610  0.45842  0.22985  Biso   1.000  C
  O7       1.0000 0.69448  0.45359  0.26412  Biso   1.000  O
  C18      1.0000 0.78687  0.45089  0.97562  Biso   1.000  C
  H16      1.0000 0.73889  0.44969  0.82272  Biso   1.000  H
  H17      1.0000 0.56188  0.87440  0.44735  Biso   1.000  H
  H18      1.0000 0.58739  0.81611  0.51767  Biso   1.000  H
  H19      1.0000 0.54270  0.80512  0.44229  Biso   1.000  H
  C19      1.0000 0.72980  0.78988  0.17177  Biso   1.000  C
  C20      1.0000 0.74826  0.79509  0.91968  Biso   1.000  C
  H20      1.0000 0.77360  0.46150  0.33242  Biso   1.000  H
  C21      1.0000 0.79744  0.45519  0.12650  Biso   1.000  C
  C22      1.0000 0.70389  0.44000  0.42083  Biso   1.000  C
  N3       1.0000 0.82048  0.44641  0.88361  Biso   1.000  N
  C23      1.0000 0.76979  0.78680  0.23176  Biso   1.000  C
  O8       1.0000 0.69580  0.78458  0.25951  Biso   1.000  O
  H21      1.0000 0.74187  0.80131  0.81711  Biso   1.000  H
  C24      1.0000 0.78886  0.78911  0.98191  Biso   1.000  C
  O9       1.0000 0.83900  0.45789  0.17436  Biso   1.000  O
  H22      1.0000 0.67930  0.44342  0.47139  Biso   1.000  H
  H23      1.0000 0.72380  0.47042  0.46341  Biso   1.000  H
  H24      1.0000 0.71468  0.39709  0.43274  Biso   1.000  H
  S3       1.0000 0.82723  0.49086  0.74172  Biso   1.000  S
  H25      1.0000 0.83868  0.41719  0.90664  Biso   1.000  H
  C25      1.0000 0.80050  0.78622  0.14088  Biso   1.000  C
  H26      1.0000 0.77579  0.78511  0.33545  Biso   1.000  H
  C26      1.0000 0.70281  0.80078  0.41443  Biso   1.000  C
  N4       1.0000 0.82036  0.80271  0.88361  Biso   1.000  N
  C27      1.0000 0.85331  0.45171  0.33366  Biso   1.000  C
  C28      1.0000 0.84658  0.56439  0.81778  Biso   1.000  C
  O10      1.0000 0.85977  0.45572  0.67028  Biso   1.000  O
  O11      1.0000 0.78997  0.50552  0.66140  Biso   1.000  O
  O12      1.0000 0.84002  0.78661  0.17615  Biso   1.000  O
  H27      1.0000 0.67729  0.79972  0.45937  Biso   1.000  H
  H28      1.0000 0.71441  0.84331  0.42432  Biso   1.000  H
  H29      1.0000 0.72149  0.77031  0.46397  Biso   1.000  H
  S4       1.0000 0.83035  0.75339  0.74262  Biso   1.000  S
  H30      1.0000 0.83457  0.83752  0.89777  Biso   1.000  H
  H31      1.0000 0.88279  0.45152  0.34534  Biso   1.000  H
  H32      1.0000 0.84310  0.41218  0.37208  Biso   1.000  H
  H33      1.0000 0.84329  0.48749  0.38803  Biso   1.000  H
  C29      1.0000 0.83238  0.62499  0.76891  Biso   1.000  C
  C30      1.0000 0.88476  0.56039  0.91282  Biso   1.000  C
  C31      1.0000 0.85041  0.79070  0.33163  Biso   1.000  C
  C32      1.0000 0.85188  0.67938  0.81452  Biso   1.000  C
  O13      1.0000 0.86107  0.78212  0.66837  Biso   1.000  O
  O14      1.0000 0.79105  0.73998  0.65927  Biso   1.000  O
  H34      1.0000 0.80876  0.62769  0.70297  Biso   1.000  H
  C33      1.0000 0.90241  0.62519  0.96630  Biso   1.000  C
  O15      1.0000 0.90016  0.50350  0.95967  Biso   1.000  O
  H35      1.0000 0.87980  0.79022  0.35186  Biso   1.000  H
  H36      1.0000 0.83890  0.75459  0.38039  Biso   1.000  H
  H37      1.0000 0.83969  0.83000  0.36904  Biso   1.000  H
  C34      1.0000 0.88510  0.67702  0.91765  Biso   1.000  C
  H38      1.0000 0.92580  0.62702  0.03415  Biso   1.000  H
  C35      1.0000 0.93511  0.49940  0.06864  Biso   1.000  C
  O16      1.0000 0.90197  0.73622  0.94742  Biso   1.000  O
  H39      1.0000 0.92969  0.52288  0.15852  Biso   1.000  H
  H40      1.0000 0.95889  0.51849  0.02865  Biso   1.000  H
  C36      1.0000 0.94350  0.43031  0.10661  Biso   1.000  C
  C37      1.0000 0.93241  0.74191  0.07538  Biso   1.000  C
  H41      1.0000 0.91781  0.40991  0.12515  Biso   1.000  H
  H42      1.0000 0.95331  0.40938  0.01955  Biso   1.000  H
  C38      1.0000 0.97270  0.41821  0.23401  Biso   1.000  C
  H43      1.0000 0.95731  0.71848  0.05831  Biso   1.000  H
  H44      1.0000 0.92180  0.72571  0.16604  Biso   1.000  H
  C39      1.0000 0.94051  0.81520  0.08628  Biso   1.000  C
  H45      1.0000 0.97680  0.37260  0.24502  Biso   1.000  H
  H46      1.0000 0.96241  0.43542  0.32265  Biso   1.000  H
  H47      1.0000 0.99831  0.43850  0.21794  Biso   1.000  H
  H48      1.0000 0.91560  0.83781  0.10661  Biso   1.000  H
  C40      1.0000 0.97559  0.82662  0.21974  Biso   1.000  C
  H49      1.0000 0.94936  0.83120  0.99259  Biso   1.000  H
  H50      1.0000 0.98119  0.87190  0.22952  Biso   1.000  H
  H51      1.0000 0.96648  0.81062  0.31186  Biso   1.000  H
  H52      1.0000 0.00010  0.80430  0.19806  Biso   1.000  H
  C41      1.0000 0.43430  0.41579  0.57429  Biso   1.000  C
  C42      1.0000 0.41628  0.42992  0.70607  Biso   1.000  C
  H53      1.0000 0.43970  0.37038  0.56991  Biso   1.000  H
  H54      1.0000 0.45970  0.43908  0.57317  Biso   1.000  H
  H55      1.0000 0.41598  0.42819  0.48914  Biso   1.000  H
  C43      1.0000 0.40620  0.50248  0.72393  Biso   1.000  C
  H56      1.0000 0.43479  0.41642  0.79145  Biso   1.000  H
  H57      1.0000 0.39120  0.40519  0.70764  Biso   1.000  H
  O17      1.0000 0.39074  0.50648  0.87739  Biso   1.000  O
  H58      1.0000 0.43048  0.52881  0.71854  Biso   1.000  H
  H59      1.0000 0.38530  0.51632  0.64676  Biso   1.000  H
  C44      1.0000 0.38029  0.56039  0.92671  Biso   1.000  C
  C45      1.0000 0.36122  0.56179  0.07017  Biso   1.000  C
  C46      1.0000 0.38859  0.61930  0.85886  Biso   1.000  C
  S5       1.0000 0.35188  0.48918  0.15185  Biso   1.000  S
  C47      1.0000 0.35110  0.61612  0.12297  Biso   1.000  C
  C48      1.0000 0.38055  0.67600  0.92593  Biso   1.000  C
  H60      1.0000 0.39968  0.61959  0.76662  Biso   1.000  H
  N5       1.0000 0.32692  0.44410  0.02378  Biso   1.000  N
  O18      1.0000 0.39087  0.45909  0.19746  Biso   1.000  O
  O19      1.0000 0.32710  0.50562  0.27127  Biso   1.000  O
  H61      1.0000 0.33732  0.61752  0.20937  Biso   1.000  H
  C49      1.0000 0.36121  0.67692  0.04782  Biso   1.000  C
  O20      1.0000 0.38887  0.73960  0.87245  Biso   1.000  O
  C50      1.0000 0.28448  0.45191  0.98243  Biso   1.000  C
  H62      1.0000 0.33999  0.41469  0.98030  Biso   1.000  H
  S6       1.0000 0.35145  0.75155  0.15522  Biso   1.000  S
  C51      1.0000 0.40468  0.74818  0.73910  Biso   1.000  C
  C52      1.0000 0.27509  0.45711  0.82235  Biso   1.000  C
  C53      1.0000 0.25392  0.45070  0.07411  Biso   1.000  C
  N6       1.0000 0.32542  0.80121  0.03715  Biso   1.000  N
  O21      1.0000 0.38960  0.78318  0.17836  Biso   1.000  O
  O22      1.0000 0.32481  0.73820  0.26936  Biso   1.000  O
  H63      1.0000 0.38489  0.73401  0.65844  Biso   1.000  H
  H64      1.0000 0.42927  0.72229  0.73629  Biso   1.000  H
  C54      1.0000 0.41480  0.81669  0.71652  Biso   1.000  C
  O23      1.0000 0.30550  0.45359  0.73596  Biso   1.000  O
  C55      1.0000 0.23388  0.45842  0.77022  Biso   1.000  C
  C56      1.0000 0.21312  0.45089  0.02445  Biso   1.000  C
  H65      1.0000 0.26110  0.44969  0.17724  Biso   1.000  H
  C57      1.0000 0.28320  0.79128  0.97996  Biso   1.000  C
  H66      1.0000 0.33773  0.83501  0.00827  Biso   1.000  H
  H67      1.0000 0.43489  0.83038  0.79696  Biso   1.000  H
  H68      1.0000 0.39018  0.84249  0.72202  Biso   1.000  H
  C58      1.0000 0.43238  0.82932  0.56239  Biso   1.000  C
  C59      1.0000 0.29610  0.44000  0.57924  Biso   1.000  C
  H69      1.0000 0.22638  0.46150  0.66765  Biso   1.000  H
  C60      1.0000 0.20254  0.45519  0.87357  Biso   1.000  C
  N7       1.0000 0.17950  0.44641  0.11646  Biso   1.000  N
  C61      1.0000 0.27018  0.78988  0.82819  Biso   1.000  C
  C62      1.0000 0.25172  0.79509  0.08040  Biso   1.000  C
  H70      1.0000 0.43810  0.87440  0.55272  Biso   1.000  H
  H71      1.0000 0.41259  0.81611  0.48229  Biso   1.000  H
  H72      1.0000 0.45729  0.80512  0.55767  Biso   1.000  H
  H73      1.0000 0.32068  0.44342  0.52857  Biso   1.000  H
  H74      1.0000 0.27618  0.47042  0.53666  Biso   1.000  H
  H75      1.0000 0.28531  0.39709  0.56733  Biso   1.000  H
  O24      1.0000 0.16099  0.45789  0.82572  Biso   1.000  O
  S7       1.0000 0.17275  0.49086  0.25824  Biso   1.000  S
  H76      1.0000 0.16130  0.41719  0.09332  Biso   1.000  H
  C63      1.0000 0.23019  0.78680  0.76820  Biso   1.000  C
  O25      1.0000 0.30418  0.78458  0.74056  Biso   1.000  O
  H77      1.0000 0.25812  0.80131  0.18297  Biso   1.000  H
  C64      1.0000 0.21112  0.78911  0.01816  Biso   1.000  C
  C65      1.0000 0.14668  0.45171  0.66642  Biso   1.000  C
  C66      1.0000 0.15340  0.56439  0.18229  Biso   1.000  C
  O26      1.0000 0.14021  0.45572  0.32980  Biso   1.000  O
  O27      1.0000 0.21001  0.50552  0.33867  Biso   1.000  O
  C67      1.0000 0.19949  0.78622  0.85908  Biso   1.000  C
  H78      1.0000 0.22419  0.78511  0.66451  Biso   1.000  H
  C68      1.0000 0.29721  0.80078  0.58564  Biso   1.000  C
  N8       1.0000 0.17962  0.80271  0.11635  Biso   1.000  N
  H79      1.0000 0.11720  0.45152  0.65473  Biso   1.000  H
  H80      1.0000 0.15688  0.41218  0.62788  Biso   1.000  H
  H81      1.0000 0.15670  0.48749  0.61204  Biso   1.000  H
  C69      1.0000 0.16760  0.62499  0.23105  Biso   1.000  C
  C70      1.0000 0.11522  0.56039  0.08725  Biso   1.000  C
  O28      1.0000 0.15996  0.78661  0.82381  Biso   1.000  O
  H82      1.0000 0.32270  0.79972  0.54070  Biso   1.000  H
  H83      1.0000 0.28558  0.84331  0.57575  Biso   1.000  H
  H84      1.0000 0.27849  0.77031  0.53599  Biso   1.000  H
  S8       1.0000 0.16964  0.75339  0.25734  Biso   1.000  S
  H85      1.0000 0.16541  0.83752  0.10230  Biso   1.000  H
  C71      1.0000 0.14810  0.67938  0.18544  Biso   1.000  C
  H86      1.0000 0.19122  0.62769  0.29711  Biso   1.000  H
  C72      1.0000 0.09758  0.62519  0.03377  Biso   1.000  C
  O29      1.0000 0.09982  0.50350  0.04040  Biso   1.000  O
  C73      1.0000 0.14958  0.79070  0.66844  Biso   1.000  C
  O30      1.0000 0.13892  0.78212  0.33171  Biso   1.000  O
  O31      1.0000 0.20893  0.73998  0.34081  Biso   1.000  O
  C74      1.0000 0.11489  0.67702  0.08231  Biso   1.000  C
  H87      1.0000 0.07418  0.62702  0.96592  Biso   1.000  H
  C75      1.0000 0.06487  0.49940  0.93143  Biso   1.000  C
  H88      1.0000 0.12019  0.79022  0.64822  Biso   1.000  H
  H89      1.0000 0.16108  0.75459  0.61957  Biso   1.000  H
  H90      1.0000 0.16030  0.83000  0.63103  Biso   1.000  H
  O32      1.0000 0.09802  0.73622  0.05254  Biso   1.000  O
  H91      1.0000 0.07030  0.52288  0.84156  Biso   1.000  H
  H92      1.0000 0.04109  0.51849  0.97142  Biso   1.000  H
  C76      1.0000 0.05649  0.43031  0.89346  Biso   1.000  C
  C77      1.0000 0.06758  0.74191  0.92458  Biso   1.000  C
  H93      1.0000 0.08218  0.40991  0.87481  Biso   1.000  H
  H94      1.0000 0.04668  0.40938  0.98052  Biso   1.000  H
  C78      1.0000 0.02728  0.41821  0.76606  Biso   1.000  C
  H95      1.0000 0.04267  0.71848  0.94177  Biso   1.000  H
  H96      1.0000 0.07819  0.72571  0.83403  Biso   1.000  H
  C79      1.0000 0.05947  0.81520  0.91368  Biso   1.000  C
  H97      1.0000 0.02318  0.37260  0.75505  Biso   1.000  H
  H98      1.0000 0.03758  0.43542  0.67742  Biso   1.000  H
  H99      1.0000 0.00168  0.43850  0.78213  Biso   1.000  H
  H100     1.0000 0.08439  0.83781  0.89346  Biso   1.000  H
  C80      1.0000 0.02440  0.82662  0.78033  Biso   1.000  C
  H101     1.0000 0.05062  0.83120  0.00749  Biso   1.000  H
  H102     1.0000 0.01880  0.87190  0.77056  Biso   1.000  H
  H103     1.0000 0.03350  0.81062  0.68821  Biso   1.000  H
  H104     1.0000 0.99988  0.80430  0.80190  Biso   1.000  H
  C81      1.0000 0.52440  0.32660  0.78033  Biso   1.000  C
  C82      1.0000 0.55947  0.31522  0.91368  Biso   1.000  C
  H105     1.0000 0.51880  0.37192  0.77056  Biso   1.000  H
  H106     1.0000 0.49988  0.30428  0.80190  Biso   1.000  H
  H107     1.0000 0.53350  0.31059  0.68821  Biso   1.000  H
  C83      1.0000 0.56758  0.24189  0.92458  Biso   1.000  C
  H108     1.0000 0.58439  0.33779  0.89346  Biso   1.000  H
  H109     1.0000 0.55062  0.33118  0.00749  Biso   1.000  H
  H110     1.0000 0.54267  0.21850  0.94177  Biso   1.000  H
  H111     1.0000 0.57819  0.22569  0.83403  Biso   1.000  H
  O33      1.0000 0.59802  0.23620  0.05254  Biso   1.000  O
  C84      1.0000 0.61489  0.17699  0.08231  Biso   1.000  C
  C85      1.0000 0.64810  0.17940  0.18544  Biso   1.000  C
  C86      1.0000 0.59758  0.12521  0.03377  Biso   1.000  C
  S9       1.0000 0.66964  0.25336  0.25734  Biso   1.000  S
  C87      1.0000 0.66760  0.12502  0.23105  Biso   1.000  C
  H112     1.0000 0.57418  0.12699  0.96592  Biso   1.000  H
  C88      1.0000 0.61522  0.06041  0.08725  Biso   1.000  C
  N9       1.0000 0.67962  0.30269  0.11635  Biso   1.000  N
  O34      1.0000 0.63892  0.28210  0.33171  Biso   1.000  O
  O35      1.0000 0.70893  0.24001  0.34081  Biso   1.000  O
  H113     1.0000 0.69122  0.12772  0.29711  Biso   1.000  H
  C89      1.0000 0.65340  0.06441  0.18229  Biso   1.000  C
  O36      1.0000 0.59982  0.00352  0.04040  Biso   1.000  O
  H114     1.0000 0.66541  0.33750  0.10230  Biso   1.000  H
  C90      1.0000 0.71112  0.28909  0.01816  Biso   1.000  C
  S10      1.0000 0.67275  0.99084  0.25824  Biso   1.000  S
  C91      1.0000 0.56487  0.99942  0.93143  Biso   1.000  C
  C92      1.0000 0.69949  0.28620  0.85908  Biso   1.000  C
  C93      1.0000 0.75172  0.29512  0.08040  Biso   1.000  C
  N10      1.0000 0.67950  0.94639  0.11646  Biso   1.000  N
  O37      1.0000 0.64021  0.95569  0.32980  Biso   1.000  O
  O38      1.0000 0.71001  0.00550  0.33867  Biso   1.000  O
  H115     1.0000 0.57030  0.02290  0.84156  Biso   1.000  H
  H116     1.0000 0.54109  0.01851  0.97142  Biso   1.000  H
  C94      1.0000 0.55649  0.93028  0.89346  Biso   1.000  C
  C95      1.0000 0.73019  0.28682  0.76820  Biso   1.000  C
  O39      1.0000 0.65996  0.28658  0.82381  Biso   1.000  O
  C96      1.0000 0.78320  0.29131  0.97996  Biso   1.000  C
  H117     1.0000 0.75812  0.30129  0.18297  Biso   1.000  H
  H118     1.0000 0.66130  0.91722  0.09332  Biso   1.000  H
  C97      1.0000 0.71312  0.95092  0.02445  Biso   1.000  C
  H119     1.0000 0.58218  0.90989  0.87481  Biso   1.000  H
  H120     1.0000 0.54668  0.90941  0.98052  Biso   1.000  H
  C98      1.0000 0.52728  0.91818  0.76606  Biso   1.000  C
  H121     1.0000 0.72419  0.28509  0.66451  Biso   1.000  H
  C99      1.0000 0.77018  0.28991  0.82819  Biso   1.000  C
  C100     1.0000 0.64958  0.29068  0.66844  Biso   1.000  C
  N11      1.0000 0.82542  0.30119  0.03715  Biso   1.000  N
  C101     1.0000 0.70254  0.95521  0.87357  Biso   1.000  C
  C102     1.0000 0.75392  0.95068  0.07411  Biso   1.000  C
  H122     1.0000 0.52318  0.87262  0.75505  Biso   1.000  H
  H123     1.0000 0.53758  0.93539  0.67742  Biso   1.000  H
  H124     1.0000 0.50168  0.93848  0.78213  Biso   1.000  H
  O40      1.0000 0.80418  0.28461  0.74056  Biso   1.000  O
  H125     1.0000 0.62019  0.29020  0.64822  Biso   1.000  H
  H126     1.0000 0.66108  0.25462  0.61957  Biso   1.000  H
  H127     1.0000 0.66030  0.33002  0.63103  Biso   1.000  H
  S11      1.0000 0.85145  0.25158  0.15522  Biso   1.000  S
  H128     1.0000 0.83773  0.33499  0.00827  Biso   1.000  H
  C103     1.0000 0.73388  0.95839  0.77022  Biso   1.000  C
  O41      1.0000 0.66099  0.95791  0.82572  Biso   1.000  O
  C104     1.0000 0.78448  0.95188  0.98243  Biso   1.000  C
  H129     1.0000 0.76110  0.94971  0.17724  Biso   1.000  H
  C105     1.0000 0.79721  0.30081  0.58564  Biso   1.000  C
  C106     1.0000 0.86121  0.17690  0.04782  Biso   1.000  C
  O42      1.0000 0.88960  0.28321  0.17836  Biso   1.000  O
  O43      1.0000 0.82481  0.23822  0.26936  Biso   1.000  O
  C107     1.0000 0.77509  0.95709  0.82235  Biso   1.000  C
  H130     1.0000 0.72638  0.96148  0.66765  Biso   1.000  H
  C108     1.0000 0.64668  0.95169  0.66642  Biso   1.000  C
  N12      1.0000 0.82692  0.94412  0.02378  Biso   1.000  N
  H131     1.0000 0.82270  0.29970  0.54070  Biso   1.000  H
  H132     1.0000 0.78558  0.34328  0.57575  Biso   1.000  H
  H133     1.0000 0.77849  0.27029  0.53599  Biso   1.000  H
  C109     1.0000 0.88055  0.17598  0.92593  Biso   1.000  C
  C110     1.0000 0.85110  0.11610  0.12297  Biso   1.000  C
  O44      1.0000 0.80550  0.95362  0.73596  Biso   1.000  O
  H134     1.0000 0.61720  0.95150  0.65473  Biso   1.000  H
  H135     1.0000 0.65688  0.91220  0.62788  Biso   1.000  H
  H136     1.0000 0.65670  0.98751  0.61204  Biso   1.000  H
  H137     1.0000 0.83999  0.91471  0.98030  Biso   1.000  H
  S12      1.0000 0.85188  0.98920  0.15185  Biso   1.000  S
  C111     1.0000 0.88859  0.11928  0.85886  Biso   1.000  C
  O45      1.0000 0.88887  0.23962  0.87245  Biso   1.000  O
  C112     1.0000 0.86122  0.06181  0.07017  Biso   1.000  C
  H138     1.0000 0.83732  0.11750  0.20937  Biso   1.000  H
  C113     1.0000 0.79610  0.94002  0.57924  Biso   1.000  C
  O46      1.0000 0.89087  0.95911  0.19746  Biso   1.000  O
  O47      1.0000 0.82710  0.00559  0.27127  Biso   1.000  O
  H139     1.0000 0.89968  0.11962  0.76662  Biso   1.000  H
  C114     1.0000 0.88029  0.06041  0.92671  Biso   1.000  C
  C115     1.0000 0.90468  0.24820  0.73910  Biso   1.000  C
  H140     1.0000 0.82068  0.94340  0.52857  Biso   1.000  H
  H141     1.0000 0.77618  0.97040  0.53666  Biso   1.000  H
  H142     1.0000 0.78531  0.89711  0.56733  Biso   1.000  H
  O48      1.0000 0.89074  0.00651  0.87739  Biso   1.000  O
  H143     1.0000 0.88489  0.23398  0.65844  Biso   1.000  H
  H144     1.0000 0.92927  0.22231  0.73629  Biso   1.000  H
  C116     1.0000 0.91480  0.31672  0.71652  Biso   1.000  C
  C117     1.0000 0.90620  0.00251  0.72393  Biso   1.000  C
  H145     1.0000 0.93489  0.33041  0.79696  Biso   1.000  H
  H146     1.0000 0.89018  0.34251  0.72202  Biso   1.000  H
  C118     1.0000 0.93238  0.32930  0.56239  Biso   1.000  C
  H147     1.0000 0.93048  0.02878  0.71854  Biso   1.000  H
  H148     1.0000 0.88530  0.01630  0.64676  Biso   1.000  H
  C119     1.0000 0.91628  0.92990  0.70607  Biso   1.000  C
  H149     1.0000 0.93810  0.37438  0.55272  Biso   1.000  H
  H150     1.0000 0.91259  0.31609  0.48229  Biso   1.000  H
  H151     1.0000 0.95729  0.30510  0.55767  Biso   1.000  H
  H152     1.0000 0.93479  0.91640  0.79145  Biso   1.000  H
  H153     1.0000 0.89120  0.90521  0.70764  Biso   1.000  H
  C120     1.0000 0.93430  0.91582  0.57429  Biso   1.000  C
  H154     1.0000 0.93970  0.87040  0.56991  Biso   1.000  H
  H155     1.0000 0.95970  0.93911  0.57317  Biso   1.000  H
  H156     1.0000 0.91598  0.92821  0.48914  Biso   1.000  H
  C121     1.0000 0.47559  0.32660  0.21974  Biso   1.000  C
  C122     1.0000 0.44051  0.31522  0.08628  Biso   1.000  C
  H157     1.0000 0.48119  0.37192  0.22952  Biso   1.000  H
  H158     1.0000 0.50010  0.30428  0.19806  Biso   1.000  H
  H159     1.0000 0.46648  0.31059  0.31186  Biso   1.000  H
  C123     1.0000 0.43241  0.24189  0.07538  Biso   1.000  C
  H160     1.0000 0.41560  0.33779  0.10661  Biso   1.000  H
  H161     1.0000 0.44936  0.33118  0.99259  Biso   1.000  H
  O49      1.0000 0.40197  0.23620  0.94742  Biso   1.000  O
  H162     1.0000 0.45731  0.21850  0.05831  Biso   1.000  H
  H163     1.0000 0.42180  0.22569  0.16604  Biso   1.000  H
  C124     1.0000 0.38510  0.17699  0.91765  Biso   1.000  C
  C125     1.0000 0.35188  0.17940  0.81452  Biso   1.000  C
  C126     1.0000 0.40241  0.12521  0.96630  Biso   1.000  C
  S13      1.0000 0.33035  0.25336  0.74262  Biso   1.000  S
  C127     1.0000 0.33238  0.12502  0.76891  Biso   1.000  C
  C128     1.0000 0.38476  0.06041  0.91282  Biso   1.000  C
  H164     1.0000 0.42580  0.12699  0.03415  Biso   1.000  H
  N13      1.0000 0.32036  0.30269  0.88361  Biso   1.000  N
  O50      1.0000 0.36107  0.28210  0.66837  Biso   1.000  O
  O51      1.0000 0.29105  0.24001  0.65927  Biso   1.000  O
  H165     1.0000 0.30876  0.12772  0.70297  Biso   1.000  H
  C129     1.0000 0.34658  0.06441  0.81778  Biso   1.000  C
  O52      1.0000 0.40016  0.00352  0.95967  Biso   1.000  O
  C130     1.0000 0.28886  0.28909  0.98191  Biso   1.000  C
  H166     1.0000 0.33457  0.33750  0.89777  Biso   1.000  H
  S14      1.0000 0.32723  0.99084  0.74172  Biso   1.000  S
  C131     1.0000 0.43511  0.99942  0.06864  Biso   1.000  C
  C132     1.0000 0.30050  0.28620  0.14088  Biso   1.000  C
  C133     1.0000 0.24826  0.29512  0.91968  Biso   1.000  C
  N14      1.0000 0.32048  0.94639  0.88361  Biso   1.000  N
  O53      1.0000 0.35977  0.95569  0.67028  Biso   1.000  O
  O54      1.0000 0.28997  0.00550  0.66140  Biso   1.000  O
  H167     1.0000 0.42969  0.02290  0.15852  Biso   1.000  H
  H168     1.0000 0.45889  0.01851  0.02865  Biso   1.000  H
  C134     1.0000 0.44350  0.93028  0.10661  Biso   1.000  C
  C135     1.0000 0.26979  0.28682  0.23176  Biso   1.000  C
  O55      1.0000 0.34002  0.28658  0.17615  Biso   1.000  O
  C136     1.0000 0.21679  0.29131  0.02011  Biso   1.000  C
  H169     1.0000 0.24187  0.30129  0.81711  Biso   1.000  H
  H170     1.0000 0.33868  0.91722  0.90664  Biso   1.000  H
  C137     1.0000 0.28687  0.95092  0.97562  Biso   1.000  C
  H171     1.0000 0.41781  0.90989  0.12515  Biso   1.000  H
  H172     1.0000 0.45331  0.90941  0.01955  Biso   1.000  H
  C138     1.0000 0.47270  0.91818  0.23401  Biso   1.000  C
  H173     1.0000 0.27579  0.28509  0.33545  Biso   1.000  H
  C139     1.0000 0.22980  0.28991  0.17177  Biso   1.000  C
  C140     1.0000 0.35041  0.29068  0.33163  Biso   1.000  C
  N15      1.0000 0.17457  0.30119  0.96281  Biso   1.000  N
  C141     1.0000 0.24606  0.95068  0.92585  Biso   1.000  C
  C142     1.0000 0.29744  0.95521  0.12650  Biso   1.000  C
  H174     1.0000 0.47680  0.87262  0.24502  Biso   1.000  H
  H175     1.0000 0.46241  0.93539  0.32265  Biso   1.000  H
  H176     1.0000 0.49831  0.93848  0.21794  Biso   1.000  H
  O56      1.0000 0.19580  0.28461  0.25951  Biso   1.000  O
  H177     1.0000 0.37980  0.29020  0.35186  Biso   1.000  H
  H178     1.0000 0.33890  0.25462  0.38039  Biso   1.000  H
  H179     1.0000 0.33969  0.33002  0.36904  Biso   1.000  H
  S15      1.0000 0.14854  0.25158  0.84474  Biso   1.000  S
  H180     1.0000 0.16226  0.33499  0.99180  Biso   1.000  H
  C143     1.0000 0.21550  0.95188  0.01764  Biso   1.000  C
  H181     1.0000 0.23889  0.94971  0.82272  Biso   1.000  H
  C144     1.0000 0.26610  0.95839  0.22985  Biso   1.000  C
  O57      1.0000 0.33900  0.95791  0.17436  Biso   1.000  O
  C145     1.0000 0.20281  0.30081  0.41443  Biso   1.000  C
  C146     1.0000 0.13878  0.17690  0.95214  Biso   1.000  C
  O58      1.0000 0.11039  0.28321  0.82171  Biso   1.000  O
  O59      1.0000 0.17517  0.23822  0.73072  Biso   1.000  O
  N16      1.0000 0.17307  0.94412  0.97630  Biso   1.000  N
  C147     1.0000 0.22490  0.95709  0.17773  Biso   1.000  C
  H182     1.0000 0.27360  0.96148  0.33242  Biso   1.000  H
  C148     1.0000 0.35331  0.95169  0.33366  Biso   1.000  C
  H183     1.0000 0.17729  0.29970  0.45937  Biso   1.000  H
  H184     1.0000 0.21441  0.34328  0.42432  Biso   1.000  H
  H185     1.0000 0.22149  0.27029  0.46397  Biso   1.000  H
  C149     1.0000 0.11944  0.17598  0.07415  Biso   1.000  C
  C150     1.0000 0.14889  0.11610  0.87710  Biso   1.000  C
  S16      1.0000 0.14810  0.98920  0.84811  Biso   1.000  S
  H186     1.0000 0.15999  0.91471  0.01966  Biso   1.000  H
  O60      1.0000 0.19448  0.95362  0.26412  Biso   1.000  O
  H187     1.0000 0.38279  0.95150  0.34534  Biso   1.000  H
  H188     1.0000 0.34310  0.91220  0.37208  Biso   1.000  H
  H189     1.0000 0.34329  0.98751  0.38803  Biso   1.000  H
  C151     1.0000 0.11139  0.11928  0.14121  Biso   1.000  C
  O61      1.0000 0.11111  0.23962  0.12762  Biso   1.000  O
  C152     1.0000 0.13877  0.06181  0.92990  Biso   1.000  C
  H190     1.0000 0.16266  0.11750  0.79071  Biso   1.000  H
  O62      1.0000 0.10911  0.95911  0.80261  Biso   1.000  O
  O63      1.0000 0.17289  0.00559  0.72881  Biso   1.000  O
  C153     1.0000 0.20389  0.94002  0.42083  Biso   1.000  C
  H191     1.0000 0.10030  0.11962  0.23345  Biso   1.000  H
  C154     1.0000 0.11969  0.06041  0.07325  Biso   1.000  C
  C155     1.0000 0.09530  0.24820  0.26086  Biso   1.000  C
  H192     1.0000 0.17930  0.94340  0.47139  Biso   1.000  H
  H193     1.0000 0.22380  0.97040  0.46341  Biso   1.000  H
  H194     1.0000 0.21468  0.89711  0.43274  Biso   1.000  H
  O64      1.0000 0.10924  0.00651  0.12257  Biso   1.000  O
  H195     1.0000 0.11510  0.23398  0.34163  Biso   1.000  H
  H196     1.0000 0.07071  0.22231  0.26367  Biso   1.000  H
  C156     1.0000 0.08519  0.31672  0.28355  Biso   1.000  C
  C157     1.0000 0.09379  0.00251  0.27614  Biso   1.000  C
  H197     1.0000 0.06509  0.33041  0.20312  Biso   1.000  H
  H198     1.0000 0.10980  0.34251  0.27805  Biso   1.000  H
  C158     1.0000 0.06760  0.32930  0.43757  Biso   1.000  C
  H199     1.0000 0.06951  0.02878  0.28153  Biso   1.000  H
  H200     1.0000 0.11469  0.01630  0.35332  Biso   1.000  H
  C159     1.0000 0.08371  0.92990  0.29389  Biso   1.000  C
  H201     1.0000 0.06188  0.37438  0.44735  Biso   1.000  H
  H202     1.0000 0.08739  0.31609  0.51767  Biso   1.000  H
  H203     1.0000 0.04270  0.30510  0.44229  Biso   1.000  H
  H204     1.0000 0.06520  0.91640  0.20862  Biso   1.000  H
  H205     1.0000 0.10879  0.90521  0.29243  Biso   1.000  H
  C160     1.0000 0.06568  0.91582  0.42567  Biso   1.000  C
  H206     1.0000 0.06029  0.87040  0.43016  Biso   1.000  H
  H207     1.0000 0.04029  0.93911  0.42679  Biso   1.000  H
  H208     1.0000 0.08401  0.92821  0.51093  Biso   1.000  H
