data_image0
_cell_length_a       12.222
_cell_length_b       14.486
_cell_length_c       21.937
_cell_angle_alpha    89.67
_cell_angle_beta     89.51
_cell_angle_gamma    76.13

_symmetry_space_group_name_H-M    "P 1"
_symmetry_int_tables_number       1

loop_
  _symmetry_equiv_pos_as_xyz
  'x, y, z'

loop_
  _atom_site_label
  _atom_site_occupancy
  _atom_site_fract_x
  _atom_site_fract_y
  _atom_site_fract_z
  _atom_site_thermal_displace_type
  _atom_site_B_iso_or_equiv
  _atom_site_type_symbol
  C1       1.0000 0.54883  0.52060  0.57782  Biso   1.000  C
  C2       1.0000 0.51559  0.61362  0.60011  Biso   1.000  C
  H1       1.0000 0.49634  0.48371  0.57558  Biso   1.000  H
  C3       1.0000 0.65924  0.48289  0.55903  Biso   1.000  C
  C4       1.0000 0.39465  0.65131  0.62290  Biso   1.000  C
  C5       1.0000 0.59521  0.66728  0.60325  Biso   1.000  C
  C6       1.0000 0.73782  0.53742  0.56054  Biso   1.000  C
  O1       1.0000 0.69644  0.39021  0.53888  Biso   1.000  O
  C7       1.0000 0.38151  0.62291  0.68827  Biso   1.000  C
  H2       1.0000 0.34383  0.62650  0.59751  Biso   1.000  H
  H3       1.0000 0.37428  0.72002  0.61948  Biso   1.000  H
  O2       1.0000 0.55816  0.75780  0.62732  Biso   1.000  O
  C8       1.0000 0.70433  0.62986  0.58301  Biso   1.000  C
  C9       1.0000 0.86103  0.49700  0.54167  Biso   1.000  C
  C10      1.0000 0.62123  0.32982  0.54404  Biso   1.000  C
  C11      1.0000 0.35623  0.53657  0.70300  Biso   1.000  C
  C12      1.0000 0.39923  0.68121  0.73564  Biso   1.000  C
  C13      1.0000 0.63753  0.81487  0.63129  Biso   1.000  C
  H4       1.0000 0.75647  0.66718  0.58438  Biso   1.000  H
  C14      1.0000 0.93003  0.45451  0.59646  Biso   1.000  C
  H5       1.0000 0.89160  0.54730  0.52421  Biso   1.000  H
  H6       1.0000 0.86498  0.44847  0.51089  Biso   1.000  H
  H7       1.0000 0.59702  0.32722  0.58607  Biso   1.000  H
  H8       1.0000 0.55513  0.35442  0.51928  Biso   1.000  H
  C15      1.0000 0.68080  0.23132  0.52261  Biso   1.000  C
  O3       1.0000 0.33681  0.48318  0.65367  Biso   1.000  O
  C16      1.0000 0.34977  0.50969  0.76336  Biso   1.000  C
  H9       1.0000 0.41529  0.73950  0.72670  Biso   1.000  H
  C17      1.0000 0.39348  0.65326  0.79627  Biso   1.000  C
  H10      1.0000 0.70044  0.78330  0.65641  Biso   1.000  H
  H11      1.0000 0.66595  0.82471  0.59099  Biso   1.000  H
  C18      1.0000 0.57947  0.90942  0.65919  Biso   1.000  C
  C19      1.0000 0.98371  0.50926  0.63234  Biso   1.000  C
  C20      1.0000 0.93732  0.36112  0.61337  Biso   1.000  C
  H12      1.0000 0.73899  0.20320  0.55160  Biso   1.000  H
  H13      1.0000 0.71692  0.23617  0.48359  Biso   1.000  H
  C21      1.0000 0.60015  0.16736  0.51618  Biso   1.000  C
  C22      1.0000 0.33640  0.38592  0.66320  Biso   1.000  C
  C23      1.0000 0.36717  0.56771  0.81054  Biso   1.000  C
  H14      1.0000 0.33348  0.45161  0.77247  Biso   1.000  H
  O4       1.0000 0.41205  0.70737  0.84482  Biso   1.000  O
  H15      1.0000 0.55613  0.89922  0.70049  Biso   1.000  H
  H16      1.0000 0.51251  0.93757  0.63599  Biso   1.000  H
  C24      1.0000 0.65585  0.97690  0.65987  Biso   1.000  C
  O5       1.0000 0.97737  0.60089  0.61278  Biso   1.000  O
  C25      1.0000 0.03814  0.47147  0.68586  Biso   1.000  C
  C26      1.0000 0.99421  0.32191  0.66575  Biso   1.000  C
  H17      1.0000 0.90338  0.32350  0.58917  Biso   1.000  H
  H18      1.0000 0.57046  0.15710  0.55607  Biso   1.000  H
  H19      1.0000 0.53733  0.19916  0.49097  Biso   1.000  H
  C27      1.0000 0.65509  0.07140  0.48801  Biso   1.000  C
  C28      1.0000 0.30180  0.34787  0.60458  Biso   1.000  C
  H20      1.0000 0.41077  0.34987  0.67487  Biso   1.000  H
  H21      1.0000 0.28371  0.38039  0.69557  Biso   1.000  H
  C29      1.0000 0.35950  0.53695  0.87710  Biso   1.000  C
  C30      1.0000 0.44041  0.79576  0.83160  Biso   1.000  C
  H22      1.0000 0.68016  0.98518  0.61848  Biso   1.000  H
  H23      1.0000 0.72240  0.94817  0.68330  Biso   1.000  H
  C31      1.0000 0.60345  0.07323  0.68618  Biso   1.000  C
  C32      1.0000 0.06216  0.64569  0.63471  Biso   1.000  C
  C33      1.0000 0.04412  0.37836  0.70314  Biso   1.000  C
  H24      1.0000 0.07081  0.50950  0.71029  Biso   1.000  H
  O6       1.0000 0.00925  0.22887  0.68340  Biso   1.000  O
  H25      1.0000 0.60027  0.03416  0.48450  Biso   1.000  H
  H26      1.0000 0.68422  0.08102  0.44830  Biso   1.000  H
  H27      1.0000 0.71562  0.03839  0.51349  Biso   1.000  H
  C34      1.0000 0.29612  0.24488  0.61018  Biso   1.000  C
  H28      1.0000 0.22854  0.38605  0.59268  Biso   1.000  H
  H29      1.0000 0.35539  0.35361  0.57280  Biso   1.000  H
  H30      1.0000 0.30754  0.49591  0.88010  Biso   1.000  H
  H31      1.0000 0.32944  0.59276  0.90180  Biso   1.000  H
  C35      1.0000 0.47289  0.48497  0.90221  Biso   1.000  C
  H32      1.0000 0.50784  0.78496  0.80639  Biso   1.000  H
  H33      1.0000 0.37933  0.83770  0.80967  Biso   1.000  H
  C36      1.0000 0.45986  0.83985  0.89109  Biso   1.000  C
  H34      1.0000 0.65752  0.11163  0.68540  Biso   1.000  H
  H35      1.0000 0.53904  0.10338  0.66247  Biso   1.000  H
  H36      1.0000 0.58032  0.06601  0.72757  Biso   1.000  H
  H37      1.0000 0.04328  0.66991  0.67560  Biso   1.000  H
  H38      1.0000 0.13482  0.60039  0.63580  Biso   1.000  H
  C37      1.0000 0.06626  0.72808  0.59058  Biso   1.000  C
  C38      1.0000 0.10381  0.33705  0.76144  Biso   1.000  C
  C39      1.0000 0.95794  0.16771  0.64848  Biso   1.000  C
  C40      1.0000 0.25291  0.20767  0.55311  Biso   1.000  C
  H39      1.0000 0.37085  0.20629  0.61898  Biso   1.000  H
  H40      1.0000 0.24724  0.23856  0.64419  Biso   1.000  H
  C41      1.0000 0.54184  0.53386  0.93134  Biso   1.000  C
  C42      1.0000 0.51024  0.38695  0.89601  Biso   1.000  C
  H41      1.0000 0.52134  0.79685  0.91197  Biso   1.000  H
  H42      1.0000 0.48301  0.89821  0.88270  Biso   1.000  H
  C43      1.0000 0.35860  0.86221  0.93308  Biso   1.000  C
  C44      1.0000 0.96330  0.80140  0.58958  Biso   1.000  C
  H43      1.0000 0.08221  0.70266  0.54978  Biso   1.000  H
  H44      1.0000 0.12773  0.75589  0.60221  Biso   1.000  H
  C45      1.0000 0.02620  0.33630  0.81542  Biso   1.000  C
  H45      1.0000 0.15779  0.37368  0.77211  Biso   1.000  H
  H46      1.0000 0.14570  0.27239  0.75351  Biso   1.000  H
  H47      1.0000 0.87648  0.18667  0.65290  Biso   1.000  H
  H48      1.0000 0.97701  0.17117  0.60558  Biso   1.000  H
  C46      1.0000 0.00180  0.06795  0.67209  Biso   1.000  C
  H49      1.0000 0.25092  0.14236  0.55917  Biso   1.000  H
  H50      1.0000 0.17836  0.24477  0.54449  Biso   1.000  H
  H51      1.0000 0.30205  0.21221  0.51951  Biso   1.000  H
  H52      1.0000 0.51743  0.59939  0.93590  Biso   1.000  H
  C47      1.0000 0.64653  0.48729  0.95409  Biso   1.000  C
  O7       1.0000 0.43938  0.34198  0.86570  Biso   1.000  O
  C48      1.0000 0.61430  0.33938  0.91949  Biso   1.000  C
  H53      1.0000 0.29419  0.89917  0.91119  Biso   1.000  H
  H54      1.0000 0.34083  0.80340  0.94630  Biso   1.000  H
  C49      1.0000 0.38054  0.91791  0.98897  Biso   1.000  C
  H55      1.0000 0.90137  0.77438  0.57777  Biso   1.000  H
  H56      1.0000 0.94732  0.82811  0.63010  Biso   1.000  H
  C50      1.0000 0.97401  0.88167  0.54349  Biso   1.000  C
  C51      1.0000 0.99987  0.41357  0.85517  Biso   1.000  C
  C52      1.0000 0.97955  0.26030  0.82668  Biso   1.000  C
  H57      1.0000 0.99021  0.06748  0.71590  Biso   1.000  H
  H58      1.0000 0.95904  0.02675  0.65408  Biso   1.000  H
  C53      1.0000 0.12636  0.02857  0.65810  Biso   1.000  C
  O8       1.0000 0.71778  0.53326  0.98322  Biso   1.000  O
  C54      1.0000 0.68404  0.38927  0.94848  Biso   1.000  C
  C55      1.0000 0.47091  0.24160  0.86119  Biso   1.000  C
  H59      1.0000 0.63768  0.27370  0.91580  Biso   1.000  H
  H60      1.0000 0.39625  0.97679  0.97607  Biso   1.000  H
  H61      1.0000 0.31530  0.93069  0.01509  Biso   1.000  H
  H62      1.0000 0.44395  0.88102  0.01098  Biso   1.000  H
  H63      1.0000 0.90561  0.93087  0.54399  Biso   1.000  H
  H64      1.0000 0.98719  0.85560  0.50328  Biso   1.000  H
  H65      1.0000 0.03593  0.90791  0.55507  Biso   1.000  H
  C56      1.0000 0.93131  0.41086  0.90541  Biso   1.000  C
  O9       1.0000 0.04599  0.48931  0.84072  Biso   1.000  O
  C57      1.0000 0.90773  0.25901  0.87568  Biso   1.000  C
  H66      1.0000 0.99688  0.20819  0.80069  Biso   1.000  H
  C58      1.0000 0.17672  0.93156  0.68640  Biso   1.000  C
  H67      1.0000 0.13635  0.02372  0.61419  Biso   1.000  H
  H68      1.0000 0.16782  0.07335  0.67250  Biso   1.000  H
  C59      1.0000 0.68874  0.63446  0.98108  Biso   1.000  C
  C60      1.0000 0.80117  0.33760  0.96859  Biso   1.000  C
  H69      1.0000 0.54187  0.22168  0.83939  Biso   1.000  H
  H70      1.0000 0.47967  0.21320  0.90158  Biso   1.000  H
  C61      1.0000 0.37878  0.21059  0.82741  Biso   1.000  C
  C62      1.0000 0.88349  0.33435  0.91616  Biso   1.000  C
  H71      1.0000 0.91686  0.46139  0.93257  Biso   1.000  H
  C63      1.0000 0.01608  0.57186  0.87787  Biso   1.000  C
  O10      1.0000 0.85801  0.18428  0.88731  Biso   1.000  O
  H72      1.0000 0.25516  0.91178  0.67560  Biso   1.000  H
  H73      1.0000 0.16905  0.93578  0.72989  Biso   1.000  H
  H74      1.0000 0.13784  0.88607  0.67150  Biso   1.000  H
  H75      1.0000 0.68106  0.65597  0.93909  Biso   1.000  H
  H76      1.0000 0.61738  0.65872  0.00178  Biso   1.000  H
  C64      1.0000 0.78048  0.67132  0.01181  Biso   1.000  C
  H77      1.0000 0.80098  0.27338  0.98140  Biso   1.000  H
  H78      1.0000 0.82408  0.37031  0.00301  Biso   1.000  H
  H79      1.0000 0.37947  0.23061  0.78510  Biso   1.000  H
  H80      1.0000 0.30641  0.24177  0.84487  Biso   1.000  H
  C65      1.0000 0.39269  0.10420  0.83000  Biso   1.000  C
  H81      1.0000 0.93495  0.59131  0.88339  Biso   1.000  H
  H82      1.0000 0.05079  0.55925  0.91767  Biso   1.000  H
  C66      1.0000 0.05896  0.64935  0.84487  Biso   1.000  C
  C67      1.0000 0.87258  0.11087  0.84386  Biso   1.000  C
  H83      1.0000 0.85231  0.64299  0.99280  Biso   1.000  H
  H84      1.0000 0.78468  0.65251  0.05438  Biso   1.000  H
  C68      1.0000 0.75780  0.77900  0.00729  Biso   1.000  C
  H85      1.0000 0.46778  0.07278  0.81596  Biso   1.000  H
  H86      1.0000 0.38477  0.08489  0.87190  Biso   1.000  H
  C69      1.0000 0.30644  0.07265  0.79098  Biso   1.000  C
  H87      1.0000 0.02425  0.65819  0.80498  Biso   1.000  H
  H88      1.0000 0.13939  0.62578  0.83839  Biso   1.000  H
  C70      1.0000 0.04117  0.73956  0.87249  Biso   1.000  C
  H89      1.0000 0.85148  0.13806  0.80397  Biso   1.000  H
  H90      1.0000 0.95140  0.07718  0.84218  Biso   1.000  H
  C71      1.0000 0.80196  0.04237  0.86000  Biso   1.000  C
  H91      1.0000 0.75164  0.79696  0.96449  Biso   1.000  H
  H92      1.0000 0.68558  0.80640  0.02639  Biso   1.000  H
  C72      1.0000 0.84487  0.82121  0.03578  Biso   1.000  C
  H93      1.0000 0.31857  0.00480  0.79308  Biso   1.000  H
  H94      1.0000 0.23195  0.10164  0.80571  Biso   1.000  H
  H95      1.0000 0.31389  0.09160  0.74941  Biso   1.000  H
  H96      1.0000 0.96168  0.76546  0.88047  Biso   1.000  H
  H97      1.0000 0.08170  0.73507  0.91060  Biso   1.000  H
  C73      1.0000 0.08764  0.80490  0.82508  Biso   1.000  C
  H98      1.0000 0.72460  0.07761  0.86606  Biso   1.000  H
  H99      1.0000 0.82849  0.01086  0.89807  Biso   1.000  H
  C74      1.0000 0.80493  0.96857  0.81200  Biso   1.000  C
  H100     1.0000 0.82326  0.88914  0.03159  Biso   1.000  H
  H101     1.0000 0.85120  0.80439  0.07818  Biso   1.000  H
  H102     1.0000 0.91607  0.79715  0.01582  Biso   1.000  H
  H103     1.0000 0.07934  0.86716  0.84199  Biso   1.000  H
  H104     1.0000 0.16598  0.77729  0.81678  Biso   1.000  H
  H105     1.0000 0.04584  0.80946  0.78788  Biso   1.000  H
  H106     1.0000 0.78380  0.00008  0.77329  Biso   1.000  H
  H107     1.0000 0.88155  0.93034  0.80799  Biso   1.000  H
  C75      1.0000 0.72875  0.90449  0.82558  Biso   1.000  C
  H108     1.0000 0.73593  0.85789  0.79390  Biso   1.000  H
  H109     1.0000 0.74906  0.87298  0.86388  Biso   1.000  H
  H110     1.0000 0.65227  0.94117  0.82768  Biso   1.000  H
  C76      1.0000 0.45100  0.47937  0.42214  Biso   1.000  C
  C77      1.0000 0.48422  0.38642  0.39989  Biso   1.000  C
  C78      1.0000 0.34059  0.51708  0.44096  Biso   1.000  C
  H111     1.0000 0.50355  0.51633  0.42437  Biso   1.000  H
  C79      1.0000 0.40462  0.33268  0.39674  Biso   1.000  C
  C80      1.0000 0.60518  0.34866  0.37710  Biso   1.000  C
  C81      1.0000 0.26199  0.46262  0.43941  Biso   1.000  C
  O11      1.0000 0.30337  0.60983  0.46107  Biso   1.000  O
  O12      1.0000 0.44167  0.24217  0.37267  Biso   1.000  O
  C82      1.0000 0.29550  0.37011  0.41699  Biso   1.000  C
  H112     1.0000 0.65608  0.37346  0.40249  Biso   1.000  H
  H113     1.0000 0.62553  0.28002  0.38052  Biso   1.000  H
  C83      1.0000 0.61832  0.37706  0.31172  Biso   1.000  C
  C84      1.0000 0.13880  0.50297  0.45833  Biso   1.000  C
  C85      1.0000 0.37858  0.67022  0.45596  Biso   1.000  C
  C86      1.0000 0.36239  0.18509  0.36871  Biso   1.000  C
  H114     1.0000 0.24337  0.33279  0.41557  Biso   1.000  H
  C87      1.0000 0.60058  0.31883  0.26436  Biso   1.000  C
  C88      1.0000 0.64360  0.46340  0.29700  Biso   1.000  C
  C89      1.0000 0.06980  0.54546  0.40354  Biso   1.000  C
  H115     1.0000 0.10823  0.45267  0.47579  Biso   1.000  H
  H116     1.0000 0.13485  0.55149  0.48910  Biso   1.000  H
  H117     1.0000 0.40279  0.67282  0.41389  Biso   1.000  H
  H118     1.0000 0.44468  0.64562  0.48067  Biso   1.000  H
  C90      1.0000 0.31902  0.76872  0.47734  Biso   1.000  C
  H119     1.0000 0.29939  0.21667  0.34359  Biso   1.000  H
  H120     1.0000 0.33388  0.17525  0.40901  Biso   1.000  H
  C91      1.0000 0.42034  0.09062  0.34081  Biso   1.000  C
  H121     1.0000 0.58454  0.26047  0.27329  Biso   1.000  H
  C92      1.0000 0.60635  0.34670  0.20373  Biso   1.000  C
  O13      1.0000 0.66302  0.51679  0.34633  Biso   1.000  O
  C93      1.0000 0.65006  0.49028  0.23660  Biso   1.000  C
  C94      1.0000 0.01612  0.49071  0.36766  Biso   1.000  C
  C95      1.0000 0.06249  0.63892  0.38662  Biso   1.000  C
  H122     1.0000 0.26084  0.79677  0.44839  Biso   1.000  H
  H123     1.0000 0.28291  0.76379  0.51641  Biso   1.000  H
  C96      1.0000 0.39969  0.83261  0.48377  Biso   1.000  C
  H124     1.0000 0.44368  0.10082  0.29951  Biso   1.000  H
  H125     1.0000 0.48732  0.06239  0.36401  Biso   1.000  H
  C97      1.0000 0.34398  0.02307  0.34008  Biso   1.000  C
  O14      1.0000 0.58778  0.29260  0.15513  Biso   1.000  O
  C98      1.0000 0.63264  0.43233  0.18946  Biso   1.000  C
  C99      1.0000 0.66341  0.61412  0.33680  Biso   1.000  C
  H126     1.0000 0.66633  0.54843  0.22748  Biso   1.000  H
  O15      1.0000 0.02246  0.39908  0.38722  Biso   1.000  O
  C100     1.0000 0.96169  0.52850  0.31414  Biso   1.000  C
  C101     1.0000 0.00560  0.67813  0.33424  Biso   1.000  C
  H127     1.0000 0.09645  0.67647  0.41079  Biso   1.000  H
  H128     1.0000 0.42945  0.84287  0.44388  Biso   1.000  H
  H129     1.0000 0.46250  0.80081  0.50898  Biso   1.000  H
  C102     1.0000 0.34474  0.92857  0.51199  Biso   1.000  C
  H130     1.0000 0.31968  0.01479  0.38147  Biso   1.000  H
  H131     1.0000 0.27743  0.05180  0.31669  Biso   1.000  H
  C103     1.0000 0.39638  0.92674  0.31378  Biso   1.000  C
  C104     1.0000 0.55942  0.20421  0.16840  Biso   1.000  C
  C105     1.0000 0.64033  0.46302  0.12286  Biso   1.000  C
  H132     1.0000 0.58906  0.65010  0.32508  Biso   1.000  H
  H133     1.0000 0.71612  0.61958  0.30438  Biso   1.000  H
  C106     1.0000 0.69803  0.65210  0.39542  Biso   1.000  C
  C107     1.0000 0.93767  0.35427  0.36529  Biso   1.000  C
  C108     1.0000 0.95571  0.62161  0.29682  Biso   1.000  C
  H134     1.0000 0.92902  0.49047  0.28971  Biso   1.000  H
  O16      1.0000 0.99058  0.77110  0.31656  Biso   1.000  O
  H135     1.0000 0.39956  0.96581  0.51550  Biso   1.000  H
  H136     1.0000 0.31559  0.91902  0.55169  Biso   1.000  H
  H137     1.0000 0.28421  0.96157  0.48651  Biso   1.000  H
  H138     1.0000 0.34231  0.88834  0.31460  Biso   1.000  H
  H139     1.0000 0.46079  0.89659  0.33748  Biso   1.000  H
  H140     1.0000 0.41951  0.93396  0.27238  Biso   1.000  H
  H141     1.0000 0.49199  0.21501  0.19361  Biso   1.000  H
  H142     1.0000 0.62051  0.16227  0.19028  Biso   1.000  H
  C109     1.0000 0.53997  0.16012  0.10891  Biso   1.000  C
  H143     1.0000 0.69226  0.50413  0.11989  Biso   1.000  H
  H144     1.0000 0.67039  0.40720  0.09819  Biso   1.000  H
  C110     1.0000 0.52694  0.51500  0.09778  Biso   1.000  C
  H145     1.0000 0.77129  0.61391  0.40728  Biso   1.000  H
  H146     1.0000 0.64444  0.64636  0.42720  Biso   1.000  H
  C111     1.0000 0.70371  0.75509  0.38982  Biso   1.000  C
  H147     1.0000 0.95655  0.33006  0.32440  Biso   1.000  H
  H148     1.0000 0.86501  0.39958  0.36420  Biso   1.000  H
  C112     1.0000 0.93357  0.27188  0.40937  Biso   1.000  C
  C113     1.0000 0.89602  0.66292  0.23856  Biso   1.000  C
  C114     1.0000 0.04195  0.83233  0.35148  Biso   1.000  C
  H149     1.0000 0.47849  0.20312  0.08798  Biso   1.000  H
  H150     1.0000 0.51682  0.10176  0.11730  Biso   1.000  H
  C115     1.0000 0.64121  0.13783  0.06688  Biso   1.000  C
  C116     1.0000 0.45799  0.46611  0.06861  Biso   1.000  C
  C117     1.0000 0.48959  0.61302  0.10398  Biso   1.000  C
  H151     1.0000 0.62898  0.79368  0.38097  Biso   1.000  H
  H152     1.0000 0.75259  0.76141  0.35581  Biso   1.000  H
  C118     1.0000 0.74692  0.79230  0.44689  Biso   1.000  C
  C119     1.0000 0.03653  0.19857  0.41037  Biso   1.000  C
  H153     1.0000 0.91762  0.29731  0.45017  Biso   1.000  H
  H154     1.0000 0.87210  0.24408  0.39779  Biso   1.000  H
  C120     1.0000 0.97361  0.66374  0.18458  Biso   1.000  C
  H155     1.0000 0.84204  0.62629  0.22789  Biso   1.000  H
  H156     1.0000 0.85413  0.72758  0.24649  Biso   1.000  H
  H157     1.0000 0.12335  0.81330  0.34710  Biso   1.000  H
  H158     1.0000 0.02282  0.82880  0.39437  Biso   1.000  H
  C121     1.0000 0.99803  0.93202  0.32791  Biso   1.000  C
  H159     1.0000 0.70572  0.10080  0.08880  Biso   1.000  H
  H160     1.0000 0.65900  0.19657  0.05370  Biso   1.000  H
  C122     1.0000 0.61927  0.08213  0.01099  Biso   1.000  C
  H161     1.0000 0.48240  0.40058  0.06410  Biso   1.000  H
  C123     1.0000 0.35330  0.51268  0.04591  Biso   1.000  C
  O17      1.0000 0.56045  0.65799  0.13430  Biso   1.000  O
  C124     1.0000 0.38553  0.66059  0.08051  Biso   1.000  C
  H162     1.0000 0.74891  0.85761  0.44078  Biso   1.000  H
  H163     1.0000 0.82147  0.75520  0.45551  Biso   1.000  H
  H164     1.0000 0.69778  0.78776  0.48049  Biso   1.000  H
  H165     1.0000 0.09846  0.22559  0.42218  Biso   1.000  H
  H166     1.0000 0.05259  0.17186  0.36989  Biso   1.000  H
  C125     1.0000 0.02582  0.11830  0.45651  Biso   1.000  C
  C126     1.0000 0.99996  0.58640  0.14483  Biso   1.000  C
  C127     1.0000 0.02028  0.73967  0.17332  Biso   1.000  C
  H167     1.0000 0.00962  0.93249  0.28410  Biso   1.000  H
  H168     1.0000 0.04079  0.97322  0.34591  Biso   1.000  H
  C128     1.0000 0.87347  0.97140  0.34190  Biso   1.000  C
  H169     1.0000 0.60359  0.02318  0.02389  Biso   1.000  H
  H170     1.0000 0.68453  0.06928  0.98487  Biso   1.000  H
  H171     1.0000 0.55588  0.11895  0.98897  Biso   1.000  H
  O18      1.0000 0.28205  0.46671  0.01673  Biso   1.000  O
  C129     1.0000 0.31579  0.61070  0.05151  Biso   1.000  C
  C130     1.0000 0.52890  0.75844  0.13881  Biso   1.000  C
  H172     1.0000 0.36213  0.72634  0.08420  Biso   1.000  H
  H173     1.0000 0.09422  0.06910  0.45601  Biso   1.000  H
  H174     1.0000 0.01264  0.14437  0.49667  Biso   1.000  H
  H175     1.0000 0.96391  0.09206  0.44488  Biso   1.000  H
  C131     1.0000 0.06853  0.58911  0.09455  Biso   1.000  C
  O19      1.0000 0.95382  0.51073  0.15928  Biso   1.000  O
  H176     1.0000 0.00295  0.79178  0.19931  Biso   1.000  H
  C132     1.0000 0.09208  0.74103  0.12432  Biso   1.000  C
  H177     1.0000 0.86346  0.97632  0.38580  Biso   1.000  H
  H178     1.0000 0.83201  0.92661  0.32750  Biso   1.000  H
  C133     1.0000 0.82311  0.06841  0.31359  Biso   1.000  C
  C134     1.0000 0.31109  0.36551  0.01892  Biso   1.000  C
  C135     1.0000 0.19866  0.66237  0.03141  Biso   1.000  C
  H179     1.0000 0.45796  0.77829  0.16060  Biso   1.000  H
  H180     1.0000 0.52014  0.78684  0.09838  Biso   1.000  H
  C136     1.0000 0.62105  0.78938  0.17259  Biso   1.000  C
  C137     1.0000 0.11634  0.66562  0.08383  Biso   1.000  C
  H181     1.0000 0.08297  0.53858  0.06738  Biso   1.000  H
  C138     1.0000 0.98375  0.42811  0.12208  Biso   1.000  C
  O20      1.0000 0.14182  0.81569  0.11269  Biso   1.000  O
  H182     1.0000 0.74467  0.08818  0.32440  Biso   1.000  H
  H183     1.0000 0.83078  0.06419  0.27010  Biso   1.000  H
  H184     1.0000 0.86199  0.11390  0.32850  Biso   1.000  H
  H185     1.0000 0.31877  0.34400  0.06090  Biso   1.000  H
  H186     1.0000 0.38245  0.34125  0.99818  Biso   1.000  H
  C139     1.0000 0.21935  0.32865  0.98819  Biso   1.000  C
  H187     1.0000 0.19885  0.72659  0.01860  Biso   1.000  H
  H188     1.0000 0.17575  0.62966  0.99699  Biso   1.000  H
  H189     1.0000 0.62034  0.76943  0.21490  Biso   1.000  H
  H190     1.0000 0.69342  0.75820  0.15509  Biso   1.000  H
  C140     1.0000 0.60714  0.89577  0.16999  Biso   1.000  C
  H191     1.0000 0.06486  0.40873  0.11661  Biso   1.000  H
  H192     1.0000 0.94904  0.44072  0.08228  Biso   1.000  H
  C141     1.0000 0.94087  0.35062  0.15509  Biso   1.000  C
  C142     1.0000 0.12725  0.88910  0.15609  Biso   1.000  C
  H193     1.0000 0.14752  0.35698  0.00720  Biso   1.000  H
  H194     1.0000 0.21516  0.34746  0.94557  Biso   1.000  H
  C143     1.0000 0.24203  0.22097  0.99271  Biso   1.000  C
  H195     1.0000 0.53205  0.92719  0.18399  Biso   1.000  H
  H196     1.0000 0.61506  0.91507  0.12810  Biso   1.000  H
  C144     1.0000 0.69339  0.92732  0.20902  Biso   1.000  C
  H197     1.0000 0.97558  0.34178  0.19498  Biso   1.000  H
  H198     1.0000 0.86044  0.37419  0.16161  Biso   1.000  H
  C145     1.0000 0.95866  0.26041  0.12751  Biso   1.000  C
  H199     1.0000 0.14835  0.86191  0.19598  Biso   1.000  H
  H200     1.0000 0.04843  0.92279  0.15778  Biso   1.000  H
  C146     1.0000 0.19787  0.95760  0.14000  Biso   1.000  C
  H201     1.0000 0.24819  0.20301  0.03551  Biso   1.000  H
  H202     1.0000 0.31425  0.19356  0.97361  Biso   1.000  H
  C147     1.0000 0.15496  0.17876  0.96417  Biso   1.000  C
  H203     1.0000 0.68126  0.99517  0.20687  Biso   1.000  H
  H204     1.0000 0.76796  0.89833  0.19429  Biso   1.000  H
  H205     1.0000 0.68594  0.90837  0.25059  Biso   1.000  H
  H206     1.0000 0.03815  0.23450  0.11948  Biso   1.000  H
  H207     1.0000 0.91821  0.26490  0.08940  Biso   1.000  H
  C148     1.0000 0.91219  0.19507  0.17492  Biso   1.000  C
  H208     1.0000 0.27521  0.92244  0.13389  Biso   1.000  H
  H209     1.0000 0.17134  0.98911  0.10189  Biso   1.000  H
  C149     1.0000 0.19490  0.03140  0.18800  Biso   1.000  C
  H210     1.0000 0.17657  0.11083  0.96836  Biso   1.000  H
  H211     1.0000 0.14863  0.19558  0.92177  Biso   1.000  H
  H212     1.0000 0.08374  0.20289  0.98418  Biso   1.000  H
  H213     1.0000 0.92049  0.13281  0.15800  Biso   1.000  H
  H214     1.0000 0.83385  0.22268  0.18321  Biso   1.000  H
  H215     1.0000 0.95399  0.19051  0.21212  Biso   1.000  H
  H216     1.0000 0.21603  0.99988  0.22670  Biso   1.000  H
  H217     1.0000 0.11828  0.06963  0.19201  Biso   1.000  H
  C150     1.0000 0.27106  0.09555  0.17442  Biso   1.000  C
  H218     1.0000 0.26388  0.14215  0.20610  Biso   1.000  H
  H219     1.0000 0.25085  0.12699  0.13608  Biso   1.000  H
  H220     1.0000 0.34764  0.05880  0.17232  Biso   1.000  H
