data_image0
_cell_length_a       15.853
_cell_length_b       15.853
_cell_length_c       33.088
_cell_angle_alpha    90
_cell_angle_beta     90
_cell_angle_gamma    120

_symmetry_space_group_name_H-M    "P 1"
_symmetry_int_tables_number       1

loop_
  _symmetry_equiv_pos_as_xyz
  'x, y, z'

loop_
  _atom_site_label
  _atom_site_occupancy
  _atom_site_fract_x
  _atom_site_fract_y
  _atom_site_fract_z
  _atom_site_thermal_displace_type
  _atom_site_B_iso_or_equiv
  _atom_site_type_symbol
  C1       1.0000 0.32411  0.47148  0.44170  Biso   1.000  C
  N1       1.0000 0.29089  0.51453  0.41096  Biso   1.000  N
  C2       1.0000 0.28511  0.46828  0.48320  Biso   1.000  C
  H1       1.0000 0.39607  0.50928  0.44279  Biso   1.000  H
  H2       1.0000 0.30492  0.40432  0.43330  Biso   1.000  H
  C3       1.0000 0.33054  0.51424  0.37101  Biso   1.000  C
  H3       1.0000 0.30971  0.57753  0.41810  Biso   1.000  H
  H4       1.0000 0.22392  0.48000  0.40979  Biso   1.000  H
  C4       1.0000 0.23057  0.51249  0.49278  Biso   1.000  C
  C5       1.0000 0.30398  0.41911  0.51339  Biso   1.000  C
  H5       1.0000 0.30662  0.44621  0.36219  Biso   1.000  H
  H6       1.0000 0.40252  0.54818  0.37231  Biso   1.000  H
  C6       1.0000 0.29823  0.56530  0.34121  Biso   1.000  C
  C7       1.0000 0.19232  0.50324  0.53279  Biso   1.000  C
  H7       1.0000 0.21903  0.54883  0.47289  Biso   1.000  H
  H8       1.0000 0.34292  0.39063  0.50750  Biso   1.000  H
  C8       1.0000 0.26682  0.41088  0.55210  Biso   1.000  C
  N2       1.0000 0.33328  0.66669  0.35330  Biso   1.000  N
  H9       1.0000 0.32367  0.56420  0.31401  Biso   1.000  H
  H10      1.0000 0.22623  0.53004  0.33970  Biso   1.000  H
  C9       1.0000 0.21033  0.45283  0.56205  Biso   1.000  C
  H11      1.0000 0.15389  0.53208  0.53920  Biso   1.000  H
  H12      1.0000 0.28011  0.37628  0.57211  Biso   1.000  H
  C10      1.0000 0.26713  0.70179  0.34121  Biso   1.000  C
  C11      1.0000 0.43470  0.73290  0.34121  Biso   1.000  C
  C12      1.0000 0.16923  0.44293  0.60400  Biso   1.000  C
  C13      1.0000 0.18369  0.66953  0.37101  Biso   1.000  C
  H13      1.0000 0.24050  0.67630  0.31401  Biso   1.000  H
  H14      1.0000 0.30384  0.77383  0.33970  Biso   1.000  H
  C14      1.0000 0.48580  0.81630  0.37101  Biso   1.000  C
  H15      1.0000 0.43582  0.75948  0.31401  Biso   1.000  H
  H16      1.0000 0.47003  0.69619  0.33970  Biso   1.000  H
  N3       1.0000 0.24706  0.50018  0.63386  Biso   1.000  N
  H17      1.0000 0.12127  0.46558  0.60400  Biso   1.000  H
  H18      1.0000 0.13467  0.37329  0.61200  Biso   1.000  H
  N4       1.0000 0.22359  0.70908  0.41096  Biso   1.000  N
  H19      1.0000 0.13962  0.69342  0.36219  Biso   1.000  H
  H20      1.0000 0.14571  0.59749  0.37231  Biso   1.000  H
  N5       1.0000 0.48552  0.77638  0.41096  Biso   1.000  N
  H21      1.0000 0.55379  0.86044  0.36219  Biso   1.000  H
  H22      1.0000 0.45182  0.85432  0.37231  Biso   1.000  H
  H23      1.0000 0.28240  0.56391  0.62539  Biso   1.000  H
  C15      1.0000 0.20525  0.49654  0.67441  Biso   1.000  C
  H24      1.0000 0.28882  0.47570  0.63540  Biso   1.000  H
  H25      1.0000 0.26781  0.69029  0.41810  Biso   1.000  H
  C16      1.0000 0.14740  0.67594  0.44170  Biso   1.000  C
  H26      1.0000 0.25608  0.77609  0.40979  Biso   1.000  H
  H27      1.0000 0.42251  0.73224  0.41810  Biso   1.000  H
  C17      1.0000 0.52851  0.85264  0.44170  Biso   1.000  C
  H28      1.0000 0.51999  0.74389  0.40979  Biso   1.000  H
  C18      1.0000 0.28862  0.56500  0.70261  Biso   1.000  C
  H29      1.0000 0.17297  0.42909  0.68511  Biso   1.000  H
  H30      1.0000 0.15613  0.51751  0.67260  Biso   1.000  H
  C19      1.0000 0.18323  0.71490  0.48320  Biso   1.000  C
  H31      1.0000 0.11322  0.60390  0.44279  Biso   1.000  H
  H32      1.0000 0.09939  0.69509  0.43330  Biso   1.000  H
  C20      1.0000 0.53172  0.81681  0.48320  Biso   1.000  C
  H33      1.0000 0.49071  0.88680  0.44279  Biso   1.000  H
  H34      1.0000 0.59572  0.90064  0.43330  Biso   1.000  H
  N6       1.0000 0.33328  0.66669  0.68841  Biso   1.000  N
  H35      1.0000 0.26309  0.56012  0.73039  Biso   1.000  H
  H36      1.0000 0.33859  0.54497  0.70349  Biso   1.000  H
  C21      1.0000 0.28187  0.76939  0.49278  Biso   1.000  C
  C22      1.0000 0.11513  0.69604  0.51339  Biso   1.000  C
  C23      1.0000 0.48748  0.71811  0.49278  Biso   1.000  C
  C24      1.0000 0.58091  0.88491  0.51339  Biso   1.000  C
  C25      1.0000 0.27641  0.71141  0.70261  Biso   1.000  C
  C26      1.0000 0.43499  0.72365  0.70261  Biso   1.000  C
  C27      1.0000 0.31087  0.80770  0.53279  Biso   1.000  C
  H37      1.0000 0.32984  0.78104  0.47289  Biso   1.000  H
  H38      1.0000 0.04774  0.65714  0.50750  Biso   1.000  H
  C28      1.0000 0.14411  0.73319  0.55210  Biso   1.000  C
  C29      1.0000 0.49683  0.68912  0.53279  Biso   1.000  C
  H39      1.0000 0.45122  0.67018  0.47289  Biso   1.000  H
  H40      1.0000 0.60937  0.95228  0.50750  Biso   1.000  H
  C30      1.0000 0.58913  0.85592  0.55210  Biso   1.000  C
  H41      1.0000 0.29698  0.73690  0.73039  Biso   1.000  H
  H42      1.0000 0.20639  0.66144  0.70349  Biso   1.000  H
  C31      1.0000 0.29130  0.79481  0.67441  Biso   1.000  C
  H43      1.0000 0.43989  0.70303  0.73039  Biso   1.000  H
  H44      1.0000 0.45504  0.79364  0.70349  Biso   1.000  H
  C32      1.0000 0.50354  0.70871  0.67441  Biso   1.000  C
  C33      1.0000 0.24252  0.78971  0.56205  Biso   1.000  C
  H45      1.0000 0.37819  0.84609  0.53920  Biso   1.000  H
  H46      1.0000 0.09623  0.71993  0.57211  Biso   1.000  H
  C34      1.0000 0.54718  0.75752  0.56205  Biso   1.000  C
  H47      1.0000 0.46791  0.62182  0.53920  Biso   1.000  H
  H48      1.0000 0.62375  0.90385  0.57211  Biso   1.000  H
  N7       1.0000 0.25314  0.75293  0.63386  Biso   1.000  N
  H49      1.0000 0.25612  0.82700  0.68511  Biso   1.000  H
  H50      1.0000 0.36139  0.84390  0.67260  Biso   1.000  H
  N8       1.0000 0.49979  0.74688  0.63386  Biso   1.000  N
  H51      1.0000 0.57090  0.74389  0.68511  Biso   1.000  H
  H52      1.0000 0.48251  0.63864  0.67260  Biso   1.000  H
  C35      1.0000 0.27372  0.83079  0.60400  Biso   1.000  C
  C36      1.0000 0.55714  0.72634  0.60400  Biso   1.000  C
  H53      1.0000 0.28153  0.71760  0.62539  Biso   1.000  H
  H54      1.0000 0.18692  0.71119  0.63540  Biso   1.000  H
  H55      1.0000 0.43607  0.71847  0.62539  Biso   1.000  H
  H56      1.0000 0.52431  0.81309  0.63540  Biso   1.000  H
  H57      1.0000 0.34430  0.87872  0.60400  Biso   1.000  H
  H58      1.0000 0.23862  0.86532  0.61200  Biso   1.000  H
  H59      1.0000 0.53437  0.65569  0.60400  Biso   1.000  H
  H60      1.0000 0.62670  0.76138  0.61200  Biso   1.000  H
  C37      1.0000 0.51411  0.38102  0.43853  Biso   1.000  C
  C38      1.0000 0.47702  0.34241  0.39640  Biso   1.000  C
  C39      1.0000 0.55263  0.47913  0.44741  Biso   1.000  C
  C40      1.0000 0.50769  0.31823  0.46839  Biso   1.000  C
  N9       1.0000 0.55452  0.38728  0.36624  Biso   1.000  N
  H61      1.0000 0.44970  0.27088  0.39610  Biso   1.000  H
  H62      1.0000 0.42400  0.35560  0.38930  Biso   1.000  H
  C41      1.0000 0.58440  0.51504  0.48570  Biso   1.000  C
  H63      1.0000 0.55723  0.52239  0.42659  Biso   1.000  H
  H64      1.0000 0.48264  0.25122  0.46249  Biso   1.000  H
  C42      1.0000 0.53831  0.35297  0.50759  Biso   1.000  C
  C43      1.0000 0.51884  0.34482  0.32565  Biso   1.000  C
  H65      1.0000 0.60541  0.37817  0.37361  Biso   1.000  H
  H66      1.0000 0.57742  0.45327  0.36539  Biso   1.000  H
  C44      1.0000 0.57437  0.44970  0.51756  Biso   1.000  C
  H67      1.0000 0.61281  0.58270  0.49090  Biso   1.000  H
  H68      1.0000 0.53419  0.30891  0.52799  Biso   1.000  H
  H69      1.0000 0.47620  0.36841  0.31459  Biso   1.000  H
  H70      1.0000 0.48012  0.27292  0.32770  Biso   1.000  H
  C45      1.0000 0.60441  0.37402  0.29781  Biso   1.000  C
  C46      1.0000 0.60855  0.49144  0.55927  Biso   1.000  C
  N10      1.0000 0.66668  0.33331  0.31159  Biso   1.000  N
  H71      1.0000 0.58042  0.35028  0.27019  Biso   1.000  H
  H72      1.0000 0.64414  0.44591  0.29681  Biso   1.000  H
  N11      1.0000 0.59092  0.41743  0.58955  Biso   1.000  N
  H73      1.0000 0.67920  0.53900  0.55830  Biso   1.000  H
  H74      1.0000 0.57472  0.52684  0.56761  Biso   1.000  H
  C47      1.0000 0.76961  0.39558  0.29781  Biso   1.000  C
  C48      1.0000 0.62601  0.23039  0.29781  Biso   1.000  C
  H75      1.0000 0.62249  0.38458  0.58190  Biso   1.000  H
  C49      1.0000 0.62392  0.45808  0.62990  Biso   1.000  C
  H76      1.0000 0.52518  0.37300  0.59049  Biso   1.000  H
  C50      1.0000 0.82600  0.48124  0.32565  Biso   1.000  C
  H77      1.0000 0.76989  0.41962  0.27019  Biso   1.000  H
  H78      1.0000 0.80180  0.35589  0.29681  Biso   1.000  H
  C51      1.0000 0.65523  0.17401  0.32565  Biso   1.000  C
  H79      1.0000 0.64971  0.23010  0.27019  Biso   1.000  H
  H80      1.0000 0.55409  0.19819  0.29681  Biso   1.000  H
  C52      1.0000 0.60962  0.37839  0.65876  Biso   1.000  C
  H81      1.0000 0.58653  0.48903  0.63939  Biso   1.000  H
  H82      1.0000 0.69360  0.50863  0.62899  Biso   1.000  H
  N12      1.0000 0.83278  0.44548  0.36624  Biso   1.000  N
  H83      1.0000 0.89218  0.52378  0.31459  Biso   1.000  H
  H84      1.0000 0.79279  0.51992  0.32770  Biso   1.000  H
  N13      1.0000 0.61273  0.16724  0.36624  Biso   1.000  N
  H85      1.0000 0.63158  0.10780  0.31459  Biso   1.000  H
  H86      1.0000 0.72709  0.20722  0.32770  Biso   1.000  H
  N14      1.0000 0.66668  0.33331  0.64591  Biso   1.000  N
  H87      1.0000 0.63014  0.40593  0.68620  Biso   1.000  H
  H88      1.0000 0.53972  0.32828  0.65979  Biso   1.000  H
  H89      1.0000 0.77286  0.39464  0.37361  Biso   1.000  H
  C53      1.0000 0.86541  0.52298  0.39640  Biso   1.000  C
  H90      1.0000 0.87591  0.42261  0.36539  Biso   1.000  H
  H91      1.0000 0.62182  0.22718  0.37361  Biso   1.000  H
  C54      1.0000 0.65760  0.13460  0.39640  Biso   1.000  C
  H92      1.0000 0.54670  0.12412  0.36539  Biso   1.000  H
  C55      1.0000 0.76879  0.39041  0.65876  Biso   1.000  C
  C56      1.0000 0.62162  0.23119  0.65876  Biso   1.000  C
  C57      1.0000 0.86693  0.48590  0.43853  Biso   1.000  C
  H93      1.0000 0.82123  0.55029  0.39610  Biso   1.000  H
  H94      1.0000 0.93160  0.57600  0.38930  Biso   1.000  H
  C58      1.0000 0.61899  0.13307  0.43853  Biso   1.000  C
  H95      1.0000 0.72910  0.17882  0.39610  Biso   1.000  H
  H96      1.0000 0.64443  0.06839  0.38930  Biso   1.000  H
  H97      1.0000 0.77580  0.36987  0.68620  Biso   1.000  H
  H98      1.0000 0.78861  0.46034  0.65979  Biso   1.000  H
  C59      1.0000 0.83425  0.37614  0.62990  Biso   1.000  C
  H99      1.0000 0.59409  0.22420  0.68620  Biso   1.000  H
  H100     1.0000 0.67170  0.21138  0.65979  Biso   1.000  H
  C60      1.0000 0.54192  0.16578  0.62990  Biso   1.000  C
  C61      1.0000 0.92652  0.44737  0.44741  Biso   1.000  C
  C62      1.0000 0.81053  0.49231  0.46839  Biso   1.000  C
  C63      1.0000 0.52088  0.07349  0.44741  Biso   1.000  C
  C64      1.0000 0.68184  0.18952  0.46839  Biso   1.000  C
  N15      1.0000 0.82653  0.40913  0.58955  Biso   1.000  N
  H101     1.0000 0.90252  0.41350  0.63939  Biso   1.000  H
  H102     1.0000 0.81505  0.30643  0.62899  Biso   1.000  H
  N16      1.0000 0.58262  0.17350  0.58955  Biso   1.000  N
  H103     1.0000 0.51101  0.09753  0.63939  Biso   1.000  H
  H104     1.0000 0.49142  0.18501  0.62899  Biso   1.000  H
  C65      1.0000 0.93064  0.41561  0.48570  Biso   1.000  C
  H105     1.0000 0.96523  0.44278  0.42659  Biso   1.000  H
  H106     1.0000 0.76866  0.51744  0.46249  Biso   1.000  H
  C66      1.0000 0.81472  0.46172  0.50759  Biso   1.000  C
  C67      1.0000 0.48503  0.06941  0.48570  Biso   1.000  C
  H107     1.0000 0.47764  0.03482  0.42659  Biso   1.000  H
  H108     1.0000 0.74883  0.23141  0.46249  Biso   1.000  H
  C68      1.0000 0.64699  0.18530  0.50759  Biso   1.000  C
  C69      1.0000 0.88294  0.39150  0.55927  Biso   1.000  C
  H109     1.0000 0.76209  0.37752  0.58190  Biso   1.000  H
  H110     1.0000 0.84784  0.47483  0.59049  Biso   1.000  H
  C70      1.0000 0.50863  0.11712  0.55927  Biso   1.000  C
  H111     1.0000 0.61538  0.23789  0.58190  Biso   1.000  H
  H112     1.0000 0.62705  0.15223  0.59049  Biso   1.000  H
  C71      1.0000 0.87532  0.42559  0.51756  Biso   1.000  C
  H113     1.0000 0.96992  0.38721  0.49090  Biso   1.000  H
  H114     1.0000 0.77469  0.46580  0.52799  Biso   1.000  H
  C72      1.0000 0.55033  0.12470  0.51756  Biso   1.000  C
  H115     1.0000 0.41730  0.03008  0.49090  Biso   1.000  H
  H116     1.0000 0.69108  0.22529  0.52799  Biso   1.000  H
  H117     1.0000 0.85982  0.32078  0.55830  Biso   1.000  H
  H118     1.0000 0.95213  0.42530  0.56761  Biso   1.000  H
  H119     1.0000 0.46101  0.14021  0.55830  Biso   1.000  H
  H120     1.0000 0.47322  0.04793  0.56761  Biso   1.000  H
  C73      1.0000 0.27638  0.56500  0.20261  Biso   1.000  C
  C74      1.0000 0.29129  0.49654  0.17441  Biso   1.000  C
  N17      1.0000 0.33328  0.66669  0.18841  Biso   1.000  N
  H121     1.0000 0.29703  0.56012  0.23039  Biso   1.000  H
  H122     1.0000 0.20638  0.54497  0.20349  Biso   1.000  H
  N18      1.0000 0.25312  0.50018  0.13386  Biso   1.000  N
  H123     1.0000 0.25611  0.42909  0.18511  Biso   1.000  H
  H124     1.0000 0.36139  0.51751  0.17260  Biso   1.000  H
  C75      1.0000 0.28865  0.72365  0.20261  Biso   1.000  C
  C76      1.0000 0.43500  0.71141  0.20261  Biso   1.000  C
  H125     1.0000 0.28151  0.56391  0.12539  Biso   1.000  H
  C77      1.0000 0.27369  0.44293  0.10400  Biso   1.000  C
  H126     1.0000 0.18688  0.47570  0.13540  Biso   1.000  H
  H127     1.0000 0.26314  0.70303  0.23039  Biso   1.000  H
  H128     1.0000 0.33860  0.79364  0.20349  Biso   1.000  H
  C78      1.0000 0.20517  0.70871  0.17441  Biso   1.000  C
  H129     1.0000 0.43992  0.73690  0.23039  Biso   1.000  H
  H130     1.0000 0.45505  0.66144  0.20349  Biso   1.000  H
  C79      1.0000 0.50350  0.79481  0.17441  Biso   1.000  C
  H131     1.0000 0.34431  0.46558  0.10400  Biso   1.000  H
  H132     1.0000 0.23862  0.37329  0.11200  Biso   1.000  H
  C80      1.0000 0.24250  0.45283  0.06205  Biso   1.000  C
  N19      1.0000 0.24709  0.74688  0.13386  Biso   1.000  N
  H133     1.0000 0.17299  0.74389  0.18511  Biso   1.000  H
  H134     1.0000 0.15613  0.63864  0.17260  Biso   1.000  H
  N20      1.0000 0.49978  0.75293  0.13386  Biso   1.000  N
  H135     1.0000 0.57088  0.82700  0.18511  Biso   1.000  H
  H136     1.0000 0.48251  0.84390  0.17260  Biso   1.000  H
  C81      1.0000 0.31091  0.50324  0.03279  Biso   1.000  C
  C82      1.0000 0.14406  0.41088  0.05210  Biso   1.000  C
  H137     1.0000 0.28241  0.71847  0.12539  Biso   1.000  H
  C83      1.0000 0.16920  0.72634  0.10400  Biso   1.000  C
  H138     1.0000 0.28878  0.81309  0.13540  Biso   1.000  H
  H139     1.0000 0.43607  0.71760  0.12539  Biso   1.000  H
  C84      1.0000 0.55707  0.83079  0.10400  Biso   1.000  C
  H140     1.0000 0.52427  0.71119  0.13540  Biso   1.000  H
  H141     1.0000 0.37820  0.53208  0.03920  Biso   1.000  H
  C85      1.0000 0.28192  0.51249  0.99278  Biso   1.000  C
  C86      1.0000 0.11512  0.41911  0.01339  Biso   1.000  C
  H142     1.0000 0.09617  0.37628  0.07211  Biso   1.000  H
  H143     1.0000 0.12132  0.65569  0.10400  Biso   1.000  H
  H144     1.0000 0.13468  0.76138  0.11200  Biso   1.000  H
  C87      1.0000 0.21034  0.75752  0.06205  Biso   1.000  C
  H145     1.0000 0.53442  0.87872  0.10400  Biso   1.000  H
  H146     1.0000 0.62669  0.86532  0.11200  Biso   1.000  H
  C88      1.0000 0.54719  0.78971  0.06205  Biso   1.000  C
  H147     1.0000 0.32980  0.54883  0.97289  Biso   1.000  H
  C89      1.0000 0.18317  0.46828  0.98320  Biso   1.000  C
  H148     1.0000 0.04771  0.39063  0.00750  Biso   1.000  H
  C90      1.0000 0.19229  0.68912  0.03279  Biso   1.000  C
  C91      1.0000 0.26679  0.85592  0.05210  Biso   1.000  C
  C92      1.0000 0.49683  0.80770  0.03279  Biso   1.000  C
  C93      1.0000 0.58908  0.73319  0.05210  Biso   1.000  C
  C94      1.0000 0.14737  0.47148  0.94170  Biso   1.000  C
  H149     1.0000 0.15390  0.62182  0.03920  Biso   1.000  H
  C95      1.0000 0.23062  0.71811  0.99278  Biso   1.000  C
  C96      1.0000 0.30399  0.88491  0.01339  Biso   1.000  C
  H150     1.0000 0.28009  0.90385  0.07211  Biso   1.000  H
  H151     1.0000 0.46789  0.84609  0.03920  Biso   1.000  H
  C97      1.0000 0.48751  0.76939  0.99278  Biso   1.000  C
  C98      1.0000 0.58091  0.69604  0.01339  Biso   1.000  C
  H152     1.0000 0.62370  0.71993  0.07211  Biso   1.000  H
  N21      1.0000 0.22364  0.51453  0.91096  Biso   1.000  N
  H153     1.0000 0.11322  0.50928  0.94279  Biso   1.000  H
  H154     1.0000 0.09941  0.40432  0.93330  Biso   1.000  H
  H155     1.0000 0.21896  0.67018  0.97289  Biso   1.000  H
  C99      1.0000 0.28508  0.81681  0.98320  Biso   1.000  C
  H156     1.0000 0.34292  0.95228  0.00750  Biso   1.000  H
  H157     1.0000 0.45120  0.78104  0.97289  Biso   1.000  H
  C100     1.0000 0.53168  0.71490  0.98320  Biso   1.000  C
  H158     1.0000 0.60940  0.65714  0.00750  Biso   1.000  H
  H159     1.0000 0.26782  0.57753  0.91810  Biso   1.000  H
  C101     1.0000 0.18369  0.51424  0.87101  Biso   1.000  C
  H160     1.0000 0.25609  0.48000  0.90979  Biso   1.000  H
  C102     1.0000 0.32413  0.85264  0.94170  Biso   1.000  C
  C103     1.0000 0.52853  0.67594  0.94170  Biso   1.000  C
  H161     1.0000 0.13959  0.44621  0.86219  Biso   1.000  H
  H162     1.0000 0.14566  0.54818  0.87231  Biso   1.000  H
  C104     1.0000 0.26707  0.56530  0.84121  Biso   1.000  C
  N22      1.0000 0.29086  0.77638  0.91096  Biso   1.000  N
  H163     1.0000 0.39609  0.88680  0.94279  Biso   1.000  H
  H164     1.0000 0.30492  0.90064  0.93330  Biso   1.000  H
  N23      1.0000 0.48549  0.70908  0.91096  Biso   1.000  N
  H165     1.0000 0.49068  0.60390  0.94279  Biso   1.000  H
  H166     1.0000 0.59570  0.69509  0.93330  Biso   1.000  H
  N24      1.0000 0.33328  0.66669  0.85330  Biso   1.000  N
  H167     1.0000 0.24053  0.56420  0.81401  Biso   1.000  H
  H168     1.0000 0.30381  0.53004  0.83970  Biso   1.000  H
  C105     1.0000 0.33050  0.81630  0.87101  Biso   1.000  C
  H169     1.0000 0.30973  0.73224  0.91810  Biso   1.000  H
  H170     1.0000 0.22390  0.74389  0.90979  Biso   1.000  H
  C106     1.0000 0.48584  0.66953  0.87101  Biso   1.000  C
  H171     1.0000 0.42248  0.69029  0.91810  Biso   1.000  H
  H172     1.0000 0.52001  0.77609  0.90979  Biso   1.000  H
  C107     1.0000 0.29820  0.73290  0.84121  Biso   1.000  C
  C108     1.0000 0.43467  0.70179  0.84121  Biso   1.000  C
  H173     1.0000 0.30664  0.86044  0.86219  Biso   1.000  H
  H174     1.0000 0.40249  0.85432  0.87231  Biso   1.000  H
  H175     1.0000 0.55380  0.69342  0.86219  Biso   1.000  H
  H176     1.0000 0.45178  0.59749  0.87231  Biso   1.000  H
  H177     1.0000 0.32366  0.75948  0.81401  Biso   1.000  H
  H178     1.0000 0.22616  0.69619  0.83970  Biso   1.000  H
  H179     1.0000 0.43580  0.67630  0.81401  Biso   1.000  H
  H180     1.0000 0.46999  0.77383  0.83970  Biso   1.000  H
  C109     1.0000 0.62598  0.39558  0.79781  Biso   1.000  C
  N25      1.0000 0.66668  0.33331  0.81159  Biso   1.000  N
  C110     1.0000 0.65524  0.48124  0.82565  Biso   1.000  C
  H181     1.0000 0.64973  0.41962  0.77019  Biso   1.000  H
  H182     1.0000 0.55409  0.35589  0.79681  Biso   1.000  H
  C111     1.0000 0.60438  0.23039  0.79781  Biso   1.000  C
  C112     1.0000 0.76961  0.37402  0.79781  Biso   1.000  C
  N26      1.0000 0.61270  0.44548  0.86624  Biso   1.000  N
  H183     1.0000 0.63160  0.52378  0.81459  Biso   1.000  H
  H184     1.0000 0.72713  0.51992  0.82770  Biso   1.000  H
  C113     1.0000 0.51878  0.17401  0.82565  Biso   1.000  C
  H185     1.0000 0.58039  0.23010  0.77019  Biso   1.000  H
  H186     1.0000 0.64410  0.19819  0.79681  Biso   1.000  H
  C114     1.0000 0.82604  0.34482  0.82565  Biso   1.000  C
  H187     1.0000 0.76992  0.35028  0.77019  Biso   1.000  H
  H188     1.0000 0.80184  0.44591  0.79681  Biso   1.000  H
  H189     1.0000 0.62184  0.39464  0.87361  Biso   1.000  H
  C115     1.0000 0.65756  0.52298  0.89640  Biso   1.000  C
  H190     1.0000 0.54670  0.42261  0.86539  Biso   1.000  H
  N27      1.0000 0.55451  0.16724  0.86624  Biso   1.000  N
  H191     1.0000 0.47622  0.10780  0.81459  Biso   1.000  H
  H192     1.0000 0.48013  0.20722  0.82770  Biso   1.000  H
  N28      1.0000 0.83282  0.38728  0.86624  Biso   1.000  N
  H193     1.0000 0.89221  0.36841  0.81459  Biso   1.000  H
  H194     1.0000 0.79280  0.27292  0.82770  Biso   1.000  H
  C116     1.0000 0.61903  0.48590  0.93853  Biso   1.000  C
  H195     1.0000 0.72913  0.55029  0.89610  Biso   1.000  H
  H196     1.0000 0.64440  0.57600  0.88930  Biso   1.000  H
  H197     1.0000 0.60542  0.22718  0.87361  Biso   1.000  H
  C117     1.0000 0.47700  0.13460  0.89640  Biso   1.000  C
  H198     1.0000 0.57742  0.12412  0.86539  Biso   1.000  H
  H199     1.0000 0.77283  0.37817  0.87361  Biso   1.000  H
  C118     1.0000 0.86540  0.34241  0.89640  Biso   1.000  C
  H200     1.0000 0.87591  0.45327  0.86539  Biso   1.000  H
  C119     1.0000 0.52092  0.44737  0.94741  Biso   1.000  C
  C120     1.0000 0.68178  0.49231  0.96839  Biso   1.000  C
  C121     1.0000 0.51409  0.13307  0.93853  Biso   1.000  C
  H201     1.0000 0.44972  0.17882  0.89610  Biso   1.000  H
  H202     1.0000 0.42403  0.06839  0.88930  Biso   1.000  H
  C122     1.0000 0.86691  0.38102  0.93853  Biso   1.000  C
  H203     1.0000 0.82118  0.27088  0.89610  Biso   1.000  H
  H204     1.0000 0.93160  0.35560  0.88930  Biso   1.000  H
  C123     1.0000 0.48504  0.41561  0.98570  Biso   1.000  C
  H205     1.0000 0.47762  0.44278  0.92659  Biso   1.000  H
  H206     1.0000 0.74885  0.51744  0.96249  Biso   1.000  H
  C124     1.0000 0.64700  0.46172  0.00759  Biso   1.000  C
  C125     1.0000 0.55261  0.07349  0.94741  Biso   1.000  C
  C126     1.0000 0.50774  0.18952  0.96839  Biso   1.000  C
  C127     1.0000 0.92650  0.47913  0.94741  Biso   1.000  C
  C128     1.0000 0.81054  0.31823  0.96839  Biso   1.000  C
  H207     1.0000 0.41728  0.38721  0.99090  Biso   1.000  H
  C129     1.0000 0.55027  0.42559  0.01756  Biso   1.000  C
  H208     1.0000 0.69111  0.46580  0.02799  Biso   1.000  H
  C130     1.0000 0.58445  0.06941  0.98570  Biso   1.000  C
  H209     1.0000 0.55724  0.03482  0.92659  Biso   1.000  H
  H210     1.0000 0.48264  0.23141  0.96249  Biso   1.000  H
  C131     1.0000 0.53831  0.18530  0.00759  Biso   1.000  C
  C132     1.0000 0.93064  0.51504  0.98570  Biso   1.000  C
  H211     1.0000 0.96523  0.52239  0.92659  Biso   1.000  H
  H212     1.0000 0.76864  0.25122  0.96249  Biso   1.000  H
  C133     1.0000 0.81473  0.35297  0.00759  Biso   1.000  C
  C134     1.0000 0.50863  0.39150  0.05927  Biso   1.000  C
  H213     1.0000 0.61278  0.03008  0.99090  Biso   1.000  H
  C135     1.0000 0.57443  0.12470  0.01756  Biso   1.000  C
  H214     1.0000 0.53420  0.22529  0.02799  Biso   1.000  H
  H215     1.0000 0.96990  0.58270  0.99090  Biso   1.000  H
  C136     1.0000 0.87533  0.44970  0.01756  Biso   1.000  C
  H216     1.0000 0.77471  0.30891  0.02799  Biso   1.000  H
  N29      1.0000 0.58260  0.40913  0.08955  Biso   1.000  N
  H217     1.0000 0.46096  0.32078  0.05830  Biso   1.000  H
  H218     1.0000 0.47323  0.42530  0.06761  Biso   1.000  H
  C137     1.0000 0.60849  0.11712  0.05927  Biso   1.000  C
  C138     1.0000 0.88295  0.49144  0.05927  Biso   1.000  C
  H219     1.0000 0.61543  0.37752  0.08190  Biso   1.000  H
  C139     1.0000 0.54194  0.37614  0.12990  Biso   1.000  C
  H220     1.0000 0.62699  0.47483  0.09049  Biso   1.000  H
  N30      1.0000 0.59088  0.17350  0.08955  Biso   1.000  N
  H221     1.0000 0.67920  0.14021  0.05830  Biso   1.000  H
  H222     1.0000 0.57471  0.04793  0.06761  Biso   1.000  H
  N31      1.0000 0.82652  0.41743  0.08955  Biso   1.000  N
  H223     1.0000 0.85980  0.53900  0.05830  Biso   1.000  H
  H224     1.0000 0.95212  0.52684  0.06761  Biso   1.000  H
  C140     1.0000 0.62162  0.39041  0.15876  Biso   1.000  C
  H225     1.0000 0.51098  0.41350  0.13939  Biso   1.000  H
  H226     1.0000 0.49145  0.30643  0.12899  Biso   1.000  H
  H227     1.0000 0.62251  0.23789  0.08190  Biso   1.000  H
  C141     1.0000 0.62392  0.16578  0.12990  Biso   1.000  C
  H228     1.0000 0.52524  0.15223  0.09049  Biso   1.000  H
  H229     1.0000 0.76209  0.38458  0.08190  Biso   1.000  H
  C142     1.0000 0.83422  0.45808  0.12990  Biso   1.000  C
  H230     1.0000 0.84783  0.37300  0.09049  Biso   1.000  H
  N32      1.0000 0.66668  0.33331  0.14591  Biso   1.000  N
  H231     1.0000 0.59407  0.36987  0.18620  Biso   1.000  H
  H232     1.0000 0.67172  0.46034  0.15979  Biso   1.000  H
  C143     1.0000 0.60957  0.23119  0.15876  Biso   1.000  C
  H233     1.0000 0.58652  0.09753  0.13939  Biso   1.000  H
  H234     1.0000 0.69359  0.18501  0.12899  Biso   1.000  H
  C144     1.0000 0.76883  0.37839  0.15876  Biso   1.000  C
  H235     1.0000 0.90250  0.48903  0.13939  Biso   1.000  H
  H236     1.0000 0.81503  0.50863  0.12899  Biso   1.000  H
  H237     1.0000 0.63011  0.22420  0.18620  Biso   1.000  H
  H238     1.0000 0.53968  0.21138  0.15979  Biso   1.000  H
  H239     1.0000 0.77585  0.40593  0.18620  Biso   1.000  H
  H240     1.0000 0.78863  0.32828  0.15979  Biso   1.000  H
