data_image0
_cell_length_a       11.892
_cell_length_b       15.199
_cell_length_c       14.957
_cell_angle_alpha    90
_cell_angle_beta     90.97
_cell_angle_gamma    90

_symmetry_space_group_name_H-M    "P 1"
_symmetry_int_tables_number       1

loop_
  _symmetry_equiv_pos_as_xyz
  'x, y, z'

loop_
  _atom_site_label
  _atom_site_occupancy
  _atom_site_fract_x
  _atom_site_fract_y
  _atom_site_fract_z
  _atom_site_thermal_displace_type
  _atom_site_B_iso_or_equiv
  _atom_site_type_symbol
  O1       1.0000 0.35347  0.74808  0.36122  Biso   1.000  O
  C1       1.0000 0.45500  0.74696  0.35112  Biso   1.000  C
  N1       1.0000 0.51072  0.76768  0.27436  Biso   1.000  N
  N2       1.0000 0.53356  0.72367  0.41498  Biso   1.000  N
  C2       1.0000 0.45362  0.79150  0.19118  Biso   1.000  C
  C3       1.0000 0.63001  0.74900  0.28078  Biso   1.000  C
  C4       1.0000 0.64469  0.71347  0.37774  Biso   1.000  C
  C5       1.0000 0.50096  0.68465  0.49937  Biso   1.000  C
  H1       1.0000 0.37784  0.76459  0.19051  Biso   1.000  H
  H2       1.0000 0.49568  0.76591  0.14082  Biso   1.000  H
  N3       1.0000 0.44195  0.88466  0.17646  Biso   1.000  N
  H3       1.0000 0.65368  0.70478  0.23531  Biso   1.000  H
  N4       1.0000 0.70132  0.82637  0.28058  Biso   1.000  N
  H4       1.0000 0.67010  0.65070  0.37861  Biso   1.000  H
  N5       1.0000 0.72884  0.77183  0.41619  Biso   1.000  N
  H5       1.0000 0.53861  0.62688  0.50592  Biso   1.000  H
  H6       1.0000 0.41885  0.67399  0.49763  Biso   1.000  H
  N6       1.0000 0.52835  0.73788  0.57700  Biso   1.000  N
  C6       1.0000 0.52790  0.94236  0.14129  Biso   1.000  C
  C7       1.0000 0.35538  0.93151  0.21384  Biso   1.000  C
  C8       1.0000 0.71505  0.88249  0.20288  Biso   1.000  C
  C9       1.0000 0.75590  0.83881  0.36008  Biso   1.000  C
  C10      1.0000 0.78532  0.75867  0.50144  Biso   1.000  C
  C11      1.0000 0.63858  0.73452  0.62000  Biso   1.000  C
  C12      1.0000 0.44854  0.77268  0.63217  Biso   1.000  C
  H7       1.0000 0.54547  0.92756  0.07790  Biso   1.000  H
  N7       1.0000 0.62981  0.95019  0.19626  Biso   1.000  N
  C13      1.0000 0.47382  0.03520  0.14898  Biso   1.000  C
  O2       1.0000 0.27173  0.89934  0.24627  Biso   1.000  O
  N8       1.0000 0.37853  0.01954  0.20742  Biso   1.000  N
  H8       1.0000 0.71178  0.84578  0.14818  Biso   1.000  H
  H9       1.0000 0.79013  0.91059  0.20622  Biso   1.000  H
  O3       1.0000 0.82137  0.89914  0.37794  Biso   1.000  O
  H10      1.0000 0.80178  0.69518  0.50873  Biso   1.000  H
  H11      1.0000 0.85821  0.79018  0.50091  Biso   1.000  H
  N9       1.0000 0.72253  0.78828  0.57767  Biso   1.000  N
  C14      1.0000 0.62099  0.78196  0.71020  Biso   1.000  C
  H12      1.0000 0.66509  0.67268  0.62883  Biso   1.000  H
  N10      1.0000 0.50215  0.80176  0.70907  Biso   1.000  N
  O4       1.0000 0.34754  0.77735  0.61572  Biso   1.000  O
  C15      1.0000 0.65310  0.03638  0.21605  Biso   1.000  C
  H13      1.0000 0.44892  0.05849  0.08927  Biso   1.000  H
  N11      1.0000 0.56496  0.08705  0.18763  Biso   1.000  N
  C16      1.0000 0.28850  0.08283  0.22053  Biso   1.000  C
  C17      1.0000 0.75108  0.86190  0.62735  Biso   1.000  C
  H14      1.0000 0.64287  0.74406  0.76229  Biso   1.000  H
  N12      1.0000 0.69150  0.85900  0.70405  Biso   1.000  N
  C18      1.0000 0.44181  0.82117  0.79011  Biso   1.000  C
  O5       1.0000 0.73917  0.06277  0.25363  Biso   1.000  O
  C19      1.0000 0.55829  0.17883  0.20990  Biso   1.000  C
  H15      1.0000 0.27934  0.11869  0.16563  Biso   1.000  H
  H16      1.0000 0.21730  0.05060  0.22969  Biso   1.000  H
  N13      1.0000 0.30861  0.14100  0.29596  Biso   1.000  N
  O6       1.0000 0.81949  0.91730  0.60562  Biso   1.000  O
  C20      1.0000 0.71160  0.91717  0.77948  Biso   1.000  C
  H17      1.0000 0.47888  0.78966  0.84053  Biso   1.000  H
  H18      1.0000 0.36440  0.79768  0.78363  Biso   1.000  H
  N14      1.0000 0.43514  0.91295  0.81231  Biso   1.000  N
  H19      1.0000 0.52122  0.21028  0.15948  Biso   1.000  H
  H20      1.0000 0.63570  0.20232  0.21638  Biso   1.000  H
  N15      1.0000 0.49795  0.19817  0.29094  Biso   1.000  N
  C21      1.0000 0.24902  0.13810  0.37265  Biso   1.000  C
  C22      1.0000 0.37911  0.21797  0.28981  Biso   1.000  C
  H21      1.0000 0.72076  0.88131  0.83438  Biso   1.000  H
  H22      1.0000 0.78280  0.94940  0.77032  Biso   1.000  H
  N16      1.0000 0.62157  0.98046  0.79259  Biso   1.000  N
  C23      1.0000 0.34700  0.96362  0.78396  Biso   1.000  C
  C24      1.0000 0.52628  0.96480  0.85103  Biso   1.000  C
  C25      1.0000 0.55156  0.22725  0.36777  Biso   1.000  C
  N17      1.0000 0.27758  0.21172  0.42234  Biso   1.000  N
  O7       1.0000 0.18061  0.08264  0.39439  Biso   1.000  O
  H23      1.0000 0.35723  0.25587  0.23772  Biso   1.000  H
  C26      1.0000 0.36152  0.26541  0.38001  Biso   1.000  C
  C27      1.0000 0.64464  0.06843  0.78617  Biso   1.000  C
  O8       1.0000 0.26093  0.93723  0.74638  Biso   1.000  O
  N18      1.0000 0.37029  0.04974  0.80375  Biso   1.000  N
  H24      1.0000 0.55118  0.94144  0.91067  Biso   1.000  H
  C28      1.0000 0.47220  0.05757  0.85872  Biso   1.000  C
  N19      1.0000 0.47175  0.26212  0.42301  Biso   1.000  N
  O9       1.0000 0.65256  0.22258  0.38422  Biso   1.000  O
  C29      1.0000 0.21479  0.24127  0.49857  Biso   1.000  C
  H25      1.0000 0.33501  0.32732  0.37118  Biso   1.000  H
  N20      1.0000 0.55815  0.11527  0.82355  Biso   1.000  N
  O10      1.0000 0.72829  0.10060  0.75367  Biso   1.000  O
  C30      1.0000 0.28505  0.11751  0.79713  Biso   1.000  C
  H26      1.0000 0.45463  0.07237  0.92211  Biso   1.000  H
  C31      1.0000 0.49914  0.31535  0.50064  Biso   1.000  C
  H27      1.0000 0.19832  0.30482  0.49128  Biso   1.000  H
  H28      1.0000 0.14189  0.20982  0.49910  Biso   1.000  H
  N21      1.0000 0.27126  0.22811  0.58382  Biso   1.000  N
  C32      1.0000 0.54649  0.20850  0.80883  Biso   1.000  C
  H29      1.0000 0.28832  0.15422  0.85183  Biso   1.000  H
  H30      1.0000 0.20997  0.08941  0.79379  Biso   1.000  H
  N22      1.0000 0.29879  0.17363  0.71943  Biso   1.000  N
  H31      1.0000 0.46141  0.37312  0.49409  Biso   1.000  H
  H32      1.0000 0.58125  0.32601  0.50238  Biso   1.000  H
  N23      1.0000 0.46654  0.27633  0.58496  Biso   1.000  N
  C33      1.0000 0.24420  0.16113  0.63993  Biso   1.000  C
  C34      1.0000 0.35533  0.28653  0.62227  Biso   1.000  C
  H33      1.0000 0.62226  0.23541  0.80950  Biso   1.000  H
  H34      1.0000 0.50442  0.23409  0.85919  Biso   1.000  H
  N24      1.0000 0.48938  0.23232  0.72565  Biso   1.000  N
  C35      1.0000 0.37009  0.25100  0.71923  Biso   1.000  C
  C36      1.0000 0.54510  0.25304  0.64889  Biso   1.000  C
  O11      1.0000 0.17873  0.10086  0.62207  Biso   1.000  O
  H35      1.0000 0.33000  0.34930  0.62140  Biso   1.000  H
  H36      1.0000 0.34642  0.29522  0.76470  Biso   1.000  H
  O12      1.0000 0.64663  0.25186  0.63879  Biso   1.000  O
  N25      1.0000 0.19145  0.64096  0.20408  Biso   1.000  N
  C37      1.0000 0.21155  0.58280  0.27951  Biso   1.000  C
  C38      1.0000 0.25103  0.63807  0.12738  Biso   1.000  C
  C39      1.0000 0.12094  0.71801  0.21023  Biso   1.000  C
  N26      1.0000 0.12152  0.51951  0.29255  Biso   1.000  N
  H37      1.0000 0.22071  0.61866  0.33441  Biso   1.000  H
  H38      1.0000 0.28275  0.55056  0.27028  Biso   1.000  H
  N27      1.0000 0.22248  0.71169  0.07770  Biso   1.000  N
  O13      1.0000 0.31944  0.58260  0.10565  Biso   1.000  O
  N28      1.0000 0.00210  0.69820  0.20903  Biso   1.000  N
  H39      1.0000 0.14282  0.75590  0.26232  Biso   1.000  H
  C40      1.0000 0.13853  0.76545  0.12003  Biso   1.000  C
  C41      1.0000 0.14459  0.43154  0.28619  Biso   1.000  C
  C42      1.0000 0.02623  0.53517  0.35106  Biso   1.000  C
  C43      1.0000 0.28526  0.74130  0.00140  Biso   1.000  C
  C44      1.0000 0.94168  0.67879  0.29007  Biso   1.000  C
  C45      1.0000 0.94849  0.72728  0.13220  Biso   1.000  C
  H40      1.0000 0.16504  0.82729  0.12879  Biso   1.000  H
  N29      1.0000 0.02830  0.76209  0.07703  Biso   1.000  N
  N30      1.0000 0.05810  0.38470  0.32351  Biso   1.000  N
  O14      1.0000 0.22832  0.39937  0.25370  Biso   1.000  O
  C46      1.0000 0.97215  0.44240  0.35875  Biso   1.000  C
  H41      1.0000 0.05113  0.55846  0.41070  Biso   1.000  H
  N31      1.0000 0.93509  0.58701  0.31234  Biso   1.000  N
  H42      1.0000 0.30173  0.80479  0.00869  Biso   1.000  H
  H43      1.0000 0.35816  0.70978  0.00087  Biso   1.000  H
  N32      1.0000 0.22887  0.72814  0.91615  Biso   1.000  N
  H44      1.0000 0.97883  0.71031  0.34049  Biso   1.000  H
  H45      1.0000 0.86435  0.70228  0.28359  Biso   1.000  H
  O15      1.0000 0.84749  0.72261  0.11575  Biso   1.000  O
  C47      1.0000 0.00100  0.81532  0.99940  Biso   1.000  C
  C48      1.0000 0.04644  0.29147  0.30886  Biso   1.000  C
  H46      1.0000 0.95450  0.42759  0.42207  Biso   1.000  H
  N33      1.0000 0.87024  0.45023  0.30371  Biso   1.000  N
  C49      1.0000 0.84695  0.53635  0.28399  Biso   1.000  C
  C50      1.0000 0.25594  0.66116  0.86011  Biso   1.000  C
  C51      1.0000 0.14481  0.78650  0.87770  Biso   1.000  C
  H47      1.0000 0.03864  0.87308  0.00588  Biso   1.000  H
  H48      1.0000 0.91889  0.82598  0.99759  Biso   1.000  H
  N34      1.0000 0.03359  0.77630  0.91501  Biso   1.000  N
  N35      1.0000 0.98933  0.26765  0.22568  Biso   1.000  N
  H49      1.0000 0.12221  0.26462  0.30953  Biso   1.000  H
  H50      1.0000 0.00437  0.26587  0.35921  Biso   1.000  H
  C52      1.0000 0.78500  0.38253  0.29709  Biso   1.000  C
  O16      1.0000 0.76088  0.56273  0.24641  Biso   1.000  O
  N36      1.0000 0.20135  0.67360  0.78054  Biso   1.000  N
  O17      1.0000 0.32140  0.60083  0.87797  Biso   1.000  O
  C53      1.0000 0.13004  0.75097  0.78074  Biso   1.000  C
  H51      1.0000 0.17014  0.84927  0.87857  Biso   1.000  H
  C54      1.0000 0.95504  0.75301  0.85109  Biso   1.000  C
  C55      1.0000 0.04505  0.24692  0.14891  Biso   1.000  C
  C56      1.0000 0.87004  0.24903  0.21926  Biso   1.000  C
  N37      1.0000 0.79874  0.32640  0.21946  Biso   1.000  N
  H52      1.0000 0.78818  0.34581  0.35179  Biso   1.000  H
  H53      1.0000 0.70992  0.41062  0.29382  Biso   1.000  H
  C57      1.0000 0.21508  0.61747  0.70284  Biso   1.000  C
  N38      1.0000 0.01075  0.73229  0.77432  Biso   1.000  N
  H54      1.0000 0.15380  0.79518  0.73527  Biso   1.000  H
  O18      1.0000 0.85350  0.75189  0.86125  Biso   1.000  O
  O19      1.0000 0.14658  0.24811  0.13875  Biso   1.000  O
  N39      1.0000 0.96641  0.22370  0.08499  Biso   1.000  N
  C58      1.0000 0.85528  0.21350  0.12223  Biso   1.000  C
  H55      1.0000 0.84629  0.20482  0.26473  Biso   1.000  H
  C59      1.0000 0.74406  0.33884  0.13989  Biso   1.000  C
  N40      1.0000 0.12984  0.54977  0.69629  Biso   1.000  N
  H56      1.0000 0.21182  0.65419  0.64821  Biso   1.000  H
  H57      1.0000 0.29016  0.58938  0.70618  Biso   1.000  H
  C60      1.0000 0.95365  0.70847  0.69114  Biso   1.000  C
  C61      1.0000 0.99909  0.18462  0.00060  Biso   1.000  C
  H58      1.0000 0.82986  0.15067  0.12143  Biso   1.000  H
  N41      1.0000 0.77121  0.27186  0.08385  Biso   1.000  N
  O20      1.0000 0.67868  0.39917  0.12203  Biso   1.000  O
  C62      1.0000 0.15314  0.46358  0.71601  Biso   1.000  C
  C63      1.0000 0.02793  0.55760  0.64125  Biso   1.000  C
  N42      1.0000 0.94199  0.61530  0.67649  Biso   1.000  N
  H59      1.0000 0.87787  0.73538  0.69047  Biso   1.000  H
  H60      1.0000 0.99572  0.73406  0.64079  Biso   1.000  H
  H61      1.0000 0.08120  0.17402  0.00241  Biso   1.000  H
  H62      1.0000 0.96145  0.12692  0.99412  Biso   1.000  H
  N43      1.0000 0.97179  0.23784  0.92297  Biso   1.000  N
  C64      1.0000 0.71482  0.25870  0.99853  Biso   1.000  C
  N44      1.0000 0.06499  0.41299  0.68766  Biso   1.000  N
  O21      1.0000 0.23920  0.43727  0.75359  Biso   1.000  O
  C65      1.0000 0.97386  0.46483  0.64894  Biso   1.000  C
  H63      1.0000 0.04559  0.57241  0.57786  Biso   1.000  H
  C66      1.0000 0.85541  0.56846  0.71381  Biso   1.000  C
  C67      1.0000 0.86155  0.23455  0.87997  Biso   1.000  C
  C68      1.0000 0.05159  0.27272  0.86780  Biso   1.000  C
  H64      1.0000 0.69835  0.19521  0.99131  Biso   1.000  H
  H65      1.0000 0.64184  0.29022  0.99906  Biso   1.000  H
  N45      1.0000 0.77761  0.28824  0.92230  Biso   1.000  N
  C69      1.0000 0.05832  0.32114  0.70993  Biso   1.000  C
  N46      1.0000 0.87857  0.48049  0.70739  Biso   1.000  N
  H66      1.0000 0.94896  0.44148  0.58930  Biso   1.000  H
  O22      1.0000 0.77176  0.60063  0.74630  Biso   1.000  O
  C70      1.0000 0.87914  0.28199  0.78977  Biso   1.000  C
  H67      1.0000 0.83505  0.17271  0.87121  Biso   1.000  H
  N47      1.0000 0.99799  0.30180  0.79090  Biso   1.000  N
  O23      1.0000 0.15260  0.27739  0.88425  Biso   1.000  O
  C71      1.0000 0.74905  0.36187  0.87262  Biso   1.000  C
  H68      1.0000 0.02126  0.28969  0.65951  Biso   1.000  H
  H69      1.0000 0.13574  0.29772  0.71641  Biso   1.000  H
  C72      1.0000 0.78853  0.41713  0.72049  Biso   1.000  C
  H70      1.0000 0.85726  0.24410  0.73768  Biso   1.000  H
  N48      1.0000 0.80864  0.35897  0.79592  Biso   1.000  N
  O24      1.0000 0.68065  0.41733  0.89435  Biso   1.000  O
  H71      1.0000 0.77937  0.38128  0.66559  Biso   1.000  H
  H72      1.0000 0.71734  0.44937  0.72972  Biso   1.000  H
