data_image0
_cell_length_a       11.141
_cell_length_b       17.431
_cell_length_c       20.135
_cell_angle_alpha    115.41
_cell_angle_beta     91.43
_cell_angle_gamma    92.93

_symmetry_space_group_name_H-M    "P 1"
_symmetry_int_tables_number       1

loop_
  _symmetry_equiv_pos_as_xyz
  'x, y, z'

loop_
  _atom_site_label
  _atom_site_occupancy
  _atom_site_fract_x
  _atom_site_fract_y
  _atom_site_fract_z
  _atom_site_thermal_displace_type
  _atom_site_B_iso_or_equiv
  _atom_site_type_symbol
  C1       1.0000 0.51925  0.58589  0.60878  Biso   1.000  C
  C2       1.0000 0.51354  0.63611  0.57239  Biso   1.000  C
  C3       1.0000 0.61645  0.53520  0.60102  Biso   1.000  C
  C4       1.0000 0.41573  0.58200  0.65481  Biso   1.000  C
  C5       1.0000 0.60480  0.63593  0.52432  Biso   1.000  C
  H1       1.0000 0.44973  0.67059  0.57910  Biso   1.000  H
  C6       1.0000 0.70561  0.53328  0.55141  Biso   1.000  C
  O1       1.0000 0.62438  0.48962  0.64071  Biso   1.000  O
  H2       1.0000 0.39330  0.52249  0.64121  Biso   1.000  H
  H3       1.0000 0.34767  0.60542  0.64082  Biso   1.000  H
  C7       1.0000 0.43352  0.62650  0.73751  Biso   1.000  C
  S1       1.0000 0.60211  0.70147  0.47983  Biso   1.000  S
  C8       1.0000 0.69750  0.58167  0.51457  Biso   1.000  C
  C9       1.0000 0.81298  0.47858  0.54321  Biso   1.000  C
  H4       1.0000 0.61154  0.43878  0.61329  Biso   1.000  H
  C10      1.0000 0.43445  0.71502  0.77440  Biso   1.000  C
  C11      1.0000 0.43926  0.58089  0.78051  Biso   1.000  C
  O2       1.0000 0.56937  0.66063  0.40341  Biso   1.000  O
  O3       1.0000 0.47507  0.70522  0.46453  Biso   1.000  O
  O4       1.0000 0.64402  0.78802  0.52520  Biso   1.000  O
  O5       1.0000 0.63407  0.64408  0.40468  Biso   1.000  O
  O6       1.0000 0.71136  0.75858  0.50819  Biso   1.000  O
  O7       1.0000 0.50390  0.75740  0.50571  Biso   1.000  O
  H5       1.0000 0.75583  0.57891  0.48137  Biso   1.000  H
  C12      1.0000 0.91664  0.52851  0.59981  Biso   1.000  C
  H6       1.0000 0.78719  0.42851  0.54992  Biso   1.000  H
  H7       1.0000 0.84148  0.45982  0.49393  Biso   1.000  H
  H8       1.0000 0.43447  0.74721  0.74758  Biso   1.000  H
  C13      1.0000 0.43533  0.75499  0.85032  Biso   1.000  C
  O8       1.0000 0.44616  0.49479  0.74582  Biso   1.000  O
  C14      1.0000 0.43213  0.61990  0.85588  Biso   1.000  C
  C15      1.0000 0.96881  0.60192  0.59749  Biso   1.000  C
  C16      1.0000 0.95903  0.50391  0.65002  Biso   1.000  C
  S2       1.0000 0.43175  0.86699  0.89673  Biso   1.000  S
  C17      1.0000 0.43285  0.70768  0.89128  Biso   1.000  C
  H9       1.0000 0.43900  0.47482  0.77572  Biso   1.000  H
  C18      1.0000 0.41493  0.56802  0.90070  Biso   1.000  C
  H10      1.0000 0.94340  0.61872  0.56159  Biso   1.000  H
  C19      1.0000 0.06095  0.65000  0.65062  Biso   1.000  C
  O9       1.0000 0.90552  0.43019  0.65299  Biso   1.000  O
  C20      1.0000 0.05677  0.54729  0.70018  Biso   1.000  C
  O10      1.0000 0.52000  0.90171  0.86359  Biso   1.000  O
  O11      1.0000 0.31081  0.88829  0.88611  Biso   1.000  O
  O12      1.0000 0.46469  0.88991  0.97360  Biso   1.000  O
  H11      1.0000 0.43179  0.73519  0.94232  Biso   1.000  H
  H12      1.0000 0.39619  0.50877  0.86700  Biso   1.000  H
  H13      1.0000 0.34669  0.58771  0.93109  Biso   1.000  H
  C21      1.0000 0.52278  0.57372  0.94959  Biso   1.000  C
  S3       1.0000 0.12322  0.74361  0.64919  Biso   1.000  S
  C22      1.0000 0.10514  0.62149  0.69968  Biso   1.000  C
  H14      1.0000 0.94407  0.41947  0.68289  Biso   1.000  H
  C23      1.0000 0.10792  0.51540  0.75248  Biso   1.000  C
  C24      1.0000 0.62188  0.52838  0.92052  Biso   1.000  C
  C25      1.0000 0.52312  0.62313  0.02464  Biso   1.000  C
  O13      1.0000 0.14991  0.80096  0.72738  Biso   1.000  O
  O14      1.0000 0.03399  0.77303  0.61671  Biso   1.000  O
  O15      1.0000 0.22570  0.72169  0.60603  Biso   1.000  O
  O16      1.0000 0.07394  0.81557  0.70678  Biso   1.000  O
  O17      1.0000 0.07920  0.74486  0.58048  Biso   1.000  O
  O18      1.0000 0.25204  0.73947  0.64699  Biso   1.000  O
  H15      1.0000 0.16845  0.65257  0.73299  Biso   1.000  H
  C26      1.0000 0.05740  0.54741  0.82731  Biso   1.000  C
  H16      1.0000 0.19394  0.53007  0.75898  Biso   1.000  H
  H17      1.0000 0.09666  0.45380  0.72952  Biso   1.000  H
  O19      1.0000 0.62729  0.48312  0.84619  Biso   1.000  O
  C27      1.0000 0.72140  0.52709  0.96611  Biso   1.000  C
  H18      1.0000 0.45812  0.65531  0.04495  Biso   1.000  H
  C28      1.0000 0.62219  0.62490  0.07072  Biso   1.000  C
  C29      1.0000 0.96636  0.50238  0.84311  Biso   1.000  C
  C30      1.0000 0.10137  0.62471  0.88121  Biso   1.000  C
  H19      1.0000 0.58156  0.44008  0.83199  Biso   1.000  H
  C31      1.0000 0.82684  0.47761  0.93390  Biso   1.000  C
  C32      1.0000 0.71640  0.57470  0.03950  Biso   1.000  C
  S4       1.0000 0.62726  0.69290  0.16415  Biso   1.000  S
  O20      1.0000 0.92079  0.42690  0.78849  Biso   1.000  O
  C33      1.0000 0.92410  0.52882  0.91391  Biso   1.000  C
  C34      1.0000 0.05899  0.65481  0.95289  Biso   1.000  C
  H20      1.0000 0.15943  0.65741  0.87053  Biso   1.000  H
  H21      1.0000 0.86187  0.45933  0.96892  Biso   1.000  H
  H22      1.0000 0.79999  0.42713  0.88991  Biso   1.000  H
  H23      1.0000 0.77910  0.57358  0.07044  Biso   1.000  H
  O21      1.0000 0.71914  0.75870  0.17401  Biso   1.000  O
  O22      1.0000 0.51107  0.73110  0.17902  Biso   1.000  O
  O23      1.0000 0.63388  0.64528  0.20622  Biso   1.000  O
  O24      1.0000 0.63877  0.77839  0.17605  Biso   1.000  O
  O25      1.0000 0.52337  0.67279  0.19284  Biso   1.000  O
  O26      1.0000 0.72382  0.65681  0.19190  Biso   1.000  O
  H24      1.0000 0.94544  0.42188  0.74890  Biso   1.000  H
  C35      1.0000 0.97229  0.60559  0.96870  Biso   1.000  C
  S5       1.0000 0.12146  0.75007  0.02276  Biso   1.000  S
  H25      1.0000 0.94632  0.62427  0.01632  Biso   1.000  H
  O27      1.0000 0.12103  0.81278  0.99358  Biso   1.000  O
  O28      1.0000 0.04336  0.77281  0.08360  Biso   1.000  O
  O29      1.0000 0.24318  0.73661  0.04071  Biso   1.000  O
  C36      1.0000 0.48079  0.41407  0.39119  Biso   1.000  C
  C37      1.0000 0.58432  0.41798  0.34522  Biso   1.000  C
  C38      1.0000 0.48650  0.36391  0.42758  Biso   1.000  C
  C39      1.0000 0.38359  0.46479  0.39901  Biso   1.000  C
  C40      1.0000 0.56653  0.37349  0.26252  Biso   1.000  C
  H26      1.0000 0.60675  0.47750  0.35882  Biso   1.000  H
  H27      1.0000 0.65237  0.39462  0.35920  Biso   1.000  H
  C41      1.0000 0.39525  0.36412  0.47570  Biso   1.000  C
  H28      1.0000 0.55031  0.32940  0.42092  Biso   1.000  H
  O30      1.0000 0.37567  0.51043  0.35931  Biso   1.000  O
  C42      1.0000 0.29443  0.46671  0.44862  Biso   1.000  C
  C43      1.0000 0.56559  0.28500  0.22557  Biso   1.000  C
  C44      1.0000 0.56079  0.41910  0.21952  Biso   1.000  C
  S6       1.0000 0.39793  0.29851  0.52019  Biso   1.000  S
  C45      1.0000 0.30254  0.41829  0.48539  Biso   1.000  C
  H29      1.0000 0.38850  0.56118  0.38667  Biso   1.000  H
  C46      1.0000 0.18698  0.52141  0.45682  Biso   1.000  C
  H30      1.0000 0.56557  0.25281  0.25239  Biso   1.000  H
  C47      1.0000 0.56472  0.24500  0.14970  Biso   1.000  C
  O31      1.0000 0.55389  0.50520  0.25420  Biso   1.000  O
  C48      1.0000 0.56791  0.38012  0.14409  Biso   1.000  C
  O32      1.0000 0.35603  0.21202  0.47482  Biso   1.000  O
  O33      1.0000 0.36596  0.35588  0.59529  Biso   1.000  O
  O34      1.0000 0.52498  0.29483  0.53550  Biso   1.000  O
  O35      1.0000 0.28868  0.24139  0.49178  Biso   1.000  O
  O36      1.0000 0.43068  0.33942  0.59661  Biso   1.000  O
  O37      1.0000 0.49614  0.24259  0.49431  Biso   1.000  O
  H31      1.0000 0.24421  0.42111  0.51859  Biso   1.000  H
  C49      1.0000 0.08340  0.47148  0.40022  Biso   1.000  C
  H32      1.0000 0.21285  0.57148  0.45010  Biso   1.000  H
  H33      1.0000 0.15848  0.54022  0.50610  Biso   1.000  H
  S7       1.0000 0.56829  0.13297  0.10323  Biso   1.000  S
  C50      1.0000 0.56719  0.29228  0.10869  Biso   1.000  C
  H34      1.0000 0.56105  0.52523  0.22431  Biso   1.000  H
  C51      1.0000 0.58503  0.43203  0.09933  Biso   1.000  C
  C52      1.0000 0.03123  0.39810  0.40248  Biso   1.000  C
  C53      1.0000 0.04101  0.49608  0.35001  Biso   1.000  C
  O38      1.0000 0.48004  0.09831  0.13638  Biso   1.000  O
  O39      1.0000 0.68923  0.11170  0.11392  Biso   1.000  O
  O40      1.0000 0.53535  0.11011  0.02637  Biso   1.000  O
  H35      1.0000 0.56826  0.26480  0.05770  Biso   1.000  H
  H36      1.0000 0.60385  0.49122  0.13302  Biso   1.000  H
  H37      1.0000 0.65335  0.41231  0.06888  Biso   1.000  H
  C54      1.0000 0.47726  0.42630  0.05038  Biso   1.000  C
  H38      1.0000 0.05664  0.38130  0.43837  Biso   1.000  H
  C55      1.0000 0.93909  0.34999  0.34940  Biso   1.000  C
  O41      1.0000 0.09452  0.56977  0.34698  Biso   1.000  O
  C56      1.0000 0.94327  0.45267  0.29979  Biso   1.000  C
  C57      1.0000 0.37817  0.47161  0.07950  Biso   1.000  C
  C58      1.0000 0.47693  0.37692  0.97539  Biso   1.000  C
  S8       1.0000 0.87683  0.25638  0.35083  Biso   1.000  S
  C59      1.0000 0.89490  0.37847  0.30029  Biso   1.000  C
  H39      1.0000 0.05597  0.58049  0.31708  Biso   1.000  H
  C60      1.0000 0.89212  0.48456  0.24749  Biso   1.000  C
  O42      1.0000 0.37275  0.51690  0.15378  Biso   1.000  O
  C61      1.0000 0.27865  0.47290  0.03392  Biso   1.000  C
  H40      1.0000 0.54192  0.34467  0.95507  Biso   1.000  H
  C62      1.0000 0.37785  0.37509  0.92931  Biso   1.000  C
  O43      1.0000 0.85013  0.19900  0.27259  Biso   1.000  O
  O44      1.0000 0.96606  0.22702  0.38332  Biso   1.000  O
  O45      1.0000 0.77434  0.27830  0.39400  Biso   1.000  O
  O46      1.0000 0.92609  0.18439  0.29319  Biso   1.000  O
  O47      1.0000 0.92084  0.25510  0.41949  Biso   1.000  O
  O48      1.0000 0.74800  0.26049  0.35298  Biso   1.000  O
  H41      1.0000 0.83158  0.34739  0.26698  Biso   1.000  H
  C63      1.0000 0.94265  0.45258  0.17272  Biso   1.000  C
  H42      1.0000 0.80610  0.46989  0.24099  Biso   1.000  H
  H43      1.0000 0.90338  0.54618  0.27050  Biso   1.000  H
  H44      1.0000 0.41848  0.55988  0.16798  Biso   1.000  H
  C64      1.0000 0.17320  0.52238  0.06613  Biso   1.000  C
  C65      1.0000 0.28365  0.42532  0.96047  Biso   1.000  C
  S9       1.0000 0.37269  0.30706  0.83582  Biso   1.000  S
  C66      1.0000 0.03368  0.49761  0.15692  Biso   1.000  C
  C67      1.0000 0.89867  0.37528  0.11882  Biso   1.000  C
  H45      1.0000 0.13818  0.54072  0.03111  Biso   1.000  H
  H46      1.0000 0.20005  0.57292  0.11012  Biso   1.000  H
  C68      1.0000 0.07595  0.47122  0.08611  Biso   1.000  C
  H47      1.0000 0.22094  0.42641  0.92958  Biso   1.000  H
  O49      1.0000 0.28090  0.24132  0.82596  Biso   1.000  O
  O50      1.0000 0.48897  0.26889  0.82101  Biso   1.000  O
  O51      1.0000 0.36616  0.35468  0.79375  Biso   1.000  O
  O52      1.0000 0.36128  0.22160  0.82398  Biso   1.000  O
  O53      1.0000 0.47659  0.32720  0.80719  Biso   1.000  O
  O54      1.0000 0.27622  0.34321  0.80807  Biso   1.000  O
  O55      1.0000 0.07924  0.57306  0.21148  Biso   1.000  O
  C69      1.0000 0.94105  0.34521  0.04707  Biso   1.000  C
  H48      1.0000 0.84062  0.34258  0.12950  Biso   1.000  H
  C70      1.0000 0.02774  0.39437  0.03127  Biso   1.000  C
  H49      1.0000 0.05460  0.57811  0.25112  Biso   1.000  H
  S10      1.0000 0.87857  0.24989  0.97721  Biso   1.000  S
  H50      1.0000 0.05373  0.37572  0.98370  Biso   1.000  H
  O56      1.0000 0.95668  0.22721  0.91637  Biso   1.000  O
  O57      1.0000 0.75686  0.26341  0.95926  Biso   1.000  O
  O58      1.0000 0.87900  0.18718  0.00639  Biso   1.000  O
