data_image0
_cell_length_a       33.139
_cell_length_b       5.064
_cell_length_c       20.155
_cell_angle_alpha    90
_cell_angle_beta     108.3
_cell_angle_gamma    90

_symmetry_space_group_name_H-M    "P 1"
_symmetry_int_tables_number       1

loop_
  _symmetry_equiv_pos_as_xyz
  'x, y, z'

loop_
  _atom_site_label
  _atom_site_occupancy
  _atom_site_fract_x
  _atom_site_fract_y
  _atom_site_fract_z
  _atom_site_thermal_displace_type
  _atom_site_B_iso_or_equiv
  _atom_site_type_symbol
  C1       1.0000 0.53266  0.51896  0.40432  Biso   1.000  C
  C2       1.0000 0.52127  0.34953  0.34720  Biso   1.000  C
  C3       1.0000 0.57253  0.50079  0.45224  Biso   1.000  C
  H1       1.0000 0.51283  0.64850  0.41002  Biso   1.000  H
  H2       1.0000 0.49340  0.36256  0.31360  Biso   1.000  H
  C4       1.0000 0.54897  0.16548  0.33837  Biso   1.000  C
  O1       1.0000 0.58756  0.65363  0.51119  Biso   1.000  O
  C5       1.0000 0.60136  0.31359  0.44315  Biso   1.000  C
  H3       1.0000 0.54064  0.04957  0.29871  Biso   1.000  H
  C6       1.0000 0.58948  0.14514  0.38692  Biso   1.000  C
  C7       1.0000 0.55984  0.83847  0.52739  Biso   1.000  C
  O2       1.0000 0.64028  0.31339  0.49384  Biso   1.000  O
  H4       1.0000 0.60901  0.01382  0.38112  Biso   1.000  H
  C8       1.0000 0.58606  0.99427  0.59026  Biso   1.000  C
  H5       1.0000 0.53719  0.74783  0.53805  Biso   1.000  H
  H6       1.0000 0.54820  0.95517  0.48856  Biso   1.000  H
  C9       1.0000 0.67000  0.11295  0.49207  Biso   1.000  C
  C10      1.0000 0.59981  0.84538  0.65877  Biso   1.000  C
  H7       1.0000 0.61185  0.04088  0.58106  Biso   1.000  H
  O3       1.0000 0.56111  0.21347  0.59805  Biso   1.000  O
  H8       1.0000 0.67488  0.11453  0.44765  Biso   1.000  H
  C11      1.0000 0.71106  0.17160  0.54955  Biso   1.000  C
  H9       1.0000 0.65931  0.94313  0.49964  Biso   1.000  H
  O4       1.0000 0.63050  0.65620  0.65501  Biso   1.000  O
  H10      1.0000 0.61196  0.96544  0.69666  Biso   1.000  H
  H11      1.0000 0.57581  0.75770  0.66598  Biso   1.000  H
  H12      1.0000 0.58813  0.38685  0.61137  Biso   1.000  H
  H13      1.0000 0.73100  0.04344  0.54364  Biso   1.000  H
  O5       1.0000 0.72442  0.43483  0.54161  Biso   1.000  O
  C12      1.0000 0.71074  0.12638  0.62370  Biso   1.000  C
  C13      1.0000 0.65106  0.51205  0.71338  Biso   1.000  C
  H14      1.0000 0.70005  0.53693  0.55336  Biso   1.000  H
  H15      1.0000 0.73909  0.13961  0.65558  Biso   1.000  H
  O6       1.0000 0.68450  0.32484  0.63896  Biso   1.000  O
  H16      1.0000 0.69948  0.95438  0.62762  Biso   1.000  H
  C14      1.0000 0.68086  0.33116  0.70460  Biso   1.000  C
  C15      1.0000 0.64415  0.53239  0.77703  Biso   1.000  C
  C16      1.0000 0.70298  0.17476  0.75973  Biso   1.000  C
  C17      1.0000 0.66692  0.37697  0.83227  Biso   1.000  C
  H17      1.0000 0.62338  0.65482  0.78283  Biso   1.000  H
  H18      1.0000 0.72330  0.04897  0.75393  Biso   1.000  H
  C18      1.0000 0.69607  0.19984  0.82422  Biso   1.000  C
  H19      1.0000 0.66225  0.39356  0.87674  Biso   1.000  H
  H20      1.0000 0.71184  0.09222  0.86289  Biso   1.000  H
  C19      1.0000 0.46736  0.48104  0.59569  Biso   1.000  C
  C20      1.0000 0.42745  0.49921  0.54772  Biso   1.000  C
  H21      1.0000 0.48718  0.35150  0.59000  Biso   1.000  H
  C21      1.0000 0.47875  0.65047  0.65281  Biso   1.000  C
  C22      1.0000 0.39865  0.68641  0.55681  Biso   1.000  C
  O7       1.0000 0.41246  0.34637  0.48883  Biso   1.000  O
  C23      1.0000 0.45105  0.83452  0.66164  Biso   1.000  C
  H22      1.0000 0.50659  0.63744  0.68641  Biso   1.000  H
  O8       1.0000 0.35974  0.68661  0.50618  Biso   1.000  O
  C24      1.0000 0.41051  0.85486  0.61310  Biso   1.000  C
  C25      1.0000 0.44014  0.16153  0.47257  Biso   1.000  C
  H23      1.0000 0.45937  0.95043  0.70126  Biso   1.000  H
  C26      1.0000 0.33001  0.88705  0.50790  Biso   1.000  C
  H24      1.0000 0.39100  0.98618  0.61884  Biso   1.000  H
  C27      1.0000 0.41395  0.00573  0.40971  Biso   1.000  C
  H25      1.0000 0.46279  0.25217  0.46196  Biso   1.000  H
  H26      1.0000 0.45182  0.04483  0.51145  Biso   1.000  H
  C28      1.0000 0.28895  0.82840  0.45042  Biso   1.000  C
  H27      1.0000 0.32511  0.88547  0.55237  Biso   1.000  H
  H28      1.0000 0.34067  0.05687  0.50037  Biso   1.000  H
  C29      1.0000 0.40020  0.15462  0.34120  Biso   1.000  C
  H29      1.0000 0.38813  0.95912  0.41896  Biso   1.000  H
  O9       1.0000 0.43888  0.78653  0.40197  Biso   1.000  O
  C30      1.0000 0.28928  0.87362  0.37631  Biso   1.000  C
  H30      1.0000 0.26902  0.95656  0.45637  Biso   1.000  H
  O10      1.0000 0.27557  0.56517  0.45841  Biso   1.000  O
  O11      1.0000 0.36949  0.34380  0.34501  Biso   1.000  O
  H31      1.0000 0.38806  0.03456  0.30336  Biso   1.000  H
  H32      1.0000 0.42418  0.24230  0.33404  Biso   1.000  H
  H33      1.0000 0.41189  0.61315  0.38865  Biso   1.000  H
  O12      1.0000 0.31549  0.67516  0.36105  Biso   1.000  O
  H34      1.0000 0.26092  0.86039  0.34444  Biso   1.000  H
  H35      1.0000 0.30054  0.04562  0.37239  Biso   1.000  H
  H36      1.0000 0.29993  0.46307  0.44660  Biso   1.000  H
  C31      1.0000 0.34891  0.48795  0.28659  Biso   1.000  C
  C32      1.0000 0.31916  0.66884  0.29542  Biso   1.000  C
  C33      1.0000 0.35587  0.46761  0.22299  Biso   1.000  C
  C34      1.0000 0.29701  0.82524  0.24028  Biso   1.000  C
  C35      1.0000 0.33306  0.62303  0.16770  Biso   1.000  C
  H37      1.0000 0.37661  0.34518  0.21719  Biso   1.000  H
  H38      1.0000 0.27669  0.95103  0.24608  Biso   1.000  H
  C36      1.0000 0.30394  0.80016  0.17575  Biso   1.000  C
  H39      1.0000 0.33775  0.60644  0.12323  Biso   1.000  H
  H40      1.0000 0.28816  0.90778  0.13707  Biso   1.000  H
  C37      1.0000 0.66694  0.62303  0.33226  Biso   1.000  C
  C38      1.0000 0.64414  0.46761  0.27702  Biso   1.000  C
  C39      1.0000 0.69606  0.80016  0.32421  Biso   1.000  C
  H41      1.0000 0.66226  0.60644  0.37678  Biso   1.000  H
  C40      1.0000 0.65107  0.48795  0.21342  Biso   1.000  C
  H42      1.0000 0.62337  0.34518  0.28282  Biso   1.000  H
  C41      1.0000 0.70300  0.82524  0.25972  Biso   1.000  C
  H43      1.0000 0.71185  0.90778  0.36293  Biso   1.000  H
  O13      1.0000 0.63049  0.34380  0.15500  Biso   1.000  O
  C42      1.0000 0.68085  0.66884  0.20459  Biso   1.000  C
  H44      1.0000 0.72329  0.95103  0.25392  Biso   1.000  H
  C43      1.0000 0.59981  0.15462  0.15881  Biso   1.000  C
  O14      1.0000 0.68449  0.67516  0.13896  Biso   1.000  O
  H45      1.0000 0.61195  0.03456  0.19665  Biso   1.000  H
  H46      1.0000 0.57580  0.24230  0.16597  Biso   1.000  H
  C44      1.0000 0.58606  0.00573  0.09030  Biso   1.000  C
  C45      1.0000 0.71073  0.87362  0.12370  Biso   1.000  C
  C46      1.0000 0.55987  0.16153  0.02744  Biso   1.000  C
  H47      1.0000 0.61188  0.95912  0.08105  Biso   1.000  H
  O15      1.0000 0.56113  0.78653  0.09804  Biso   1.000  O
  C47      1.0000 0.71106  0.82840  0.04959  Biso   1.000  C
  H48      1.0000 0.73909  0.86039  0.15557  Biso   1.000  H
  H49      1.0000 0.69947  0.04562  0.12762  Biso   1.000  H
  H50      1.0000 0.53721  0.25217  0.03804  Biso   1.000  H
  O16      1.0000 0.58755  0.34637  0.01118  Biso   1.000  O
  H51      1.0000 0.54819  0.04483  0.98856  Biso   1.000  H
  H52      1.0000 0.58812  0.61315  0.11136  Biso   1.000  H
  H53      1.0000 0.73099  0.95656  0.04364  Biso   1.000  H
  O17      1.0000 0.72441  0.56517  0.04160  Biso   1.000  O
  C48      1.0000 0.67000  0.88705  0.99211  Biso   1.000  C
  C49      1.0000 0.57255  0.49921  0.95224  Biso   1.000  C
  H54      1.0000 0.70008  0.46307  0.05341  Biso   1.000  H
  O18      1.0000 0.64027  0.68661  0.99383  Biso   1.000  O
  H55      1.0000 0.67490  0.88547  0.94764  Biso   1.000  H
  H56      1.0000 0.65930  0.05687  0.99963  Biso   1.000  H
  C50      1.0000 0.53265  0.48104  0.90431  Biso   1.000  C
  C51      1.0000 0.60136  0.68641  0.94320  Biso   1.000  C
  H57      1.0000 0.51282  0.35150  0.91001  Biso   1.000  H
  C52      1.0000 0.52126  0.65047  0.84720  Biso   1.000  C
  C53      1.0000 0.58950  0.85486  0.88691  Biso   1.000  C
  H58      1.0000 0.49342  0.63744  0.81359  Biso   1.000  H
  C54      1.0000 0.54896  0.83452  0.83836  Biso   1.000  C
  H59      1.0000 0.60901  0.98618  0.88116  Biso   1.000  H
  H60      1.0000 0.54064  0.95043  0.79875  Biso   1.000  H
  C55      1.0000 0.33307  0.37697  0.66771  Biso   1.000  C
  C56      1.0000 0.30395  0.19984  0.67575  Biso   1.000  C
  H61      1.0000 0.33776  0.39356  0.62323  Biso   1.000  H
  C57      1.0000 0.35588  0.53239  0.72300  Biso   1.000  C
  C58      1.0000 0.29701  0.17476  0.74024  Biso   1.000  C
  H62      1.0000 0.28814  0.09222  0.63708  Biso   1.000  H
  H63      1.0000 0.37662  0.65482  0.71719  Biso   1.000  H
  C59      1.0000 0.34892  0.51205  0.78659  Biso   1.000  C
  C60      1.0000 0.31917  0.33116  0.79543  Biso   1.000  C
  H64      1.0000 0.27670  0.04897  0.74609  Biso   1.000  H
  O19      1.0000 0.36950  0.65620  0.84502  Biso   1.000  O
  O20      1.0000 0.31550  0.32484  0.86106  Biso   1.000  O
  C61      1.0000 0.40021  0.84538  0.84120  Biso   1.000  C
  C62      1.0000 0.28926  0.12638  0.87632  Biso   1.000  C
  H65      1.0000 0.38804  0.96544  0.80337  Biso   1.000  H
  H66      1.0000 0.42419  0.75770  0.83404  Biso   1.000  H
  C63      1.0000 0.41393  0.99427  0.90971  Biso   1.000  C
  C64      1.0000 0.28896  0.17160  0.95042  Biso   1.000  C
  H67      1.0000 0.26089  0.13961  0.84439  Biso   1.000  H
  H68      1.0000 0.30055  0.95438  0.87240  Biso   1.000  H
  C65      1.0000 0.44015  0.83847  0.97258  Biso   1.000  C
  H69      1.0000 0.38814  0.04088  0.91896  Biso   1.000  H
  O21      1.0000 0.43888  0.21347  0.90198  Biso   1.000  O
  H70      1.0000 0.26899  0.04344  0.95633  Biso   1.000  H
  O22      1.0000 0.27558  0.43483  0.95842  Biso   1.000  O
  C66      1.0000 0.33002  0.11295  0.00791  Biso   1.000  C
  H71      1.0000 0.46279  0.74783  0.96192  Biso   1.000  H
  O23      1.0000 0.41244  0.65363  0.98883  Biso   1.000  O
  H72      1.0000 0.45183  0.95517  0.01146  Biso   1.000  H
  H73      1.0000 0.41186  0.38685  0.88860  Biso   1.000  H
  H74      1.0000 0.29994  0.53693  0.94661  Biso   1.000  H
  H75      1.0000 0.34068  0.94313  0.00038  Biso   1.000  H
  O24      1.0000 0.35972  0.31339  0.00618  Biso   1.000  O
  H76      1.0000 0.32512  0.11453  0.05238  Biso   1.000  H
  C67      1.0000 0.42746  0.50079  0.04773  Biso   1.000  C
  C68      1.0000 0.39863  0.31359  0.05682  Biso   1.000  C
  C69      1.0000 0.46737  0.51896  0.09570  Biso   1.000  C
  C70      1.0000 0.41051  0.14514  0.11305  Biso   1.000  C
  H77      1.0000 0.48719  0.64850  0.09001  Biso   1.000  H
  C71      1.0000 0.47873  0.34953  0.15282  Biso   1.000  C
  C72      1.0000 0.45105  0.16548  0.16160  Biso   1.000  C
  H78      1.0000 0.39098  0.01382  0.11885  Biso   1.000  H
  H79      1.0000 0.50660  0.36256  0.18642  Biso   1.000  H
  H80      1.0000 0.45934  0.04957  0.20126  Biso   1.000  H
  C73      1.0000 0.79700  0.67476  0.74024  Biso   1.000  C
  C74      1.0000 0.80393  0.69984  0.67575  Biso   1.000  C
  C75      1.0000 0.81915  0.83116  0.79543  Biso   1.000  C
  H81      1.0000 0.77672  0.54897  0.74609  Biso   1.000  H
  H82      1.0000 0.78816  0.59222  0.63708  Biso   1.000  H
  C76      1.0000 0.83305  0.87697  0.66771  Biso   1.000  C
  O25      1.0000 0.81551  0.82484  0.86106  Biso   1.000  O
  C77      1.0000 0.84894  0.01205  0.78659  Biso   1.000  C
  H83      1.0000 0.83775  0.89356  0.62323  Biso   1.000  H
  C78      1.0000 0.85586  0.03239  0.72300  Biso   1.000  C
  C79      1.0000 0.78928  0.62638  0.87632  Biso   1.000  C
  O26      1.0000 0.86951  0.15620  0.84502  Biso   1.000  O
  H84      1.0000 0.87663  0.15482  0.71719  Biso   1.000  H
  C80      1.0000 0.78894  0.67160  0.95042  Biso   1.000  C
  H85      1.0000 0.80054  0.45438  0.87240  Biso   1.000  H
  H86      1.0000 0.76091  0.63961  0.84439  Biso   1.000  H
  C81      1.0000 0.90020  0.34538  0.84120  Biso   1.000  C
  H87      1.0000 0.76901  0.54344  0.95633  Biso   1.000  H
  O27      1.0000 0.77559  0.93483  0.95842  Biso   1.000  O
  C82      1.0000 0.83001  0.61295  0.00791  Biso   1.000  C
  H88      1.0000 0.88805  0.46544  0.80337  Biso   1.000  H
  H89      1.0000 0.92418  0.25770  0.83404  Biso   1.000  H
  C83      1.0000 0.91394  0.49427  0.90971  Biso   1.000  C
  H90      1.0000 0.79992  0.03693  0.94661  Biso   1.000  H
  O28      1.0000 0.85973  0.81339  0.00618  Biso   1.000  O
  H91      1.0000 0.82510  0.61453  0.05238  Biso   1.000  H
  H92      1.0000 0.84070  0.44313  0.00038  Biso   1.000  H
  H93      1.0000 0.88813  0.54088  0.91896  Biso   1.000  H
  O29      1.0000 0.93887  0.71347  0.90198  Biso   1.000  O
  C84      1.0000 0.94013  0.33847  0.97258  Biso   1.000  C
  C85      1.0000 0.89864  0.81359  0.05682  Biso   1.000  C
  H94      1.0000 0.91187  0.88685  0.88860  Biso   1.000  H
  H95      1.0000 0.96278  0.24783  0.96192  Biso   1.000  H
  O30      1.0000 0.91246  0.15363  0.98883  Biso   1.000  O
  H96      1.0000 0.95181  0.45517  0.01146  Biso   1.000  H
  C86      1.0000 0.91050  0.64514  0.11305  Biso   1.000  C
  C87      1.0000 0.92744  0.00079  0.04773  Biso   1.000  C
  C88      1.0000 0.95103  0.66548  0.16160  Biso   1.000  C
  H97      1.0000 0.89099  0.51382  0.11885  Biso   1.000  H
  C89      1.0000 0.96735  0.01896  0.09570  Biso   1.000  C
  C90      1.0000 0.97875  0.84953  0.15282  Biso   1.000  C
  H98      1.0000 0.95936  0.54957  0.20126  Biso   1.000  H
  H99      1.0000 0.98718  0.14850  0.09001  Biso   1.000  H
  H100     1.0000 0.00659  0.86256  0.18642  Biso   1.000  H
  C91      1.0000 0.20298  0.32524  0.25972  Biso   1.000  C
  C92      1.0000 0.18084  0.16884  0.20459  Biso   1.000  C
  H101     1.0000 0.22330  0.45103  0.25392  Biso   1.000  H
  C93      1.0000 0.19605  0.30016  0.32421  Biso   1.000  C
  O31      1.0000 0.18451  0.17516  0.13896  Biso   1.000  O
  C94      1.0000 0.15108  0.98795  0.21342  Biso   1.000  C
  H102     1.0000 0.21183  0.40778  0.36293  Biso   1.000  H
  C95      1.0000 0.16692  0.12303  0.33226  Biso   1.000  C
  C96      1.0000 0.21074  0.37362  0.12370  Biso   1.000  C
  O32      1.0000 0.13051  0.84380  0.15500  Biso   1.000  O
  C97      1.0000 0.14412  0.96761  0.27702  Biso   1.000  C
  H103     1.0000 0.16224  0.10644  0.37678  Biso   1.000  H
  C98      1.0000 0.21105  0.32840  0.04959  Biso   1.000  C
  H104     1.0000 0.19945  0.54562  0.12762  Biso   1.000  H
  H105     1.0000 0.23910  0.36039  0.15557  Biso   1.000  H
  C99      1.0000 0.09979  0.65462  0.15881  Biso   1.000  C
  H106     1.0000 0.12338  0.84518  0.28282  Biso   1.000  H
  H107     1.0000 0.23100  0.45656  0.04364  Biso   1.000  H
  O33      1.0000 0.22443  0.06517  0.04160  Biso   1.000  O
  C100     1.0000 0.16998  0.38705  0.99211  Biso   1.000  C
  H108     1.0000 0.11197  0.53456  0.19665  Biso   1.000  H
  H109     1.0000 0.07581  0.74230  0.16597  Biso   1.000  H
  C101     1.0000 0.08608  0.50573  0.09030  Biso   1.000  C
  H110     1.0000 0.20007  0.96307  0.05341  Biso   1.000  H
  O34      1.0000 0.14029  0.18661  0.99383  Biso   1.000  O
  H111     1.0000 0.17489  0.38547  0.94764  Biso   1.000  H
  H112     1.0000 0.15932  0.55687  0.99963  Biso   1.000  H
  H113     1.0000 0.11186  0.45912  0.08105  Biso   1.000  H
  O35      1.0000 0.06112  0.28653  0.09804  Biso   1.000  O
  C102     1.0000 0.05986  0.66153  0.02744  Biso   1.000  C
  C103     1.0000 0.10138  0.18641  0.94320  Biso   1.000  C
  H114     1.0000 0.08814  0.11315  0.11136  Biso   1.000  H
  H115     1.0000 0.04818  0.54483  0.98856  Biso   1.000  H
  H116     1.0000 0.03720  0.75217  0.03804  Biso   1.000  H
  O36      1.0000 0.08756  0.84637  0.01118  Biso   1.000  O
  C104     1.0000 0.07253  0.99921  0.95224  Biso   1.000  C
  C105     1.0000 0.08948  0.35486  0.88691  Biso   1.000  C
  C106     1.0000 0.03263  0.98104  0.90431  Biso   1.000  C
  C107     1.0000 0.04895  0.33452  0.83836  Biso   1.000  C
  H117     1.0000 0.10902  0.48618  0.88116  Biso   1.000  H
  H118     1.0000 0.01281  0.85150  0.91001  Biso   1.000  H
  C108     1.0000 0.02127  0.15047  0.84720  Biso   1.000  C
  H119     1.0000 0.04066  0.45043  0.79875  Biso   1.000  H
  H120     1.0000 0.99340  0.13744  0.81359  Biso   1.000  H
  O37      1.0000 0.77558  0.06517  0.45841  Biso   1.000  O
  C109     1.0000 0.78893  0.32840  0.45042  Biso   1.000  C
  H121     1.0000 0.79994  0.96307  0.44660  Biso   1.000  H
  C110     1.0000 0.83000  0.38705  0.50790  Biso   1.000  C
  H122     1.0000 0.76901  0.45656  0.45637  Biso   1.000  H
  C111     1.0000 0.78927  0.37362  0.37631  Biso   1.000  C
  O38      1.0000 0.85972  0.18661  0.50618  Biso   1.000  O
  H123     1.0000 0.82512  0.38547  0.55237  Biso   1.000  H
  H124     1.0000 0.84069  0.55687  0.50037  Biso   1.000  H
  H125     1.0000 0.80053  0.54562  0.37239  Biso   1.000  H
  H126     1.0000 0.76091  0.36039  0.34444  Biso   1.000  H
  O39      1.0000 0.81550  0.17516  0.36105  Biso   1.000  O
  C112     1.0000 0.89863  0.18641  0.55681  Biso   1.000  C
  C113     1.0000 0.81914  0.16884  0.29542  Biso   1.000  C
  C114     1.0000 0.91053  0.35486  0.61310  Biso   1.000  C
  C115     1.0000 0.92746  0.99921  0.54772  Biso   1.000  C
  C116     1.0000 0.79703  0.32524  0.24028  Biso   1.000  C
  C117     1.0000 0.84893  0.98795  0.28659  Biso   1.000  C
  C118     1.0000 0.95103  0.33452  0.66164  Biso   1.000  C
  H127     1.0000 0.89099  0.48618  0.61884  Biso   1.000  H
  O40      1.0000 0.91245  0.84637  0.48883  Biso   1.000  O
  C119     1.0000 0.96735  0.98104  0.59569  Biso   1.000  C
  H128     1.0000 0.77671  0.45103  0.24608  Biso   1.000  H
  C120     1.0000 0.80392  0.30016  0.17575  Biso   1.000  C
  O41      1.0000 0.86950  0.84380  0.34501  Biso   1.000  O
  C121     1.0000 0.85585  0.96761  0.22299  Biso   1.000  C
  C122     1.0000 0.97874  0.15047  0.65281  Biso   1.000  C
  H129     1.0000 0.95935  0.45043  0.70126  Biso   1.000  H
  C123     1.0000 0.94015  0.66153  0.47257  Biso   1.000  C
  H130     1.0000 0.98717  0.85150  0.59000  Biso   1.000  H
  H131     1.0000 0.78815  0.40778  0.13707  Biso   1.000  H
  C124     1.0000 0.83308  0.12303  0.16770  Biso   1.000  C
  C125     1.0000 0.90019  0.65462  0.34120  Biso   1.000  C
  H132     1.0000 0.87662  0.84518  0.21719  Biso   1.000  H
  H133     1.0000 0.00658  0.13744  0.68641  Biso   1.000  H
  C126     1.0000 0.91393  0.50573  0.40971  Biso   1.000  C
  H134     1.0000 0.96281  0.75217  0.46196  Biso   1.000  H
  H135     1.0000 0.95180  0.54483  0.51145  Biso   1.000  H
  H136     1.0000 0.83774  0.10644  0.12323  Biso   1.000  H
  H137     1.0000 0.88804  0.53456  0.30336  Biso   1.000  H
  H138     1.0000 0.92420  0.74230  0.33404  Biso   1.000  H
  H139     1.0000 0.88815  0.45912  0.41896  Biso   1.000  H
  O42      1.0000 0.93889  0.28653  0.40197  Biso   1.000  O
  H140     1.0000 0.91187  0.11315  0.38865  Biso   1.000  H
  O43      1.0000 0.22444  0.93483  0.54161  Biso   1.000  O
  C127     1.0000 0.21105  0.67160  0.54955  Biso   1.000  C
  H141     1.0000 0.20007  0.03693  0.55336  Biso   1.000  H
  C128     1.0000 0.16998  0.61295  0.49207  Biso   1.000  C
  H142     1.0000 0.23098  0.54344  0.54364  Biso   1.000  H
  C129     1.0000 0.21072  0.62638  0.62370  Biso   1.000  C
  O44      1.0000 0.14027  0.81339  0.49384  Biso   1.000  O
  H143     1.0000 0.17490  0.61453  0.44765  Biso   1.000  H
  H144     1.0000 0.15933  0.44313  0.49964  Biso   1.000  H
  H145     1.0000 0.19946  0.45438  0.62762  Biso   1.000  H
  H146     1.0000 0.23908  0.63961  0.65558  Biso   1.000  H
  O45      1.0000 0.18452  0.82484  0.63896  Biso   1.000  O
  C130     1.0000 0.10135  0.81359  0.44315  Biso   1.000  C
  C131     1.0000 0.18085  0.83116  0.70460  Biso   1.000  C
  C132     1.0000 0.08949  0.64514  0.38692  Biso   1.000  C
  C133     1.0000 0.07254  0.00079  0.45224  Biso   1.000  C
  C134     1.0000 0.20299  0.67476  0.75973  Biso   1.000  C
  C135     1.0000 0.15108  0.01205  0.71338  Biso   1.000  C
  C136     1.0000 0.04896  0.66548  0.33837  Biso   1.000  C
  H147     1.0000 0.10899  0.51382  0.38112  Biso   1.000  H
  O46      1.0000 0.08754  0.15363  0.51119  Biso   1.000  O
  C137     1.0000 0.03264  0.01896  0.40432  Biso   1.000  C
  H148     1.0000 0.22331  0.54897  0.75393  Biso   1.000  H
  C138     1.0000 0.19606  0.69984  0.82422  Biso   1.000  C
  O47      1.0000 0.13052  0.15620  0.65501  Biso   1.000  O
  C139     1.0000 0.14413  0.03239  0.77703  Biso   1.000  C
  C140     1.0000 0.02125  0.84953  0.34720  Biso   1.000  C
  H149     1.0000 0.04063  0.54957  0.29871  Biso   1.000  H
  C141     1.0000 0.05986  0.33847  0.52739  Biso   1.000  C
  H150     1.0000 0.01282  0.14850  0.41002  Biso   1.000  H
  H151     1.0000 0.21183  0.59222  0.86289  Biso   1.000  H
  C142     1.0000 0.16693  0.87697  0.83227  Biso   1.000  C
  C143     1.0000 0.09979  0.34538  0.65877  Biso   1.000  C
  H152     1.0000 0.12339  0.15482  0.78283  Biso   1.000  H
  H153     1.0000 0.99341  0.86256  0.31360  Biso   1.000  H
  C144     1.0000 0.08605  0.49427  0.59026  Biso   1.000  C
  H154     1.0000 0.03721  0.24783  0.53805  Biso   1.000  H
  H155     1.0000 0.04819  0.45517  0.48856  Biso   1.000  H
  H156     1.0000 0.16224  0.89356  0.87674  Biso   1.000  H
  H157     1.0000 0.11195  0.46544  0.69666  Biso   1.000  H
  H158     1.0000 0.07582  0.25770  0.66598  Biso   1.000  H
  H159     1.0000 0.11187  0.54088  0.58106  Biso   1.000  H
  O48      1.0000 0.06113  0.71347  0.59805  Biso   1.000  O
  H160     1.0000 0.08812  0.88685  0.61137  Biso   1.000  H
