data_image0
_cell_length_a       20.295
_cell_length_b       8.139
_cell_length_c       11.205
_cell_angle_alpha    90
_cell_angle_beta     101.19
_cell_angle_gamma    90

_symmetry_space_group_name_H-M    "P 1"
_symmetry_int_tables_number       1

loop_
  _symmetry_equiv_pos_as_xyz
  'x, y, z'

loop_
  _atom_site_label
  _atom_site_occupancy
  _atom_site_fract_x
  _atom_site_fract_y
  _atom_site_fract_z
  _atom_site_thermal_displace_type
  _atom_site_B_iso_or_equiv
  _atom_site_type_symbol
  C1       1.0000 0.53968  0.46443  0.32642  Biso   1.000  C
  C2       1.0000 0.59670  0.52869  0.39738  Biso   1.000  C
  H1       1.0000 0.51068  0.40091  0.36208  Biso   1.000  H
  C3       1.0000 0.52509  0.49281  0.20360  Biso   1.000  C
  O1       1.0000 0.61482  0.50743  0.52002  Biso   1.000  O
  C4       1.0000 0.63999  0.62305  0.34334  Biso   1.000  C
  H2       1.0000 0.48589  0.45042  0.15684  Biso   1.000  H
  C5       1.0000 0.56789  0.58324  0.14965  Biso   1.000  C
  C6       1.0000 0.61169  0.36540  0.56942  Biso   1.000  C
  O2       1.0000 0.69330  0.68866  0.42103  Biso   1.000  O
  C7       1.0000 0.62570  0.65045  0.21916  Biso   1.000  C
  H3       1.0000 0.55829  0.59983  0.06596  Biso   1.000  H
  C8       1.0000 0.63997  0.36159  0.70097  Biso   1.000  C
  H4       1.0000 0.56499  0.33137  0.55668  Biso   1.000  H
  H5       1.0000 0.63552  0.28640  0.52884  Biso   1.000  H
  C9       1.0000 0.75252  0.72134  0.37591  Biso   1.000  C
  H6       1.0000 0.65461  0.71311  0.18268  Biso   1.000  H
  C10      1.0000 0.70739  0.28259  0.73881  Biso   1.000  C
  H7       1.0000 0.64321  0.47377  0.73071  Biso   1.000  H
  H8       1.0000 0.60852  0.30458  0.74127  Biso   1.000  H
  H9       1.0000 0.76762  0.62244  0.34116  Biso   1.000  H
  H10      1.0000 0.74370  0.80464  0.31286  Biso   1.000  H
  C11      1.0000 0.80557  0.78081  0.48017  Biso   1.000  C
  O3       1.0000 0.75531  0.38125  0.69532  Biso   1.000  O
  H11      1.0000 0.70680  0.17287  0.70479  Biso   1.000  H
  H12      1.0000 0.71878  0.27411  0.82669  Biso   1.000  H
  O4       1.0000 0.86241  0.79334  0.42294  Biso   1.000  O
  C12      1.0000 0.81689  0.66089  0.58534  Biso   1.000  C
  C13      1.0000 0.78511  0.94471  0.52647  Biso   1.000  C
  C14      1.0000 0.81950  0.32424  0.71134  Biso   1.000  C
  C15      1.0000 0.92020  0.86571  0.48863  Biso   1.000  C
  O5       1.0000 0.83452  0.50338  0.54476  Biso   1.000  O
  H13      1.0000 0.77630  0.65168  0.61854  Biso   1.000  H
  H14      1.0000 0.85260  0.70082  0.64911  Biso   1.000  H
  H15      1.0000 0.81999  0.97285  0.59452  Biso   1.000  H
  H16      1.0000 0.74011  0.93746  0.54476  Biso   1.000  H
  H17      1.0000 0.77999  0.03514  0.46306  Biso   1.000  H
  C16      1.0000 0.85940  0.39231  0.63674  Biso   1.000  C
  C17      1.0000 0.84730  0.20629  0.79603  Biso   1.000  C
  H18      1.0000 0.95520  0.88254  0.44323  Biso   1.000  H
  H19      1.0000 0.93822  0.80919  0.56296  Biso   1.000  H
  H20      1.0000 0.90240  0.97002  0.50691  Biso   1.000  H
  C18      1.0000 0.92471  0.34193  0.64656  Biso   1.000  C
  C19      1.0000 0.91182  0.15518  0.80359  Biso   1.000  C
  H21      1.0000 0.82149  0.16181  0.84807  Biso   1.000  H
  H22      1.0000 0.95127  0.38887  0.59698  Biso   1.000  H
  C20      1.0000 0.95140  0.22189  0.72971  Biso   1.000  C
  H23      1.0000 0.92919  0.07421  0.85944  Biso   1.000  H
  H24      1.0000 0.99553  0.18700  0.73545  Biso   1.000  H
  C21      1.0000 0.46030  0.53557  0.67358  Biso   1.000  C
  C22      1.0000 0.40332  0.47131  0.60262  Biso   1.000  C
  H25      1.0000 0.48929  0.59909  0.63792  Biso   1.000  H
  C23      1.0000 0.47488  0.50719  0.79640  Biso   1.000  C
  C24      1.0000 0.35998  0.37695  0.65666  Biso   1.000  C
  O6       1.0000 0.38520  0.49257  0.47999  Biso   1.000  O
  C25      1.0000 0.43212  0.41676  0.85026  Biso   1.000  C
  H26      1.0000 0.51409  0.54958  0.84316  Biso   1.000  H
  O7       1.0000 0.30667  0.31134  0.57897  Biso   1.000  O
  C26      1.0000 0.37432  0.34955  0.78084  Biso   1.000  C
  C27      1.0000 0.38829  0.63460  0.43059  Biso   1.000  C
  H27      1.0000 0.44169  0.40017  0.93404  Biso   1.000  H
  C28      1.0000 0.24750  0.27866  0.62409  Biso   1.000  C
  H28      1.0000 0.34542  0.28689  0.81732  Biso   1.000  H
  C29      1.0000 0.36000  0.63841  0.29904  Biso   1.000  C
  H29      1.0000 0.43498  0.66863  0.44332  Biso   1.000  H
  H30      1.0000 0.36450  0.71360  0.47116  Biso   1.000  H
  C30      1.0000 0.19440  0.21919  0.51983  Biso   1.000  C
  H31      1.0000 0.23240  0.37756  0.65884  Biso   1.000  H
  H32      1.0000 0.25633  0.19536  0.68714  Biso   1.000  H
  C31      1.0000 0.29258  0.71741  0.26119  Biso   1.000  C
  H33      1.0000 0.35681  0.52623  0.26929  Biso   1.000  H
  H34      1.0000 0.39151  0.69542  0.25873  Biso   1.000  H
  C32      1.0000 0.18308  0.33911  0.41467  Biso   1.000  C
  O8       1.0000 0.13761  0.20666  0.57706  Biso   1.000  O
  C33      1.0000 0.21491  0.05529  0.47353  Biso   1.000  C
  O9       1.0000 0.24472  0.61875  0.30468  Biso   1.000  O
  H35      1.0000 0.29322  0.82713  0.29522  Biso   1.000  H
  H36      1.0000 0.28120  0.72589  0.17331  Biso   1.000  H
  O10      1.0000 0.16550  0.49662  0.45524  Biso   1.000  O
  H37      1.0000 0.22367  0.34832  0.38146  Biso   1.000  H
  H38      1.0000 0.14738  0.29918  0.35089  Biso   1.000  H
  C34      1.0000 0.07982  0.13429  0.51137  Biso   1.000  C
  H39      1.0000 0.17998  0.02715  0.40548  Biso   1.000  H
  H40      1.0000 0.25991  0.06254  0.45524  Biso   1.000  H
  H41      1.0000 0.21998  0.96486  0.53694  Biso   1.000  H
  C35      1.0000 0.18047  0.67576  0.28866  Biso   1.000  C
  C36      1.0000 0.14057  0.60769  0.36326  Biso   1.000  C
  H42      1.0000 0.04477  0.11746  0.55677  Biso   1.000  H
  H43      1.0000 0.06180  0.19081  0.43695  Biso   1.000  H
  H44      1.0000 0.09762  0.02998  0.49309  Biso   1.000  H
  C37      1.0000 0.15267  0.79371  0.20397  Biso   1.000  C
  C38      1.0000 0.07532  0.65807  0.35344  Biso   1.000  C
  C39      1.0000 0.08820  0.84482  0.19642  Biso   1.000  C
  H45      1.0000 0.17849  0.83819  0.15193  Biso   1.000  H
  H46      1.0000 0.04870  0.61113  0.40302  Biso   1.000  H
  C40      1.0000 0.04862  0.77811  0.27029  Biso   1.000  C
  H47      1.0000 0.07079  0.92579  0.14056  Biso   1.000  H
  H48      1.0000 0.00450  0.81300  0.26456  Biso   1.000  H
  C41      1.0000 0.64001  0.13835  0.20096  Biso   1.000  C
  C42      1.0000 0.61172  0.13466  0.06941  Biso   1.000  C
  C43      1.0000 0.70738  0.21735  0.23881  Biso   1.000  C
  H49      1.0000 0.64320  0.02617  0.23071  Biso   1.000  H
  H50      1.0000 0.60851  0.19536  0.24127  Biso   1.000  H
  O11      1.0000 0.61481  0.99263  0.02001  Biso   1.000  O
  H51      1.0000 0.56498  0.16857  0.05668  Biso   1.000  H
  H52      1.0000 0.63551  0.21354  0.02884  Biso   1.000  H
  O12      1.0000 0.75530  0.11869  0.19532  Biso   1.000  O
  H53      1.0000 0.70679  0.32707  0.20479  Biso   1.000  H
  H54      1.0000 0.71882  0.22595  0.32669  Biso   1.000  H
  C44      1.0000 0.59669  0.97125  0.89738  Biso   1.000  C
  C45      1.0000 0.81949  0.17582  0.21134  Biso   1.000  C
  C46      1.0000 0.64003  0.87689  0.84334  Biso   1.000  C
  C47      1.0000 0.53972  0.03563  0.82642  Biso   1.000  C
  C48      1.0000 0.85939  0.10775  0.13674  Biso   1.000  C
  C49      1.0000 0.84729  0.29365  0.29603  Biso   1.000  C
  O13      1.0000 0.69329  0.81140  0.92103  Biso   1.000  O
  C50      1.0000 0.62569  0.84961  0.71916  Biso   1.000  C
  H55      1.0000 0.51072  0.09915  0.86208  Biso   1.000  H
  C51      1.0000 0.52508  0.00725  0.70360  Biso   1.000  C
  O14      1.0000 0.83451  0.99656  0.04476  Biso   1.000  O
  C52      1.0000 0.92470  0.15813  0.14656  Biso   1.000  C
  C53      1.0000 0.91181  0.34476  0.30358  Biso   1.000  C
  H56      1.0000 0.82148  0.33825  0.34807  Biso   1.000  H
  C54      1.0000 0.75251  0.77860  0.87591  Biso   1.000  C
  C55      1.0000 0.56789  0.91682  0.64974  Biso   1.000  C
  H57      1.0000 0.65459  0.78695  0.68268  Biso   1.000  H
  H58      1.0000 0.48592  0.04964  0.65684  Biso   1.000  H
  C56      1.0000 0.81693  0.83905  0.08533  Biso   1.000  C
  H59      1.0000 0.95131  0.11107  0.09698  Biso   1.000  H
  C57      1.0000 0.95139  0.27804  0.22971  Biso   1.000  C
  H60      1.0000 0.92922  0.42585  0.35944  Biso   1.000  H
  H61      1.0000 0.76761  0.87763  0.84116  Biso   1.000  H
  H62      1.0000 0.74368  0.69542  0.81286  Biso   1.000  H
  C58      1.0000 0.80561  0.71925  0.98017  Biso   1.000  C
  H63      1.0000 0.55827  0.90023  0.56596  Biso   1.000  H
  H64      1.0000 0.77629  0.84826  0.11854  Biso   1.000  H
  H65      1.0000 0.85259  0.79924  0.14911  Biso   1.000  H
  H66      1.0000 0.99551  0.31306  0.23544  Biso   1.000  H
  C59      1.0000 0.78510  0.55535  0.02647  Biso   1.000  C
  O15      1.0000 0.86240  0.70672  0.92294  Biso   1.000  O
  H67      1.0000 0.81998  0.52721  0.09452  Biso   1.000  H
  H68      1.0000 0.74010  0.56248  0.04476  Biso   1.000  H
  H69      1.0000 0.77998  0.46492  0.96306  Biso   1.000  H
  C60      1.0000 0.92019  0.63435  0.98863  Biso   1.000  C
  H70      1.0000 0.93821  0.69075  0.06295  Biso   1.000  H
  H71      1.0000 0.90239  0.53004  0.00691  Biso   1.000  H
  H72      1.0000 0.95519  0.61752  0.94323  Biso   1.000  H
  C61      1.0000 0.36001  0.86165  0.79904  Biso   1.000  C
  C62      1.0000 0.29259  0.78265  0.76119  Biso   1.000  C
  H73      1.0000 0.35678  0.97383  0.76929  Biso   1.000  H
  H74      1.0000 0.39152  0.80464  0.75873  Biso   1.000  H
  C63      1.0000 0.38830  0.86534  0.93059  Biso   1.000  C
  O16      1.0000 0.24468  0.88131  0.80468  Biso   1.000  O
  H75      1.0000 0.29318  0.67293  0.79522  Biso   1.000  H
  H76      1.0000 0.28121  0.77405  0.67331  Biso   1.000  H
  O17      1.0000 0.38522  0.00737  0.97999  Biso   1.000  O
  H77      1.0000 0.43500  0.83143  0.94332  Biso   1.000  H
  H78      1.0000 0.36451  0.78646  0.97116  Biso   1.000  H
  C64      1.0000 0.18048  0.82418  0.78867  Biso   1.000  C
  C65      1.0000 0.40328  0.02875  0.10262  Biso   1.000  C
  C66      1.0000 0.14058  0.89225  0.86327  Biso   1.000  C
  C67      1.0000 0.15269  0.70635  0.70397  Biso   1.000  C
  C68      1.0000 0.36000  0.12311  0.15666  Biso   1.000  C
  C69      1.0000 0.46031  0.96437  0.17358  Biso   1.000  C
  O18      1.0000 0.16552  0.00344  0.95524  Biso   1.000  O
  C70      1.0000 0.07533  0.84187  0.85344  Biso   1.000  C
  C71      1.0000 0.08822  0.65524  0.69642  Biso   1.000  C
  H79      1.0000 0.17850  0.66175  0.65193  Biso   1.000  H
  O19      1.0000 0.30669  0.18860  0.07897  Biso   1.000  O
  C72      1.0000 0.37429  0.15039  0.28084  Biso   1.000  C
  H80      1.0000 0.48930  0.90085  0.13792  Biso   1.000  H
  C73      1.0000 0.47489  0.99275  0.29640  Biso   1.000  C
  C74      1.0000 0.18310  0.16095  0.91467  Biso   1.000  C
  H81      1.0000 0.04871  0.88893  0.90302  Biso   1.000  H
  C75      1.0000 0.04858  0.72196  0.77029  Biso   1.000  C
  H82      1.0000 0.07080  0.57415  0.64056  Biso   1.000  H
  C76      1.0000 0.24751  0.22140  0.12409  Biso   1.000  C
  C77      1.0000 0.43208  0.08318  0.35026  Biso   1.000  C
  H83      1.0000 0.34538  0.21305  0.31732  Biso   1.000  H
  H84      1.0000 0.51410  0.95036  0.34316  Biso   1.000  H
  H85      1.0000 0.22369  0.15174  0.88146  Biso   1.000  H
  H86      1.0000 0.14739  0.20076  0.85089  Biso   1.000  H
  C78      1.0000 0.19441  0.28075  0.01983  Biso   1.000  C
  H87      1.0000 0.00451  0.68694  0.76456  Biso   1.000  H
  H88      1.0000 0.23242  0.12237  0.15884  Biso   1.000  H
  H89      1.0000 0.25629  0.30458  0.18714  Biso   1.000  H
  H90      1.0000 0.44170  0.09977  0.43405  Biso   1.000  H
  C79      1.0000 0.21493  0.44465  0.97353  Biso   1.000  C
  O20      1.0000 0.13757  0.29328  0.07706  Biso   1.000  O
  H91      1.0000 0.17999  0.47279  0.90548  Biso   1.000  H
  H92      1.0000 0.25992  0.43752  0.95524  Biso   1.000  H
  H93      1.0000 0.21999  0.53508  0.03694  Biso   1.000  H
  C80      1.0000 0.07978  0.36565  0.01137  Biso   1.000  C
  H94      1.0000 0.06181  0.30925  0.93696  Biso   1.000  H
  H95      1.0000 0.09758  0.46996  0.99309  Biso   1.000  H
  H96      1.0000 0.04479  0.38248  0.05677  Biso   1.000  H
