data_image0
_cell_length_a       21.026
_cell_length_b       12.611
_cell_length_c       34.916
_cell_angle_alpha    90
_cell_angle_beta     93.67
_cell_angle_gamma    90

_symmetry_space_group_name_H-M    "P 1"
_symmetry_int_tables_number       1

loop_
  _symmetry_equiv_pos_as_xyz
  'x, y, z'

loop_
  _atom_site_label
  _atom_site_occupancy
  _atom_site_fract_x
  _atom_site_fract_y
  _atom_site_fract_z
  _atom_site_thermal_displace_type
  _atom_site_B_iso_or_equiv
  _atom_site_type_symbol
  C1       1.0000 0.59812  0.35961  0.43809  Biso   1.000  C
  C2       1.0000 0.57069  0.37792  0.39430  Biso   1.000  C
  N1       1.0000 0.65751  0.29213  0.43841  Biso   1.000  N
  N2       1.0000 0.55322  0.26969  0.37670  Biso   1.000  N
  C3       1.0000 0.67039  0.24931  0.47950  Biso   1.000  C
  C4       1.0000 0.70710  0.36754  0.42839  Biso   1.000  C
  C5       1.0000 0.53029  0.28697  0.34181  Biso   1.000  C
  C6       1.0000 0.62371  0.17509  0.48731  Biso   1.000  C
  C7       1.0000 0.76520  0.28213  0.42110  Biso   1.000  C
  C8       1.0000 0.51909  0.19380  0.31781  Biso   1.000  C
  N3       1.0000 0.63049  0.08627  0.45709  Biso   1.000  N
  N4       1.0000 0.75761  0.23004  0.38371  Biso   1.000  N
  O1       1.0000 0.47069  0.12037  0.33010  Biso   1.000  O
  C9       1.0000 0.67828  0.98612  0.46779  Biso   1.000  C
  C10      1.0000 0.81832  0.14709  0.37900  Biso   1.000  C
  C11      1.0000 0.41060  0.11672  0.30711  Biso   1.000  C
  C12      1.0000 0.68178  0.92173  0.44389  Biso   1.000  C
  C13      1.0000 0.80868  0.09730  0.34559  Biso   1.000  C
  C14      1.0000 0.37070  0.03917  0.32949  Biso   1.000  C
  O2       1.0000 0.61571  0.86401  0.45049  Biso   1.000  O
  O3       1.0000 0.75859  0.01189  0.34861  Biso   1.000  O
  N5       1.0000 0.39960  0.94394  0.33739  Biso   1.000  N
  C15      1.0000 0.61048  0.77567  0.47379  Biso   1.000  C
  C16      1.0000 0.74032  0.95417  0.31049  Biso   1.000  C
  C17      1.0000 0.41022  0.87899  0.30349  Biso   1.000  C
  C18      1.0000 0.52918  0.75196  0.47009  Biso   1.000  C
  C19      1.0000 0.68390  0.89303  0.32519  Biso   1.000  C
  C20      1.0000 0.43210  0.77528  0.31600  Biso   1.000  C
  N6       1.0000 0.51031  0.75228  0.43080  Biso   1.000  N
  N7       1.0000 0.63262  0.96130  0.32909  Biso   1.000  N
  N8       1.0000 0.49092  0.77742  0.34631  Biso   1.000  N
  C21      1.0000 0.54008  0.67988  0.40351  Biso   1.000  C
  C22      1.0000 0.57712  0.90929  0.34921  Biso   1.000  C
  C23      1.0000 0.50179  0.66846  0.36319  Biso   1.000  C
  C24      1.0000 0.54782  0.80913  0.32909  Biso   1.000  C
  C25      1.0000 0.40192  0.64039  0.56190  Biso   1.000  C
  N9       1.0000 0.34249  0.70787  0.56161  Biso   1.000  N
  C26      1.0000 0.42931  0.62208  0.60569  Biso   1.000  C
  C27      1.0000 0.32961  0.75069  0.52051  Biso   1.000  C
  C28      1.0000 0.29290  0.63246  0.57160  Biso   1.000  C
  N10      1.0000 0.44678  0.73031  0.62331  Biso   1.000  N
  C29      1.0000 0.37629  0.82491  0.51271  Biso   1.000  C
  C30      1.0000 0.23479  0.71787  0.57889  Biso   1.000  C
  C31      1.0000 0.46971  0.71303  0.65821  Biso   1.000  C
  N11      1.0000 0.36951  0.91373  0.54290  Biso   1.000  N
  N12      1.0000 0.24239  0.76996  0.61631  Biso   1.000  N
  C32      1.0000 0.48091  0.80620  0.68220  Biso   1.000  C
  C33      1.0000 0.32172  0.01388  0.53219  Biso   1.000  C
  C34      1.0000 0.18172  0.85291  0.62099  Biso   1.000  C
  O4       1.0000 0.52931  0.87963  0.66989  Biso   1.000  O
  C35      1.0000 0.31822  0.07827  0.55610  Biso   1.000  C
  C36      1.0000 0.19131  0.90270  0.65440  Biso   1.000  C
  C37      1.0000 0.58940  0.88328  0.69291  Biso   1.000  C
  O5       1.0000 0.38429  0.13599  0.54950  Biso   1.000  O
  O6       1.0000 0.24141  0.98811  0.65141  Biso   1.000  O
  C38      1.0000 0.62929  0.96083  0.67050  Biso   1.000  C
  C39      1.0000 0.38952  0.22433  0.52620  Biso   1.000  C
  C40      1.0000 0.25968  0.04583  0.68949  Biso   1.000  C
  N13      1.0000 0.60039  0.05606  0.66260  Biso   1.000  N
  C41      1.0000 0.47081  0.24804  0.52990  Biso   1.000  C
  C42      1.0000 0.31609  0.10697  0.67480  Biso   1.000  C
  C43      1.0000 0.58978  0.12101  0.69650  Biso   1.000  C
  N14      1.0000 0.48968  0.24772  0.56919  Biso   1.000  N
  N15      1.0000 0.36742  0.03870  0.67090  Biso   1.000  N
  C44      1.0000 0.56790  0.22472  0.68401  Biso   1.000  C
  C45      1.0000 0.45992  0.32012  0.59651  Biso   1.000  C
  C46      1.0000 0.42288  0.09071  0.65081  Biso   1.000  C
  N16      1.0000 0.50908  0.22258  0.65371  Biso   1.000  N
  C47      1.0000 0.49820  0.33154  0.63680  Biso   1.000  C
  C48      1.0000 0.45222  0.19087  0.67090  Biso   1.000  C
  C49      1.0000 0.73562  0.70708  0.57949  Biso   1.000  C
  N17      1.0000 0.81618  0.69368  0.57539  Biso   1.000  N
  C50      1.0000 0.72281  0.68924  0.61780  Biso   1.000  C
  C51      1.0000 0.82759  0.69463  0.53601  Biso   1.000  C
  C52      1.0000 0.84068  0.78241  0.59559  Biso   1.000  C
  N18      1.0000 0.72662  0.57307  0.63040  Biso   1.000  N
  C53      1.0000 0.81559  0.57577  0.51790  Biso   1.000  C
  C54      1.0000 0.92082  0.75823  0.60899  Biso   1.000  C
  C55      1.0000 0.71129  0.55166  0.66691  Biso   1.000  C
  N19      1.0000 0.84869  0.48434  0.54210  Biso   1.000  N
  N20      1.0000 0.92341  0.66093  0.63029  Biso   1.000  N
  C56      1.0000 0.72052  0.44620  0.68530  Biso   1.000  C
  C57      1.0000 0.82839  0.37729  0.52430  Biso   1.000  C
  C58      1.0000 0.91890  0.69098  0.66929  Biso   1.000  C
  O7       1.0000 0.78652  0.41448  0.68881  Biso   1.000  O
  C59      1.0000 0.85590  0.31028  0.54640  Biso   1.000  C
  C60      1.0000 0.92949  0.60249  0.68881  Biso   1.000  C
  C61      1.0000 0.78991  0.30553  0.70011  Biso   1.000  C
  O8       1.0000 0.92899  0.31060  0.54580  Biso   1.000  O
  O9       1.0000 0.99982  0.55142  0.68381  Biso   1.000  O
  C62      1.0000 0.86988  0.29974  0.69759  Biso   1.000  C
  C63      1.0000 0.95860  0.24098  0.51661  Biso   1.000  C
  C64      1.0000 0.04610  0.57712  0.70889  Biso   1.000  C
  N21      1.0000 0.86978  0.29831  0.65371  Biso   1.000  N
  C65      1.0000 0.03262  0.25660  0.52390  Biso   1.000  C
  C66      1.0000 0.10531  0.53326  0.68740  Biso   1.000  C
  C67      1.0000 0.94341  0.31124  0.64441  Biso   1.000  C
  N22      1.0000 0.05118  0.23947  0.56379  Biso   1.000  N
  N23      1.0000 0.11009  0.42828  0.67150  Biso   1.000  N
  C68      1.0000 0.97820  0.21410  0.65979  Biso   1.000  C
  C69      1.0000 0.03590  0.14202  0.58380  Biso   1.000  C
  C70      1.0000 0.09108  0.34034  0.69940  Biso   1.000  C
  N24      1.0000 0.04858  0.21973  0.64759  Biso   1.000  N
  C71      1.0000 0.06040  0.13948  0.62099  Biso   1.000  C
  C72      1.0000 0.09361  0.23083  0.68249  Biso   1.000  C
  C73      1.0000 0.26438  0.29292  0.42050  Biso   1.000  C
  C74      1.0000 0.27719  0.31076  0.38221  Biso   1.000  C
  N25      1.0000 0.18382  0.30632  0.42460  Biso   1.000  N
  N26      1.0000 0.27338  0.42693  0.36959  Biso   1.000  N
  C75      1.0000 0.17241  0.30537  0.46401  Biso   1.000  C
  C76      1.0000 0.15932  0.21759  0.40440  Biso   1.000  C
  C77      1.0000 0.28871  0.44834  0.33311  Biso   1.000  C
  C78      1.0000 0.18441  0.42423  0.48209  Biso   1.000  C
  C79      1.0000 0.07918  0.24177  0.39100  Biso   1.000  C
  C80      1.0000 0.27948  0.55380  0.31471  Biso   1.000  C
  N27      1.0000 0.15131  0.51566  0.45789  Biso   1.000  N
  N28      1.0000 0.07658  0.33907  0.36970  Biso   1.000  N
  O10      1.0000 0.21352  0.58552  0.31121  Biso   1.000  O
  C81      1.0000 0.17160  0.62271  0.47569  Biso   1.000  C
  C82      1.0000 0.08109  0.30902  0.33070  Biso   1.000  C
  C83      1.0000 0.21009  0.69447  0.29990  Biso   1.000  C
  C84      1.0000 0.14410  0.68972  0.45359  Biso   1.000  C
  C85      1.0000 0.07051  0.39751  0.31121  Biso   1.000  C
  C86      1.0000 0.13012  0.70026  0.30240  Biso   1.000  C
  O11      1.0000 0.07101  0.68940  0.45419  Biso   1.000  O
  O12      1.0000 0.00022  0.44858  0.31621  Biso   1.000  O
  N29      1.0000 0.13022  0.70169  0.34631  Biso   1.000  N
  C87      1.0000 0.04140  0.75902  0.48341  Biso   1.000  C
  C88      1.0000 0.95389  0.42288  0.29109  Biso   1.000  C
  C89      1.0000 0.05659  0.68876  0.35561  Biso   1.000  C
  C90      1.0000 0.96738  0.74340  0.47609  Biso   1.000  C
  C91      1.0000 0.89468  0.46674  0.31259  Biso   1.000  C
  C92      1.0000 0.02180  0.78590  0.34020  Biso   1.000  C
  N30      1.0000 0.94882  0.76053  0.43620  Biso   1.000  N
  N31      1.0000 0.88991  0.57172  0.32849  Biso   1.000  N
  N32      1.0000 0.95142  0.78027  0.35240  Biso   1.000  N
  C93      1.0000 0.96410  0.85798  0.41619  Biso   1.000  C
  C94      1.0000 0.90891  0.65966  0.30059  Biso   1.000  C
  C95      1.0000 0.93960  0.86052  0.37900  Biso   1.000  C
  C96      1.0000 0.90638  0.76917  0.31750  Biso   1.000  C
  C97      1.0000 0.58980  0.37903  0.19650  Biso   1.000  C
  C98      1.0000 0.56788  0.27532  0.18399  Biso   1.000  C
  N33      1.0000 0.60042  0.44390  0.16261  Biso   1.000  N
  N34      1.0000 0.50911  0.27738  0.15371  Biso   1.000  N
  C99      1.0000 0.62932  0.53921  0.17050  Biso   1.000  C
  C100     1.0000 0.45220  0.30910  0.17090  Biso   1.000  C
  C101     1.0000 0.49818  0.16850  0.13681  Biso   1.000  C
  C102     1.0000 0.58942  0.61668  0.19289  Biso   1.000  C
  C103     1.0000 0.42291  0.40933  0.15081  Biso   1.000  C
  C104     1.0000 0.45989  0.17992  0.09649  Biso   1.000  C
  O13      1.0000 0.52928  0.62041  0.16990  Biso   1.000  O
  N35      1.0000 0.36740  0.46126  0.17090  Biso   1.000  N
  N36      1.0000 0.48971  0.25232  0.06919  Biso   1.000  N
  C105     1.0000 0.48089  0.69384  0.18221  Biso   1.000  C
  C106     1.0000 0.31612  0.39299  0.17481  Biso   1.000  C
  C107     1.0000 0.47079  0.25200  0.02990  Biso   1.000  C
  C108     1.0000 0.46968  0.78701  0.15819  Biso   1.000  C
  C109     1.0000 0.25970  0.45421  0.18950  Biso   1.000  C
  C110     1.0000 0.38950  0.27571  0.02620  Biso   1.000  C
  N37      1.0000 0.44681  0.76972  0.12329  Biso   1.000  N
  O14      1.0000 0.24138  0.51193  0.15139  Biso   1.000  O
  O15      1.0000 0.38432  0.36397  0.04951  Biso   1.000  O
  C111     1.0000 0.42929  0.87788  0.10570  Biso   1.000  C
  C112     1.0000 0.19129  0.59734  0.15440  Biso   1.000  C
  C113     1.0000 0.31820  0.42170  0.05611  Biso   1.000  C
  C114     1.0000 0.40190  0.85957  0.06190  Biso   1.000  C
  C115     1.0000 0.18170  0.64713  0.12100  Biso   1.000  C
  C116     1.0000 0.32170  0.48608  0.03220  Biso   1.000  C
  N38      1.0000 0.34251  0.79209  0.06159  Biso   1.000  N
  N39      1.0000 0.24241  0.73000  0.11629  Biso   1.000  N
  N40      1.0000 0.36949  0.58631  0.04291  Biso   1.000  N
  C117     1.0000 0.29288  0.86750  0.07160  Biso   1.000  C
  C118     1.0000 0.32958  0.74927  0.02049  Biso   1.000  C
  C119     1.0000 0.23482  0.78209  0.07889  Biso   1.000  C
  C120     1.0000 0.37632  0.67512  0.01271  Biso   1.000  C
  C121     1.0000 0.41020  0.62097  0.80349  Biso   1.000  C
  N41      1.0000 0.39958  0.55610  0.83741  Biso   1.000  N
  C122     1.0000 0.43212  0.72468  0.81600  Biso   1.000  C
  C123     1.0000 0.37068  0.46079  0.82949  Biso   1.000  C
  N42      1.0000 0.49089  0.72262  0.84631  Biso   1.000  N
  C124     1.0000 0.41058  0.38332  0.80710  Biso   1.000  C
  C125     1.0000 0.50182  0.83150  0.86321  Biso   1.000  C
  C126     1.0000 0.54780  0.69090  0.82909  Biso   1.000  C
  O16      1.0000 0.47071  0.37959  0.83009  Biso   1.000  O
  C127     1.0000 0.54011  0.82008  0.90350  Biso   1.000  C
  C128     1.0000 0.57709  0.59067  0.84920  Biso   1.000  C
  C129     1.0000 0.51911  0.30616  0.81781  Biso   1.000  C
  N43      1.0000 0.51029  0.74768  0.93080  Biso   1.000  N
  N44      1.0000 0.63260  0.53874  0.82909  Biso   1.000  N
  C130     1.0000 0.53031  0.21299  0.84180  Biso   1.000  C
  C131     1.0000 0.52921  0.74800  0.97011  Biso   1.000  C
  C132     1.0000 0.68388  0.60701  0.82521  Biso   1.000  C
  N45      1.0000 0.55319  0.23028  0.87670  Biso   1.000  N
  C133     1.0000 0.61050  0.72429  0.97379  Biso   1.000  C
  C134     1.0000 0.74029  0.54579  0.81049  Biso   1.000  C
  C135     1.0000 0.57071  0.12212  0.89429  Biso   1.000  C
  O17      1.0000 0.61568  0.63603  0.95051  Biso   1.000  O
  O18      1.0000 0.75861  0.48807  0.84860  Biso   1.000  O
  C136     1.0000 0.59810  0.14043  0.93811  Biso   1.000  C
  C137     1.0000 0.68180  0.57830  0.94391  Biso   1.000  C
  C138     1.0000 0.80871  0.40266  0.84559  Biso   1.000  C
  N46      1.0000 0.65749  0.20791  0.93840  Biso   1.000  N
  C139     1.0000 0.67830  0.51392  0.96779  Biso   1.000  C
  C140     1.0000 0.81830  0.35287  0.87899  Biso   1.000  C
  C141     1.0000 0.67041  0.25073  0.97950  Biso   1.000  C
  C142     1.0000 0.70712  0.13250  0.92841  Biso   1.000  C
  N47      1.0000 0.63051  0.41369  0.95711  Biso   1.000  N
  N48      1.0000 0.75759  0.27000  0.88370  Biso   1.000  N
  C143     1.0000 0.62368  0.32488  0.98730  Biso   1.000  C
  C144     1.0000 0.76518  0.21791  0.92110  Biso   1.000  C
  C145     1.0000 0.78989  0.19451  0.20009  Biso   1.000  C
  O19      1.0000 0.78650  0.08548  0.18881  Biso   1.000  O
  C146     1.0000 0.86990  0.20030  0.19759  Biso   1.000  C
  C147     1.0000 0.72050  0.05376  0.18531  Biso   1.000  C
  N49      1.0000 0.86981  0.20173  0.15371  Biso   1.000  N
  C148     1.0000 0.71131  0.94830  0.16691  Biso   1.000  C
  C149     1.0000 0.94339  0.18880  0.14441  Biso   1.000  C
  N50      1.0000 0.72660  0.92689  0.13041  Biso   1.000  N
  C150     1.0000 0.97818  0.28586  0.15980  Biso   1.000  C
  C151     1.0000 0.72279  0.81080  0.11781  Biso   1.000  C
  N51      1.0000 0.04860  0.28031  0.14760  Biso   1.000  N
  C152     1.0000 0.73560  0.79288  0.07950  Biso   1.000  C
  C153     1.0000 0.06042  0.36048  0.12100  Biso   1.000  C
  C154     1.0000 0.09359  0.26921  0.18250  Biso   1.000  C
  N52      1.0000 0.81620  0.80628  0.07539  Biso   1.000  N
  C155     1.0000 0.03592  0.35802  0.08380  Biso   1.000  C
  C156     1.0000 0.09111  0.15970  0.19940  Biso   1.000  C
  C157     1.0000 0.82762  0.80541  0.03599  Biso   1.000  C
  C158     1.0000 0.84070  0.71763  0.09560  Biso   1.000  C
  N53      1.0000 0.05120  0.26049  0.06380  Biso   1.000  N
  N54      1.0000 0.11012  0.07168  0.17151  Biso   1.000  N
  C159     1.0000 0.81561  0.92419  0.01791  Biso   1.000  C
  C160     1.0000 0.92079  0.74181  0.10900  Biso   1.000  C
  C161     1.0000 0.03260  0.24344  0.02391  Biso   1.000  C
  C162     1.0000 0.10529  0.96670  0.18740  Biso   1.000  C
  N55      1.0000 0.84872  0.01570  0.04210  Biso   1.000  N
  N56      1.0000 0.92339  0.83911  0.13029  Biso   1.000  N
  C163     1.0000 0.95858  0.25898  0.01659  Biso   1.000  C
  C164     1.0000 0.04608  0.92292  0.20890  Biso   1.000  C
  C165     1.0000 0.82842  0.12267  0.02431  Biso   1.000  C
  C166     1.0000 0.91888  0.80898  0.16930  Biso   1.000  C
  O20      1.0000 0.92901  0.18944  0.04580  Biso   1.000  O
  O21      1.0000 0.99980  0.94862  0.18379  Biso   1.000  O
  C167     1.0000 0.85588  0.18968  0.04641  Biso   1.000  C
  C168     1.0000 0.92952  0.89747  0.18881  Biso   1.000  C
  C169     1.0000 0.21011  0.80549  0.79990  Biso   1.000  C
  C170     1.0000 0.13009  0.79970  0.80240  Biso   1.000  C
  O22      1.0000 0.21350  0.91452  0.81121  Biso   1.000  O
  N57      1.0000 0.13019  0.79827  0.84631  Biso   1.000  N
  C171     1.0000 0.27950  0.94624  0.81471  Biso   1.000  C
  C172     1.0000 0.05661  0.81120  0.85560  Biso   1.000  C
  C173     1.0000 0.28869  0.05170  0.83310  Biso   1.000  C
  C174     1.0000 0.02182  0.71414  0.84019  Biso   1.000  C
  N58      1.0000 0.27340  0.07311  0.86961  Biso   1.000  N
  N59      1.0000 0.95140  0.71969  0.85239  Biso   1.000  N
  C175     1.0000 0.27721  0.18920  0.88221  Biso   1.000  C
  C176     1.0000 0.93958  0.63952  0.87899  Biso   1.000  C
  C177     1.0000 0.90640  0.73079  0.81749  Biso   1.000  C
  C178     1.0000 0.26440  0.20712  0.92049  Biso   1.000  C
  C179     1.0000 0.96408  0.64198  0.91619  Biso   1.000  C
  C180     1.0000 0.90889  0.84030  0.80059  Biso   1.000  C
  N60      1.0000 0.18379  0.19372  0.92460  Biso   1.000  N
  N61      1.0000 0.94879  0.73951  0.93619  Biso   1.000  N
  N62      1.0000 0.88988  0.92832  0.82851  Biso   1.000  N
  C181     1.0000 0.17238  0.19459  0.96400  Biso   1.000  C
  C182     1.0000 0.15929  0.28237  0.90439  Biso   1.000  C
  C183     1.0000 0.96740  0.75656  0.97611  Biso   1.000  C
  C184     1.0000 0.89471  0.03330  0.81261  Biso   1.000  C
  C185     1.0000 0.18439  0.07581  0.98211  Biso   1.000  C
  C186     1.0000 0.07920  0.25819  0.89099  Biso   1.000  C
  C187     1.0000 0.04142  0.74102  0.98340  Biso   1.000  C
  C188     1.0000 0.95392  0.07708  0.79109  Biso   1.000  C
  N63      1.0000 0.15128  0.98430  0.95789  Biso   1.000  N
  N64      1.0000 0.07661  0.16089  0.86970  Biso   1.000  N
  O23      1.0000 0.07099  0.81056  0.95421  Biso   1.000  O
  O24      1.0000 0.00020  0.05138  0.81620  Biso   1.000  O
  C189     1.0000 0.17158  0.87733  0.97571  Biso   1.000  C
  C190     1.0000 0.08112  0.19102  0.83069  Biso   1.000  C
  C191     1.0000 0.14412  0.81032  0.95361  Biso   1.000  C
  C192     1.0000 0.07049  0.10253  0.81121  Biso   1.000  C
