data_image0
_cell_length_a       11.495
_cell_length_b       11.85
_cell_length_c       19.803
_cell_angle_alpha    84.12
_cell_angle_beta     79.61
_cell_angle_gamma    85.61

_symmetry_space_group_name_H-M    "P 1"
_symmetry_int_tables_number       1

loop_
  _symmetry_equiv_pos_as_xyz
  'x, y, z'

loop_
  _atom_site_label
  _atom_site_occupancy
  _atom_site_fract_x
  _atom_site_fract_y
  _atom_site_fract_z
  _atom_site_thermal_displace_type
  _atom_site_B_iso_or_equiv
  _atom_site_type_symbol
  C1       1.0000 0.55516  0.38261  0.45008  Biso   1.000  C
  C2       1.0000 0.55377  0.44310  0.38039  Biso   1.000  C
  C3       1.0000 0.60911  0.26053  0.44519  Biso   1.000  C
  H1       1.0000 0.47309  0.38076  0.47612  Biso   1.000  H
  H2       1.0000 0.60174  0.42450  0.47571  Biso   1.000  H
  C4       1.0000 0.45994  0.44388  0.34673  Biso   1.000  C
  C5       1.0000 0.65820  0.49312  0.34291  Biso   1.000  C
  C6       1.0000 0.72598  0.23341  0.45112  Biso   1.000  C
  C7       1.0000 0.54076  0.17615  0.43323  Biso   1.000  C
  C8       1.0000 0.46236  0.49446  0.27992  Biso   1.000  C
  H3       1.0000 0.39039  0.40862  0.36982  Biso   1.000  H
  C9       1.0000 0.65708  0.54711  0.27822  Biso   1.000  C
  O1       1.0000 0.75261  0.49193  0.37761  Biso   1.000  O
  C10      1.0000 0.77602  0.12339  0.44539  Biso   1.000  C
  H4       1.0000 0.77348  0.29121  0.45911  Biso   1.000  H
  O2       1.0000 0.42424  0.20808  0.42802  Biso   1.000  O
  C11      1.0000 0.58678  0.06362  0.42792  Biso   1.000  C
  O3       1.0000 0.36825  0.49462  0.24538  Biso   1.000  O
  C12      1.0000 0.55952  0.54847  0.24522  Biso   1.000  C
  H5       1.0000 0.72510  0.58481  0.25523  Biso   1.000  H
  C13      1.0000 0.83149  0.57804  0.35972  Biso   1.000  C
  O4       1.0000 0.89180  0.08991  0.45029  Biso   1.000  O
  C14      1.0000 0.70672  0.03638  0.43462  Biso   1.000  C
  C15      1.0000 0.36034  0.13309  0.39792  Biso   1.000  C
  H6       1.0000 0.53844  0.00649  0.41993  Biso   1.000  H
  C16      1.0000 0.26204  0.44405  0.28141  Biso   1.000  C
  C17      1.0000 0.56324  0.60335  0.17171  Biso   1.000  C
  H7       1.0000 0.78765  0.65330  0.36132  Biso   1.000  H
  H8       1.0000 0.87575  0.57208  0.31229  Biso   1.000  H
  C18      1.0000 0.91533  0.56639  0.40951  Biso   1.000  C
  C19      1.0000 0.96397  0.17559  0.46143  Biso   1.000  C
  C20      1.0000 0.75900  0.91661  0.42560  Biso   1.000  C
  H9       1.0000 0.27950  0.16560  0.39730  Biso   1.000  H
  H10      1.0000 0.35753  0.05920  0.42519  Biso   1.000  H
  H11      1.0000 0.40033  0.12320  0.35070  Biso   1.000  H
  H12      1.0000 0.23347  0.47740  0.32569  Biso   1.000  H
  H13      1.0000 0.27593  0.36093  0.29059  Biso   1.000  H
  C21      1.0000 0.17231  0.47151  0.23229  Biso   1.000  C
  H14      1.0000 0.48229  0.63130  0.16532  Biso   1.000  H
  H15      1.0000 0.61322  0.66945  0.16429  Biso   1.000  H
  C22      1.0000 0.61277  0.51985  0.11862  Biso   1.000  C
  Br1      1.0000 0.83664  0.59671  0.49911  Biso   1.000  Br
  H16      1.0000 0.97869  0.61989  0.39359  Biso   1.000  H
  H17      1.0000 0.95260  0.48830  0.41101  Biso   1.000  H
  H18      1.0000 0.93003  0.20843  0.50462  Biso   1.000  H
  H19      1.0000 0.96811  0.23530  0.42312  Biso   1.000  H
  H20      1.0000 0.04389  0.14241  0.46431  Biso   1.000  H
  C23      1.0000 0.79230  0.89399  0.35131  Biso   1.000  C
  H21      1.0000 0.83030  0.90419  0.44761  Biso   1.000  H
  H22      1.0000 0.70075  0.86203  0.44941  Biso   1.000  H
  Br2      1.0000 0.12429  0.63335  0.22311  Biso   1.000  Br
  H23      1.0000 0.10124  0.42777  0.24981  Biso   1.000  H
  H24      1.0000 0.20773  0.44730  0.18630  Biso   1.000  H
  H25      1.0000 0.21090  0.46562  0.18378  Biso   1.000  H
  H26      1.0000 0.13469  0.54896  0.23682  Biso   1.000  H
  Br3      1.0000 0.05105  0.35189  0.26322  Biso   1.000  Br
  C24      1.0000 0.73470  0.50293  0.09588  Biso   1.000  C
  C25      1.0000 0.53667  0.45529  0.09351  Biso   1.000  C
  C26      1.0000 0.90409  0.91003  0.31642  Biso   1.000  C
  C27      1.0000 0.70996  0.86251  0.31492  Biso   1.000  C
  O5       1.0000 0.80400  0.57052  0.12279  Biso   1.000  O
  C28      1.0000 0.77864  0.42656  0.04779  Biso   1.000  C
  C29      1.0000 0.58305  0.37351  0.04650  Biso   1.000  C
  H27      1.0000 0.45350  0.46593  0.10789  Biso   1.000  H
  C30      1.0000 0.93494  0.89471  0.24538  Biso   1.000  C
  H28      1.0000 0.96242  0.93188  0.34013  Biso   1.000  H
  O6       1.0000 0.59926  0.84088  0.35333  Biso   1.000  O
  C31      1.0000 0.73941  0.84328  0.24461  Biso   1.000  C
  C32      1.0000 0.93097  0.54212  0.10831  Biso   1.000  C
  H29      1.0000 0.86156  0.42041  0.03108  Biso   1.000  H
  C33      1.0000 0.70404  0.35800  0.02279  Biso   1.000  C
  O7       1.0000 0.51212  0.30650  0.02077  Biso   1.000  O
  C34      1.0000 0.85285  0.86230  0.21012  Biso   1.000  C
  O8       1.0000 0.04885  0.90741  0.21012  Biso   1.000  O
  C35      1.0000 0.50509  0.81883  0.32069  Biso   1.000  C
  H30      1.0000 0.68229  0.81781  0.22131  Biso   1.000  H
  H31      1.0000 0.97247  0.59507  0.12898  Biso   1.000  H
  H32      1.0000 0.95824  0.54771  0.05830  Biso   1.000  H
  H33      1.0000 0.94758  0.46432  0.12779  Biso   1.000  H
  C36      1.0000 0.75519  0.26896  0.97567  Biso   1.000  C
  C37      1.0000 0.38973  0.32258  0.04129  Biso   1.000  C
  C38      1.0000 0.88537  0.85024  0.13259  Biso   1.000  C
  C39      1.0000 0.12002  0.98632  0.23038  Biso   1.000  C
  H34      1.0000 0.52984  0.75854  0.28909  Biso   1.000  H
  H35      1.0000 0.47908  0.88835  0.29378  Biso   1.000  H
  C40      1.0000 0.40761  0.78161  0.37678  Biso   1.000  C
  C41      1.0000 0.79095  0.16048  0.01412  Biso   1.000  C
  H36      1.0000 0.69593  0.25375  0.94768  Biso   1.000  H
  H37      1.0000 0.82535  0.29782  0.94386  Biso   1.000  H
  H38      1.0000 0.34944  0.27073  0.01892  Biso   1.000  H
  H39      1.0000 0.36431  0.40127  0.02779  Biso   1.000  H
  H40      1.0000 0.36928  0.30732  0.09140  Biso   1.000  H
  C42      1.0000 0.85185  0.95848  0.09119  Biso   1.000  C
  H41      1.0000 0.97152  0.83201  0.12032  Biso   1.000  H
  H42      1.0000 0.84353  0.78672  0.12099  Biso   1.000  H
  H43      1.0000 0.14056  0.95914  0.27590  Biso   1.000  H
  C43      1.0000 0.23536  0.99904  0.17568  Biso   1.000  C
  H44      1.0000 0.07540  0.06080  0.23440  Biso   1.000  H
  Br4      1.0000 0.27043  0.75627  0.33894  Biso   1.000  Br
  H45      1.0000 0.38742  0.84052  0.40972  Biso   1.000  H
  H46      1.0000 0.43380  0.71047  0.40209  Biso   1.000  H
  C44      1.0000 0.89935  0.14324  0.03670  Biso   1.000  C
  C45      1.0000 0.71127  0.07497  0.03248  Biso   1.000  C
  C46      1.0000 0.92965  0.04278  0.07248  Biso   1.000  C
  C47      1.0000 0.73956  0.97407  0.07119  Biso   1.000  C
  H47      1.0000 0.27710  0.92395  0.16960  Biso   1.000  H
  Br5      1.0000 0.33596  0.09616  0.20326  Biso   1.000  Br
  H48      1.0000 0.21462  0.03070  0.13078  Biso   1.000  H
  O9       1.0000 0.97587  0.23194  0.01681  Biso   1.000  O
  H49      1.0000 0.63603  0.08533  0.01861  Biso   1.000  H
  H50      1.0000 0.00636  0.03166  0.08459  Biso   1.000  H
  O10      1.0000 0.66576  0.88679  0.09011  Biso   1.000  O
  C48      1.0000 0.08208  0.22051  0.04578  Biso   1.000  C
  C49      1.0000 0.55265  0.90417  0.07341  Biso   1.000  C
  H51      1.0000 0.12937  0.28616  0.02892  Biso   1.000  H
  H52      1.0000 0.12801  0.15086  0.03212  Biso   1.000  H
  H53      1.0000 0.06151  0.21656  0.09619  Biso   1.000  H
  H54      1.0000 0.50827  0.83630  0.08928  Biso   1.000  H
  H55      1.0000 0.55896  0.91900  0.02330  Biso   1.000  H
  H56      1.0000 0.51118  0.96949  0.09568  Biso   1.000  H
  C50      1.0000 0.44472  0.61742  0.54989  Biso   1.000  C
  C51      1.0000 0.44611  0.55693  0.61958  Biso   1.000  C
  C52      1.0000 0.39077  0.73949  0.55478  Biso   1.000  C
  H57      1.0000 0.52669  0.61917  0.52390  Biso   1.000  H
  H58      1.0000 0.39812  0.57552  0.52432  Biso   1.000  H
  C53      1.0000 0.34157  0.50690  0.65711  Biso   1.000  C
  C54      1.0000 0.53992  0.55605  0.65330  Biso   1.000  C
  C55      1.0000 0.27379  0.76661  0.54891  Biso   1.000  C
  C56      1.0000 0.45911  0.82378  0.56679  Biso   1.000  C
  O11      1.0000 0.24717  0.50809  0.62242  Biso   1.000  O
  C57      1.0000 0.34278  0.45291  0.72181  Biso   1.000  C
  C58      1.0000 0.53751  0.50547  0.72010  Biso   1.000  C
  H59      1.0000 0.60938  0.59140  0.63020  Biso   1.000  H
  C59      1.0000 0.22385  0.87654  0.55463  Biso   1.000  C
  H60      1.0000 0.22629  0.70881  0.54092  Biso   1.000  H
  O12      1.0000 0.57563  0.79186  0.57200  Biso   1.000  O
  C60      1.0000 0.41300  0.93640  0.57210  Biso   1.000  C
  C61      1.0000 0.16829  0.42189  0.64031  Biso   1.000  C
  H61      1.0000 0.27468  0.41521  0.74480  Biso   1.000  H
  C62      1.0000 0.44026  0.45147  0.75480  Biso   1.000  C
  O13      1.0000 0.63163  0.50541  0.75459  Biso   1.000  O
  O14      1.0000 0.10808  0.91012  0.54968  Biso   1.000  O
  C63      1.0000 0.29315  0.96355  0.56540  Biso   1.000  C
  C64      1.0000 0.63953  0.86685  0.60211  Biso   1.000  C
  H62      1.0000 0.46143  0.99344  0.58009  Biso   1.000  H
  C65      1.0000 0.08454  0.43354  0.59051  Biso   1.000  C
  H63      1.0000 0.21222  0.34672  0.63871  Biso   1.000  H
  H64      1.0000 0.12412  0.42786  0.68773  Biso   1.000  H
  C66      1.0000 0.43654  0.39659  0.82831  Biso   1.000  C
  C67      1.0000 0.73783  0.55588  0.71861  Biso   1.000  C
  C68      1.0000 0.03582  0.82434  0.53860  Biso   1.000  C
  C69      1.0000 0.24079  0.08332  0.57442  Biso   1.000  C
  H65      1.0000 0.72028  0.83434  0.60272  Biso   1.000  H
  H66      1.0000 0.64236  0.94074  0.57478  Biso   1.000  H
  H67      1.0000 0.59945  0.87674  0.64933  Biso   1.000  H
  Br6      1.0000 0.16322  0.40330  0.50091  Biso   1.000  Br
  H68      1.0000 0.02111  0.38006  0.60639  Biso   1.000  H
  H69      1.0000 0.04726  0.51172  0.58901  Biso   1.000  H
  H70      1.0000 0.51757  0.36872  0.83470  Biso   1.000  H
  H71      1.0000 0.38656  0.33048  0.83573  Biso   1.000  H
  C70      1.0000 0.38710  0.48008  0.88141  Biso   1.000  C
  H72      1.0000 0.76639  0.52262  0.67433  Biso   1.000  H
  H73      1.0000 0.72386  0.63910  0.70938  Biso   1.000  H
  C71      1.0000 0.82757  0.52851  0.76769  Biso   1.000  C
  H74      1.0000 0.06983  0.79159  0.49540  Biso   1.000  H
  H75      1.0000 0.03175  0.76472  0.57690  Biso   1.000  H
  H76      1.0000 0.95588  0.85761  0.53571  Biso   1.000  H
  C72      1.0000 0.20748  0.10594  0.64871  Biso   1.000  C
  H77      1.0000 0.16948  0.09574  0.55241  Biso   1.000  H
  H78      1.0000 0.29911  0.13799  0.55061  Biso   1.000  H
  C73      1.0000 0.26518  0.49710  0.90409  Biso   1.000  C
  C74      1.0000 0.46320  0.54464  0.90651  Biso   1.000  C
  Br7      1.0000 0.87560  0.36659  0.77686  Biso   1.000  Br
  H79      1.0000 0.89854  0.57216  0.75021  Biso   1.000  H
  H80      1.0000 0.79204  0.55271  0.81372  Biso   1.000  H
  H81      1.0000 0.78898  0.53440  0.81619  Biso   1.000  H
  H82      1.0000 0.86518  0.45097  0.76320  Biso   1.000  H
  Br8      1.0000 0.94874  0.64805  0.73681  Biso   1.000  Br
  C75      1.0000 0.09568  0.08999  0.68361  Biso   1.000  C
  C76      1.0000 0.28990  0.13750  0.68510  Biso   1.000  C
  O15      1.0000 0.19586  0.42950  0.87723  Biso   1.000  O
  C77      1.0000 0.22116  0.57338  0.95218  Biso   1.000  C
  C78      1.0000 0.41673  0.62651  0.95352  Biso   1.000  C
  H83      1.0000 0.54636  0.53409  0.89213  Biso   1.000  H
  C79      1.0000 0.06494  0.10523  0.75459  Biso   1.000  C
  H84      1.0000 0.03745  0.06805  0.65989  Biso   1.000  H
  O16      1.0000 0.40061  0.15905  0.64670  Biso   1.000  O
  C80      1.0000 0.26037  0.15665  0.75542  Biso   1.000  C
  C81      1.0000 0.06890  0.45789  0.89172  Biso   1.000  C
  H85      1.0000 0.13832  0.57961  0.96889  Biso   1.000  H
  C82      1.0000 0.29576  0.64194  0.97719  Biso   1.000  C
  O17      1.0000 0.48777  0.69344  0.97920  Biso   1.000  O
  O18      1.0000 0.95092  0.09260  0.78990  Biso   1.000  O
  C83      1.0000 0.14702  0.13763  0.78990  Biso   1.000  C
  C84      1.0000 0.49477  0.18119  0.67933  Biso   1.000  C
  H86      1.0000 0.31758  0.18212  0.77872  Biso   1.000  H
  H87      1.0000 0.02741  0.40487  0.87099  Biso   1.000  H
  H88      1.0000 0.04154  0.45230  0.94172  Biso   1.000  H
  H89      1.0000 0.05228  0.53570  0.87223  Biso   1.000  H
  C85      1.0000 0.24469  0.73106  0.02430  Biso   1.000  C
  C86      1.0000 0.61014  0.67736  0.95873  Biso   1.000  C
  C87      1.0000 0.87986  0.01370  0.76959  Biso   1.000  C
  C88      1.0000 0.11451  0.14978  0.86738  Biso   1.000  C
  H90      1.0000 0.47002  0.24148  0.71093  Biso   1.000  H
  H91      1.0000 0.52080  0.11168  0.70619  Biso   1.000  H
  C89      1.0000 0.59219  0.21833  0.62319  Biso   1.000  C
  C90      1.0000 0.20892  0.83945  0.98590  Biso   1.000  C
  H92      1.0000 0.30393  0.74627  0.05235  Biso   1.000  H
  H93      1.0000 0.17454  0.70212  0.05611  Biso   1.000  H
  H94      1.0000 0.65033  0.72929  0.98110  Biso   1.000  H
  H95      1.0000 0.63557  0.59867  0.97219  Biso   1.000  H
  H96      1.0000 0.63059  0.69270  0.90862  Biso   1.000  H
  H97      1.0000 0.92447  0.93914  0.76562  Biso   1.000  H
  H98      1.0000 0.85930  0.04087  0.72413  Biso   1.000  H
  C91      1.0000 0.76443  0.00098  0.82429  Biso   1.000  C
  C92      1.0000 0.14794  0.04145  0.90883  Biso   1.000  C
  H99      1.0000 0.02826  0.16792  0.87970  Biso   1.000  H
  H100     1.0000 0.15627  0.21323  0.87898  Biso   1.000  H
  Br9      1.0000 0.72946  0.24367  0.66103  Biso   1.000  Br
  H101     1.0000 0.61244  0.15950  0.59030  Biso   1.000  H
  H102     1.0000 0.56598  0.28947  0.59793  Biso   1.000  H
  C93      1.0000 0.10052  0.85678  0.96332  Biso   1.000  C
  C94      1.0000 0.28862  0.92497  0.96749  Biso   1.000  C
  Br10     1.0000 0.66391  0.90377  0.79676  Biso   1.000  Br
  H103     1.0000 0.78526  0.96924  0.86919  Biso   1.000  H
  H104     1.0000 0.72276  0.07607  0.83042  Biso   1.000  H
  C95      1.0000 0.07023  0.95717  0.92749  Biso   1.000  C
  C96      1.0000 0.26031  0.02586  0.92883  Biso   1.000  C
  O19      1.0000 0.02400  0.76808  0.98322  Biso   1.000  O
  H105     1.0000 0.36375  0.91468  0.98141  Biso   1.000  H
  H106     1.0000 0.99342  0.96827  0.91543  Biso   1.000  H
  O20      1.0000 0.33411  0.11315  0.90991  Biso   1.000  O
  C97      1.0000 0.91771  0.77951  0.95419  Biso   1.000  C
  C98      1.0000 0.44713  0.09576  0.92661  Biso   1.000  C
  H107     1.0000 0.87050  0.71377  0.97110  Biso   1.000  H
  H108     1.0000 0.87186  0.84907  0.96791  Biso   1.000  H
  H109     1.0000 0.93836  0.78338  0.90383  Biso   1.000  H
  H110     1.0000 0.49161  0.16364  0.91069  Biso   1.000  H
  H111     1.0000 0.44082  0.08093  0.97672  Biso   1.000  H
  H112     1.0000 0.48871  0.03045  0.90429  Biso   1.000  H
