data_image0
_cell_length_a       12.36
_cell_length_b       20.78
_cell_length_c       23.595
_cell_angle_alpha    90
_cell_angle_beta     91.82
_cell_angle_gamma    90

_symmetry_space_group_name_H-M    "P 1"
_symmetry_int_tables_number       1

loop_
  _symmetry_equiv_pos_as_xyz
  'x, y, z'

loop_
  _atom_site_label
  _atom_site_occupancy
  _atom_site_fract_x
  _atom_site_fract_y
  _atom_site_fract_z
  _atom_site_thermal_displace_type
  _atom_site_B_iso_or_equiv
  _atom_site_type_symbol
  C1       1.0000 0.53852  0.38739  0.50464  Biso   1.000  C
  O1       1.0000 0.51850  0.35467  0.55595  Biso   1.000  O
  H1       1.0000 0.56564  0.35679  0.47678  Biso   1.000  H
  H2       1.0000 0.47128  0.40688  0.48980  Biso   1.000  H
  H3       1.0000 0.59268  0.42113  0.51181  Biso   1.000  H
  C2       1.0000 0.47918  0.39090  0.60009  Biso   1.000  C
  C3       1.0000 0.43704  0.35549  0.64432  Biso   1.000  C
  C4       1.0000 0.48297  0.45731  0.60255  Biso   1.000  C
  C5       1.0000 0.39744  0.38951  0.69041  Biso   1.000  C
  C6       1.0000 0.43819  0.28292  0.64453  Biso   1.000  C
  C7       1.0000 0.44547  0.49119  0.64856  Biso   1.000  C
  H4       1.0000 0.51218  0.48041  0.57181  Biso   1.000  H
  C8       1.0000 0.40160  0.45582  0.69236  Biso   1.000  C
  H5       1.0000 0.36717  0.36660  0.72090  Biso   1.000  H
  C9       1.0000 0.53450  0.25635  0.67854  Biso   1.000  C
  H6       1.0000 0.37050  0.26689  0.66098  Biso   1.000  H
  H7       1.0000 0.44056  0.26708  0.60501  Biso   1.000  H
  C10      1.0000 0.45684  0.56314  0.65331  Biso   1.000  C
  O2       1.0000 0.36196  0.49172  0.73646  Biso   1.000  O
  C11      1.0000 0.52938  0.24625  0.73688  Biso   1.000  C
  C12      1.0000 0.63138  0.24312  0.65229  Biso   1.000  C
  C13      1.0000 0.55951  0.58162  0.68664  Biso   1.000  C
  H8       1.0000 0.45856  0.58210  0.61489  Biso   1.000  H
  H9       1.0000 0.39328  0.58090  0.67247  Biso   1.000  H
  C14      1.0000 0.33425  0.45842  0.78641  Biso   1.000  C
  O3       1.0000 0.43225  0.26049  0.76148  Biso   1.000  O
  C15      1.0000 0.61789  0.22223  0.76741  Biso   1.000  C
  H10      1.0000 0.63674  0.25019  0.61268  Biso   1.000  H
  C16      1.0000 0.72048  0.21954  0.68341  Biso   1.000  C
  C17      1.0000 0.55788  0.58956  0.74515  Biso   1.000  C
  C18      1.0000 0.65746  0.58932  0.65954  Biso   1.000  C
  H11      1.0000 0.30712  0.48912  0.81410  Biso   1.000  H
  H12      1.0000 0.27795  0.42652  0.77721  Biso   1.000  H
  H13      1.0000 0.39849  0.43653  0.80248  Biso   1.000  H
  C19      1.0000 0.42797  0.25650  0.82161  Biso   1.000  C
  C20      1.0000 0.71378  0.20828  0.74108  Biso   1.000  C
  H14      1.0000 0.61276  0.21521  0.80698  Biso   1.000  H
  O4       1.0000 0.81995  0.20659  0.66136  Biso   1.000  O
  C21      1.0000 0.65191  0.60443  0.77606  Biso   1.000  C
  H15      1.0000 0.49172  0.58470  0.76411  Biso   1.000  H
  O5       1.0000 0.65298  0.58123  0.60166  Biso   1.000  O
  C22      1.0000 0.75078  0.60544  0.69075  Biso   1.000  C
  H16      1.0000 0.44591  0.21232  0.83458  Biso   1.000  H
  H17      1.0000 0.48052  0.28672  0.83967  Biso   1.000  H
  C23      1.0000 0.31451  0.27377  0.83712  Biso   1.000  C
  C24      1.0000 0.80986  0.18200  0.77522  Biso   1.000  C
  C25      1.0000 0.84111  0.21391  0.60327  Biso   1.000  C
  O6       1.0000 0.65560  0.61270  0.83437  Biso   1.000  O
  C26      1.0000 0.74989  0.61304  0.74948  Biso   1.000  C
  C27      1.0000 0.74893  0.59259  0.57219  Biso   1.000  C
  H18      1.0000 0.81661  0.61141  0.67171  Biso   1.000  H
  S1       1.0000 0.29081  0.26752  0.91201  Biso   1.000  S
  H19      1.0000 0.29919  0.31848  0.82470  Biso   1.000  H
  H20      1.0000 0.26316  0.24509  0.81630  Biso   1.000  H
  H21      1.0000 0.78359  0.15472  0.80630  Biso   1.000  H
  H22      1.0000 0.85383  0.15462  0.75037  Biso   1.000  H
  C28      1.0000 0.88063  0.23523  0.80019  Biso   1.000  C
  C29      1.0000 0.95701  0.19172  0.59878  Biso   1.000  C
  H23      1.0000 0.79153  0.18691  0.57961  Biso   1.000  H
  H24      1.0000 0.83294  0.25938  0.59140  Biso   1.000  H
  C30      1.0000 0.56203  0.59610  0.86439  Biso   1.000  C
  C31      1.0000 0.85106  0.62926  0.78353  Biso   1.000  C
  H25      1.0000 0.73531  0.58542  0.53161  Biso   1.000  H
  H26      1.0000 0.77245  0.63720  0.57838  Biso   1.000  H
  H27      1.0000 0.80577  0.56319  0.58618  Biso   1.000  H
  C32      1.0000 0.34656  0.34148  0.94012  Biso   1.000  C
  C33      1.0000 0.86358  0.25982  0.85379  Biso   1.000  C
  C34      1.0000 0.96199  0.26251  0.76886  Biso   1.000  C
  H28      1.0000 0.96199  0.14692  0.61281  Biso   1.000  H
  S2       1.0000 0.01234  0.19437  0.52911  Biso   1.000  S
  H29      1.0000 0.00299  0.21862  0.62439  Biso   1.000  H
  H30      1.0000 0.57493  0.60452  0.90489  Biso   1.000  H
  H31      1.0000 0.50059  0.62209  0.85040  Biso   1.000  H
  H32      1.0000 0.54566  0.55038  0.85858  Biso   1.000  H
  C35      1.0000 0.90987  0.57026  0.80596  Biso   1.000  C
  H33      1.0000 0.90025  0.65409  0.75948  Biso   1.000  H
  H34      1.0000 0.83191  0.65693  0.81588  Biso   1.000  H
  H35      1.0000 0.29663  0.35938  0.96798  Biso   1.000  H
  H36      1.0000 0.35203  0.37310  0.90887  Biso   1.000  H
  C36      1.0000 0.45603  0.33306  0.96815  Biso   1.000  C
  O7       1.0000 0.78137  0.23085  0.88313  Biso   1.000  O
  C37      1.0000 0.92539  0.31035  0.87512  Biso   1.000  C
  H37      1.0000 0.97562  0.24610  0.73218  Biso   1.000  H
  C38      1.0000 0.02362  0.31309  0.78989  Biso   1.000  C
  C39      1.0000 0.10667  0.25452  0.54111  Biso   1.000  C
  C40      1.0000 0.01862  0.28831  0.50731  Biso   1.000  C
  C41      1.0000 0.89300  0.54673  0.86002  Biso   1.000  C
  C42      1.0000 0.98259  0.53720  0.77238  Biso   1.000  C
  O8       1.0000 0.48923  0.39451  0.98995  Biso   1.000  O
  H38      1.0000 0.50831  0.31742  0.94038  Biso   1.000  H
  H39      1.0000 0.45249  0.30140  0.99928  Biso   1.000  H
  C43      1.0000 0.76550  0.24899  0.93894  Biso   1.000  C
  H40      1.0000 0.91250  0.32632  0.91209  Biso   1.000  H
  C44      1.0000 0.00631  0.33826  0.84344  Biso   1.000  C
  O9       1.0000 0.10538  0.34230  0.76004  Biso   1.000  O
  C45      1.0000 0.07339  0.32199  0.54200  Biso   1.000  C
  H41      1.0000 0.16169  0.25029  0.51168  Biso   1.000  H
  H42      1.0000 0.14378  0.24528  0.57800  Biso   1.000  H
  H43      1.0000 0.14319  0.29981  0.54959  Biso   1.000  H
  H44      1.0000 0.94409  0.30549  0.50439  Biso   1.000  H
  H45      1.0000 0.04693  0.33330  0.50320  Biso   1.000  H
  H46      1.0000 0.05031  0.29192  0.46949  Biso   1.000  H
  C46      1.0000 0.94453  0.49148  0.87991  Biso   1.000  C
  H47      1.0000 0.84518  0.56891  0.88398  Biso   1.000  H
  O10      1.0000 0.99477  0.56208  0.71835  Biso   1.000  O
  C47      1.0000 0.03478  0.48272  0.79256  Biso   1.000  C
  C48      1.0000 0.59486  0.39437  0.01615  Biso   1.000  C
  H48      1.0000 0.70517  0.22430  0.95399  Biso   1.000  H
  H49      1.0000 0.83138  0.24052  0.96188  Biso   1.000  H
  H50      1.0000 0.74851  0.29509  0.94029  Biso   1.000  H
  C49      1.0000 0.06835  0.39596  0.86587  Biso   1.000  C
  C50      1.0000 0.12081  0.32113  0.70355  Biso   1.000  C
  O11      1.0000 0.13913  0.36381  0.55739  Biso   1.000  O
  H51      1.0000 0.01058  0.32522  0.56689  Biso   1.000  H
  O12      1.0000 0.09719  0.38879  0.52610  Biso   1.000  O
  H52      1.0000 0.03464  0.32300  0.57808  Biso   1.000  H
  O13      1.0000 0.92929  0.46506  0.93283  Biso   1.000  O
  C51      1.0000 0.01627  0.45842  0.84611  Biso   1.000  C
  C52      1.0000 0.07568  0.53484  0.68379  Biso   1.000  C
  H53      1.0000 0.08458  0.46141  0.76919  Biso   1.000  H
  H54      1.0000 0.64820  0.37680  0.98978  Biso   1.000  H
  H55      1.0000 0.59583  0.36742  0.05079  Biso   1.000  H
  C53      1.0000 0.62181  0.46314  0.03095  Biso   1.000  C
  H56      1.0000 0.07122  0.39471  0.90777  Biso   1.000  H
  H57      1.0000 0.14361  0.39408  0.85269  Biso   1.000  H
  H58      1.0000 0.18017  0.34538  0.68719  Biso   1.000  H
  H59      1.0000 0.13871  0.27522  0.70381  Biso   1.000  H
  H60      1.0000 0.05414  0.32810  0.68078  Biso   1.000  H
  C54      1.0000 0.11966  0.43152  0.56049  Biso   1.000  C
  H61      1.0000 0.10137  0.44692  0.52169  Biso   1.000  H
  C55      1.0000 0.85259  0.49437  0.96879  Biso   1.000  C
  H62      1.0000 0.14860  0.54110  0.70148  Biso   1.000  H
  H63      1.0000 0.06297  0.48821  0.67828  Biso   1.000  H
  C56      1.0000 0.06556  0.57031  0.62761  Biso   1.000  C
  H64      1.0000 0.62484  0.48850  0.99550  Biso   1.000  H
  S3       1.0000 0.74870  0.47252  0.07022  Biso   1.000  S
  H65      1.0000 0.56291  0.48109  0.05359  Biso   1.000  H
  C57      1.0000 0.19619  0.46920  0.58169  Biso   1.000  C
  H66      1.0000 0.05454  0.43792  0.58330  Biso   1.000  H
  C58      1.0000 0.12762  0.49990  0.54098  Biso   1.000  C
  H67      1.0000 0.06466  0.43022  0.59008  Biso   1.000  H
  H68      1.0000 0.18989  0.42021  0.57919  Biso   1.000  H
  H69      1.0000 0.87770  0.53749  0.98130  Biso   1.000  H
  H70      1.0000 0.78132  0.49870  0.94890  Biso   1.000  H
  C59      1.0000 0.84567  0.44928  0.01878  Biso   1.000  C
  H71      1.0000 0.99839  0.55602  0.60730  Biso   1.000  H
  S4       1.0000 0.17769  0.55828  0.58211  Biso   1.000  S
  H72      1.0000 0.05834  0.61689  0.63529  Biso   1.000  H
  H73      1.0000 0.21058  0.45558  0.62150  Biso   1.000  H
  H74      1.0000 0.26273  0.46011  0.56091  Biso   1.000  H
  H75      1.0000 0.17108  0.49942  0.50651  Biso   1.000  H
  H76      1.0000 0.05359  0.51328  0.52890  Biso   1.000  H
  H77      1.0000 0.82676  0.40582  0.00449  Biso   1.000  H
  H78      1.0000 0.91794  0.44649  0.03790  Biso   1.000  H
  C60      1.0000 0.46159  0.61261  0.49535  Biso   1.000  C
  O14      1.0000 0.48161  0.64538  0.44400  Biso   1.000  O
  H79      1.0000 0.43447  0.64321  0.52317  Biso   1.000  H
  H80      1.0000 0.52883  0.59312  0.51020  Biso   1.000  H
  H81      1.0000 0.40743  0.57892  0.48819  Biso   1.000  H
  C61      1.0000 0.52093  0.60910  0.39991  Biso   1.000  C
  C62      1.0000 0.51714  0.54269  0.39745  Biso   1.000  C
  C63      1.0000 0.56307  0.64451  0.35568  Biso   1.000  C
  C64      1.0000 0.55464  0.50881  0.35144  Biso   1.000  C
  H82      1.0000 0.48793  0.51959  0.42819  Biso   1.000  H
  C65      1.0000 0.60267  0.61049  0.30954  Biso   1.000  C
  C66      1.0000 0.56192  0.71708  0.35542  Biso   1.000  C
  C67      1.0000 0.54327  0.43691  0.34665  Biso   1.000  C
  C68      1.0000 0.59851  0.54418  0.30764  Biso   1.000  C
  H83      1.0000 0.63294  0.63340  0.27910  Biso   1.000  H
  C69      1.0000 0.46561  0.74370  0.32146  Biso   1.000  C
  H84      1.0000 0.62962  0.73311  0.33901  Biso   1.000  H
  H85      1.0000 0.55955  0.73292  0.39499  Biso   1.000  H
  C70      1.0000 0.44060  0.41838  0.31336  Biso   1.000  C
  H86      1.0000 0.54155  0.41790  0.38511  Biso   1.000  H
  H87      1.0000 0.60683  0.41910  0.32748  Biso   1.000  H
  O15      1.0000 0.63815  0.50828  0.26354  Biso   1.000  O
  C71      1.0000 0.47073  0.75375  0.26311  Biso   1.000  C
  C72      1.0000 0.36873  0.75693  0.34771  Biso   1.000  C
  C73      1.0000 0.44223  0.41049  0.25484  Biso   1.000  C
  C74      1.0000 0.34265  0.41068  0.34046  Biso   1.000  C
  C75      1.0000 0.66586  0.54163  0.21359  Biso   1.000  C
  O16      1.0000 0.56786  0.73951  0.23852  Biso   1.000  O
  C76      1.0000 0.38222  0.77777  0.23258  Biso   1.000  C
  H88      1.0000 0.36337  0.74981  0.38731  Biso   1.000  H
  C77      1.0000 0.27963  0.78046  0.31658  Biso   1.000  C
  C78      1.0000 0.34820  0.39557  0.22393  Biso   1.000  C
  H89      1.0000 0.50840  0.41530  0.23589  Biso   1.000  H
  C79      1.0000 0.24933  0.39456  0.30925  Biso   1.000  C
  O17      1.0000 0.34713  0.41877  0.39834  Biso   1.000  O
  H90      1.0000 0.69307  0.51092  0.18590  Biso   1.000  H
  H91      1.0000 0.72216  0.57348  0.22279  Biso   1.000  H
  H92      1.0000 0.60162  0.56352  0.19751  Biso   1.000  H
  C80      1.0000 0.57214  0.74350  0.17839  Biso   1.000  C
  C81      1.0000 0.28633  0.79172  0.25891  Biso   1.000  C
  H93      1.0000 0.38735  0.78479  0.19298  Biso   1.000  H
  O18      1.0000 0.18016  0.79341  0.33863  Biso   1.000  O
  C82      1.0000 0.25022  0.38696  0.25052  Biso   1.000  C
  O19      1.0000 0.34451  0.38730  0.16563  Biso   1.000  O
  H94      1.0000 0.18350  0.38859  0.32829  Biso   1.000  H
  C83      1.0000 0.25118  0.40741  0.42781  Biso   1.000  C
  H95      1.0000 0.55420  0.78773  0.16542  Biso   1.000  H
  H96      1.0000 0.51959  0.71333  0.16028  Biso   1.000  H
  C84      1.0000 0.68560  0.72623  0.16287  Biso   1.000  C
  C85      1.0000 0.19025  0.81800  0.22478  Biso   1.000  C
  C86      1.0000 0.15900  0.78609  0.39668  Biso   1.000  C
  C87      1.0000 0.14905  0.37074  0.21647  Biso   1.000  C
  C88      1.0000 0.43816  0.40390  0.13561  Biso   1.000  C
  H97      1.0000 0.26489  0.41458  0.46839  Biso   1.000  H
  H98      1.0000 0.22766  0.36280  0.42157  Biso   1.000  H
  H99      1.0000 0.19434  0.43681  0.41381  Biso   1.000  H
  S5       1.0000 0.70938  0.73248  0.08799  Biso   1.000  S
  H100     1.0000 0.70092  0.68152  0.17530  Biso   1.000  H
  H101     1.0000 0.73695  0.75491  0.18369  Biso   1.000  H
  C89      1.0000 0.11956  0.76482  0.19980  Biso   1.000  C
  H102     1.0000 0.21652  0.84533  0.19370  Biso   1.000  H
  H103     1.0000 0.14636  0.84543  0.24959  Biso   1.000  H
  C90      1.0000 0.04317  0.80833  0.40118  Biso   1.000  C
  H104     1.0000 0.20858  0.81309  0.42039  Biso   1.000  H
  H105     1.0000 0.16717  0.74062  0.40860  Biso   1.000  H
  C91      1.0000 0.09024  0.42974  0.19404  Biso   1.000  C
  H106     1.0000 0.09986  0.34591  0.24051  Biso   1.000  H
  H107     1.0000 0.16820  0.34312  0.18411  Biso   1.000  H
  H108     1.0000 0.42518  0.39552  0.09511  Biso   1.000  H
  H109     1.0000 0.49952  0.37791  0.14960  Biso   1.000  H
  H110     1.0000 0.45445  0.44962  0.14141  Biso   1.000  H
  C92      1.0000 0.65355  0.65852  0.05987  Biso   1.000  C
  C93      1.0000 0.13653  0.74018  0.14621  Biso   1.000  C
  C94      1.0000 0.03812  0.73749  0.23114  Biso   1.000  C
  S6       1.0000 0.98777  0.80563  0.47089  Biso   1.000  S
  H111     1.0000 0.03812  0.85313  0.38718  Biso   1.000  H
  H112     1.0000 0.99713  0.78142  0.37561  Biso   1.000  H
  C95      1.0000 0.10711  0.45327  0.13993  Biso   1.000  C
  C96      1.0000 0.01752  0.46280  0.22762  Biso   1.000  C
  C97      1.0000 0.54408  0.66694  0.03184  Biso   1.000  C
  H113     1.0000 0.70348  0.64062  0.03201  Biso   1.000  H
  H114     1.0000 0.64808  0.62690  0.09108  Biso   1.000  H
  C98      1.0000 0.07472  0.68965  0.12488  Biso   1.000  C
  O20      1.0000 0.21874  0.76915  0.11686  Biso   1.000  O
  C99      1.0000 0.97657  0.68691  0.21007  Biso   1.000  C
  H115     1.0000 0.02449  0.75390  0.26778  Biso   1.000  H
  C100     1.0000 0.89344  0.74552  0.45889  Biso   1.000  C
  C101     1.0000 0.98149  0.71169  0.49268  Biso   1.000  C
  C102     1.0000 0.05558  0.50852  0.12009  Biso   1.000  C
  H116     1.0000 0.15493  0.43109  0.11602  Biso   1.000  H
  O21      1.0000 0.00534  0.43797  0.28164  Biso   1.000  O
  C103     1.0000 0.96533  0.51728  0.20744  Biso   1.000  C
  O22      1.0000 0.51088  0.60549  0.01005  Biso   1.000  O
  H117     1.0000 0.49180  0.68263  0.05962  Biso   1.000  H
  H118     1.0000 0.54762  0.69860  0.00072  Biso   1.000  H
  C104     1.0000 0.99380  0.66174  0.15655  Biso   1.000  C
  H119     1.0000 0.08761  0.67372  0.08790  Biso   1.000  H
  C105     1.0000 0.23461  0.75101  0.06106  Biso   1.000  C
  O23      1.0000 0.89473  0.65770  0.23996  Biso   1.000  O
  C106     1.0000 0.92680  0.67801  0.45800  Biso   1.000  C
  H120     1.0000 0.85700  0.70019  0.45041  Biso   1.000  H
  H121     1.0000 0.83842  0.74971  0.48827  Biso   1.000  H
  H122     1.0000 0.85633  0.75472  0.42200  Biso   1.000  H
  H123     1.0000 0.95318  0.66670  0.49680  Biso   1.000  H
  H124     1.0000 0.05602  0.69451  0.49561  Biso   1.000  H
  H125     1.0000 0.94980  0.70808  0.53051  Biso   1.000  H
  O24      1.0000 0.07082  0.53494  0.06717  Biso   1.000  O
  C107     1.0000 0.98384  0.54158  0.15388  Biso   1.000  C
  C108     1.0000 0.92443  0.46516  0.31620  Biso   1.000  C
  H126     1.0000 0.91553  0.53859  0.23080  Biso   1.000  H
  C109     1.0000 0.40525  0.60568  0.98384  Biso   1.000  C
  C110     1.0000 0.93176  0.60404  0.13412  Biso   1.000  C
  H127     1.0000 0.29494  0.77570  0.04601  Biso   1.000  H
  H128     1.0000 0.16874  0.75953  0.03812  Biso   1.000  H
  H129     1.0000 0.25160  0.70491  0.05970  Biso   1.000  H
  C111     1.0000 0.87938  0.67892  0.29644  Biso   1.000  C
  O25      1.0000 0.86098  0.63619  0.44261  Biso   1.000  O
  O26      1.0000 0.90292  0.61121  0.47390  Biso   1.000  O
  H130     1.0000 0.98953  0.67478  0.43311  Biso   1.000  H
  H131     1.0000 0.96547  0.67700  0.42191  Biso   1.000  H
  C112     1.0000 0.14752  0.50563  0.03121  Biso   1.000  C
  H132     1.0000 0.85151  0.45890  0.29848  Biso   1.000  H
  H133     1.0000 0.93714  0.51179  0.32171  Biso   1.000  H
  C113     1.0000 0.93455  0.42969  0.37239  Biso   1.000  C
  C114     1.0000 0.37830  0.53686  0.96905  Biso   1.000  C
  H134     1.0000 0.35191  0.62320  0.01022  Biso   1.000  H
  H135     1.0000 0.40428  0.63263  0.94920  Biso   1.000  H
  H136     1.0000 0.92889  0.60529  0.09218  Biso   1.000  H
  H137     1.0000 0.85650  0.60592  0.14731  Biso   1.000  H
  H138     1.0000 0.81994  0.65462  0.31281  Biso   1.000  H
  H139     1.0000 0.86140  0.72478  0.29619  Biso   1.000  H
  H140     1.0000 0.94597  0.67190  0.31921  Biso   1.000  H
  C115     1.0000 0.88045  0.56853  0.43951  Biso   1.000  C
  H141     1.0000 0.89874  0.55313  0.47831  Biso   1.000  H
  H142     1.0000 0.12241  0.46251  0.01870  Biso   1.000  H
  H143     1.0000 0.21879  0.50130  0.05110  Biso   1.000  H
  C116     1.0000 0.15444  0.55072  0.98117  Biso   1.000  C
  H144     1.0000 0.00172  0.44398  0.39270  Biso   1.000  H
  S7       1.0000 0.82242  0.44172  0.41788  Biso   1.000  S
  H145     1.0000 0.94177  0.38311  0.36471  Biso   1.000  H
  S8       1.0000 0.25149  0.52748  0.92978  Biso   1.000  S
  H146     1.0000 0.37527  0.51150  0.00449  Biso   1.000  H
  H147     1.0000 0.43720  0.51891  0.94640  Biso   1.000  H
  C117     1.0000 0.80392  0.53080  0.41831  Biso   1.000  C
  C118     1.0000 0.87249  0.50010  0.45897  Biso   1.000  C
  H148     1.0000 0.81022  0.57979  0.42081  Biso   1.000  H
  H149     1.0000 0.94557  0.56213  0.41670  Biso   1.000  H
  H150     1.0000 0.93545  0.56983  0.40991  Biso   1.000  H
  H151     1.0000 0.17335  0.59423  0.99551  Biso   1.000  H
  H152     1.0000 0.08217  0.55351  0.96209  Biso   1.000  H
  H153     1.0000 0.78953  0.54442  0.37849  Biso   1.000  H
  H154     1.0000 0.73738  0.53989  0.43909  Biso   1.000  H
  H155     1.0000 0.82903  0.50063  0.49349  Biso   1.000  H
  H156     1.0000 0.94652  0.48672  0.47110  Biso   1.000  H
  C119     1.0000 0.76545  0.25101  0.43892  Biso   1.000  C
  O27      1.0000 0.78132  0.26915  0.38311  Biso   1.000  O
  H157     1.0000 0.70520  0.27570  0.45401  Biso   1.000  H
  H158     1.0000 0.83132  0.25948  0.46190  Biso   1.000  H
  H159     1.0000 0.74846  0.20491  0.44027  Biso   1.000  H
  C120     1.0000 0.86352  0.24018  0.35377  Biso   1.000  C
  C121     1.0000 0.88058  0.26482  0.30022  Biso   1.000  C
  C122     1.0000 0.92533  0.18965  0.37514  Biso   1.000  C
  C123     1.0000 0.80981  0.31800  0.27520  Biso   1.000  C
  C124     1.0000 0.96193  0.23749  0.26884  Biso   1.000  C
  H160     1.0000 0.91244  0.17372  0.41207  Biso   1.000  H
  C125     1.0000 0.00626  0.16174  0.34342  Biso   1.000  C
  C126     1.0000 0.71373  0.29172  0.24110  Biso   1.000  C
  H161     1.0000 0.78354  0.34528  0.30628  Biso   1.000  H
  H162     1.0000 0.85377  0.34538  0.25039  Biso   1.000  H
  H163     1.0000 0.97557  0.25390  0.23220  Biso   1.000  H
  C127     1.0000 0.02356  0.18691  0.28991  Biso   1.000  C
  C128     1.0000 0.06830  0.10404  0.36586  Biso   1.000  C
  C129     1.0000 0.61783  0.27777  0.26744  Biso   1.000  C
  C130     1.0000 0.72043  0.28046  0.18344  Biso   1.000  C
  O28      1.0000 0.10533  0.15770  0.26002  Biso   1.000  O
  H164     1.0000 0.07116  0.10529  0.40779  Biso   1.000  H
  H165     1.0000 0.14355  0.10592  0.35271  Biso   1.000  H
  C131     1.0000 0.01621  0.04158  0.34614  Biso   1.000  C
  C132     1.0000 0.52933  0.25375  0.23691  Biso   1.000  C
  H166     1.0000 0.61271  0.28479  0.30700  Biso   1.000  H
  C133     1.0000 0.63132  0.25688  0.15231  Biso   1.000  C
  O29      1.0000 0.81990  0.29341  0.16134  Biso   1.000  O
  C134     1.0000 0.12076  0.17892  0.20358  Biso   1.000  C
  C135     1.0000 0.94447  0.00852  0.37989  Biso   1.000  C
  C136     1.0000 0.03473  0.01728  0.29258  Biso   1.000  C
  O30      1.0000 0.43219  0.23951  0.26146  Biso   1.000  O
  C137     1.0000 0.53445  0.24370  0.17852  Biso   1.000  C
  H167     1.0000 0.63669  0.24981  0.11271  Biso   1.000  H
  C138     1.0000 0.84105  0.28609  0.10329  Biso   1.000  C
  H168     1.0000 0.18012  0.15462  0.18721  Biso   1.000  H
  H169     1.0000 0.13865  0.22478  0.20379  Biso   1.000  H
  H170     1.0000 0.05409  0.17190  0.18081  Biso   1.000  H
  O31      1.0000 0.92924  0.03494  0.43285  Biso   1.000  O
  C139     1.0000 0.89295  0.95327  0.36005  Biso   1.000  C
  C140     1.0000 0.98253  0.96280  0.27236  Biso   1.000  C
  H171     1.0000 0.08452  0.03859  0.26918  Biso   1.000  H
  C141     1.0000 0.42791  0.24350  0.32159  Biso   1.000  C
  C142     1.0000 0.43813  0.21708  0.14455  Biso   1.000  C
  C143     1.0000 0.95696  0.30833  0.09880  Biso   1.000  C
  H172     1.0000 0.79156  0.31309  0.07959  Biso   1.000  H
  H173     1.0000 0.83289  0.24062  0.09138  Biso   1.000  H
  C144     1.0000 0.85253  0.00563  0.46881  Biso   1.000  C
  H174     1.0000 0.84513  0.93109  0.38400  Biso   1.000  H
  C145     1.0000 0.90981  0.92974  0.30594  Biso   1.000  C
  O32      1.0000 0.99471  0.93797  0.21833  Biso   1.000  O
  H175     1.0000 0.44585  0.28768  0.33460  Biso   1.000  H
  H176     1.0000 0.48047  0.21328  0.33969  Biso   1.000  H
  C146     1.0000 0.31445  0.22623  0.33711  Biso   1.000  C
  C147     1.0000 0.43699  0.14451  0.14434  Biso   1.000  C
  H177     1.0000 0.37044  0.23311  0.16101  Biso   1.000  H
  H178     1.0000 0.44051  0.23292  0.10499  Biso   1.000  H
  H179     1.0000 0.96194  0.35308  0.11279  Biso   1.000  H
  S9       1.0000 0.01228  0.30563  0.02909  Biso   1.000  S
  H180     1.0000 0.00293  0.28142  0.12441  Biso   1.000  H
  C148     1.0000 0.84569  0.05072  0.51880  Biso   1.000  C
  H181     1.0000 0.78126  0.00130  0.44888  Biso   1.000  H
  H182     1.0000 0.87764  0.96251  0.48128  Biso   1.000  H
  C149     1.0000 0.85101  0.87079  0.28355  Biso   1.000  C
  C150     1.0000 0.07563  0.96516  0.18382  Biso   1.000  C
  S10      1.0000 0.29076  0.23248  0.41203  Biso   1.000  S
  H183     1.0000 0.29913  0.18152  0.32468  Biso   1.000  H
  H184     1.0000 0.26311  0.25491  0.31629  Biso   1.000  H
  C151     1.0000 0.39739  0.11049  0.19043  Biso   1.000  C
  C152     1.0000 0.47913  0.10910  0.10011  Biso   1.000  C
  C153     1.0000 0.10662  0.24552  0.04109  Biso   1.000  C
  C154     1.0000 0.01857  0.21169  0.00729  Biso   1.000  C
  S11      1.0000 0.74873  0.02748  0.57020  Biso   1.000  S
  H185     1.0000 0.82678  0.09418  0.50447  Biso   1.000  H
  H186     1.0000 0.91797  0.05351  0.53789  Biso   1.000  H
  C155     1.0000 0.74983  0.88696  0.24946  Biso   1.000  C
  H187     1.0000 0.90028  0.84591  0.25951  Biso   1.000  H
  H188     1.0000 0.83186  0.84312  0.31590  Biso   1.000  H
  C156     1.0000 0.06550  0.92969  0.12759  Biso   1.000  C
  H189     1.0000 0.14854  0.95890  0.20150  Biso   1.000  H
  H190     1.0000 0.06291  0.01179  0.17831  Biso   1.000  H
  C157     1.0000 0.34659  0.15852  0.44015  Biso   1.000  C
  C158     1.0000 0.40155  0.04418  0.19234  Biso   1.000  C
  H191     1.0000 0.36711  0.13340  0.22088  Biso   1.000  H
  O33      1.0000 0.51844  0.14533  0.05597  Biso   1.000  O
  C159     1.0000 0.48292  0.04269  0.10257  Biso   1.000  C
  C160     1.0000 0.07334  0.17801  0.04198  Biso   1.000  C
  H192     1.0000 0.16163  0.24971  0.01170  Biso   1.000  H
  H193     1.0000 0.14372  0.25472  0.07798  Biso   1.000  H
  H194     1.0000 0.14314  0.20019  0.04961  Biso   1.000  H
  H195     1.0000 0.94404  0.19451  0.00441  Biso   1.000  H
  H196     1.0000 0.05033  0.20808  0.96947  Biso   1.000  H
  H197     1.0000 0.04688  0.16670  0.00318  Biso   1.000  H
  C161     1.0000 0.62183  0.03686  0.53093  Biso   1.000  C
  C162     1.0000 0.65185  0.89557  0.27609  Biso   1.000  C
  C163     1.0000 0.75072  0.89456  0.19073  Biso   1.000  C
  S12      1.0000 0.17763  0.94177  0.08214  Biso   1.000  S
  H198     1.0000 0.99833  0.94403  0.10728  Biso   1.000  H
  H199     1.0000 0.05828  0.88311  0.13531  Biso   1.000  H
  H200     1.0000 0.29658  0.14062  0.46800  Biso   1.000  H
  H201     1.0000 0.35198  0.12690  0.40889  Biso   1.000  H
  C164     1.0000 0.45597  0.16694  0.46813  Biso   1.000  C
  O34      1.0000 0.36191  0.00828  0.23644  Biso   1.000  O
  C165     1.0000 0.44541  0.00881  0.14854  Biso   1.000  C
  C166     1.0000 0.53847  0.11261  0.00466  Biso   1.000  C
  H202     1.0000 0.51212  0.01959  0.07179  Biso   1.000  H
  O35      1.0000 0.13908  0.13619  0.05741  Biso   1.000  O
  H203     1.0000 0.01053  0.17478  0.06691  Biso   1.000  H
  O36      1.0000 0.09713  0.11121  0.02612  Biso   1.000  O
  H204     1.0000 0.03459  0.17700  0.07811  Biso   1.000  H
  C167     1.0000 0.59488  0.10563  0.51613  Biso   1.000  C
  H205     1.0000 0.62478  0.01150  0.49548  Biso   1.000  H
  H206     1.0000 0.56293  0.01891  0.55357  Biso   1.000  H
  C168     1.0000 0.55783  0.91049  0.24518  Biso   1.000  C
  O37      1.0000 0.65555  0.88730  0.33439  Biso   1.000  O
  C169     1.0000 0.65741  0.91073  0.15952  Biso   1.000  C
  H207     1.0000 0.81656  0.88859  0.17169  Biso   1.000  H
  C170     1.0000 0.19614  0.03080  0.08171  Biso   1.000  C
  C171     1.0000 0.12757  0.00010  0.04100  Biso   1.000  C
  O38      1.0000 0.48917  0.10549  0.48997  Biso   1.000  O
  H208     1.0000 0.50825  0.18258  0.44040  Biso   1.000  H
  H209     1.0000 0.45244  0.19860  0.49930  Biso   1.000  H
  C172     1.0000 0.33428  0.04158  0.28643  Biso   1.000  C
  C173     1.0000 0.45679  0.93691  0.15333  Biso   1.000  C
  H210     1.0000 0.59262  0.07892  0.01179  Biso   1.000  H
  H211     1.0000 0.56566  0.14321  0.97681  Biso   1.000  H
  H212     1.0000 0.47131  0.09312  0.98978  Biso   1.000  H
  C174     1.0000 0.11961  0.06848  0.06051  Biso   1.000  C
  H213     1.0000 0.10132  0.05308  0.02171  Biso   1.000  H
  H214     1.0000 0.59585  0.13258  0.55078  Biso   1.000  H
  H215     1.0000 0.64814  0.12320  0.48980  Biso   1.000  H
  C175     1.0000 0.55945  0.91838  0.18662  Biso   1.000  C
  H216     1.0000 0.49166  0.91530  0.26409  Biso   1.000  H
  C176     1.0000 0.56198  0.90390  0.36441  Biso   1.000  C
  O39      1.0000 0.65293  0.91877  0.10168  Biso   1.000  O
  H217     1.0000 0.18983  0.07979  0.07921  Biso   1.000  H
  H218     1.0000 0.21052  0.04442  0.12149  Biso   1.000  H
  H219     1.0000 0.26267  0.03989  0.06089  Biso   1.000  H
  H220     1.0000 0.05353  0.98672  0.02892  Biso   1.000  H
  H221     1.0000 0.17102  0.00058  0.00649  Biso   1.000  H
  H222     1.0000 0.30707  0.01092  0.31408  Biso   1.000  H
  H223     1.0000 0.27797  0.07348  0.27719  Biso   1.000  H
  H224     1.0000 0.39844  0.06352  0.30250  Biso   1.000  H
  H225     1.0000 0.45850  0.91790  0.11491  Biso   1.000  H
  H226     1.0000 0.39323  0.91910  0.17250  Biso   1.000  H
  H227     1.0000 0.05448  0.06208  0.08328  Biso   1.000  H
  H228     1.0000 0.06461  0.06978  0.09011  Biso   1.000  H
  H229     1.0000 0.57487  0.89552  0.40491  Biso   1.000  H
  H230     1.0000 0.50053  0.87791  0.35038  Biso   1.000  H
  H231     1.0000 0.54561  0.94962  0.35860  Biso   1.000  H
  C177     1.0000 0.74895  0.90741  0.07217  Biso   1.000  C
  H232     1.0000 0.73525  0.91463  0.03159  Biso   1.000  H
  H233     1.0000 0.77239  0.86280  0.07840  Biso   1.000  H
  H234     1.0000 0.80571  0.93681  0.08621  Biso   1.000  H
  C178     1.0000 0.23466  0.74899  0.56104  Biso   1.000  C
  O40      1.0000 0.21879  0.73085  0.61684  Biso   1.000  O
  H235     1.0000 0.29500  0.72430  0.54598  Biso   1.000  H
  H236     1.0000 0.16879  0.74052  0.53810  Biso   1.000  H
  H237     1.0000 0.25165  0.79509  0.55968  Biso   1.000  H
  C179     1.0000 0.13659  0.75982  0.64618  Biso   1.000  C
  C180     1.0000 0.11961  0.73523  0.69978  Biso   1.000  C
  C181     1.0000 0.07478  0.81035  0.62485  Biso   1.000  C
  C182     1.0000 0.19030  0.68200  0.72480  Biso   1.000  C
  C183     1.0000 0.03818  0.76251  0.73112  Biso   1.000  C
  H238     1.0000 0.08766  0.82632  0.58788  Biso   1.000  H
  C184     1.0000 0.99385  0.83826  0.65653  Biso   1.000  C
  C185     1.0000 0.28638  0.70828  0.75889  Biso   1.000  C
  H239     1.0000 0.21657  0.65472  0.69367  Biso   1.000  H
  H240     1.0000 0.14642  0.65462  0.74960  Biso   1.000  H
  H241     1.0000 0.02454  0.74610  0.76780  Biso   1.000  H
  C186     1.0000 0.97663  0.81309  0.71008  Biso   1.000  C
  C187     1.0000 0.93181  0.89596  0.63414  Biso   1.000  C
  C188     1.0000 0.38228  0.72223  0.73256  Biso   1.000  C
  C189     1.0000 0.27968  0.71954  0.81656  Biso   1.000  C
  O41      1.0000 0.89478  0.84230  0.73994  Biso   1.000  O
  H242     1.0000 0.92895  0.89471  0.59220  Biso   1.000  H
  H243     1.0000 0.85656  0.89413  0.64729  Biso   1.000  H
  C190     1.0000 0.98390  0.95847  0.65386  Biso   1.000  C
  H244     1.0000 0.38740  0.71521  0.69300  Biso   1.000  H
  C191     1.0000 0.47078  0.74625  0.76309  Biso   1.000  C
  O42      1.0000 0.18021  0.70659  0.83861  Biso   1.000  O
  C192     1.0000 0.36879  0.74312  0.84768  Biso   1.000  C
  C193     1.0000 0.87935  0.82113  0.79642  Biso   1.000  C
  C194     1.0000 0.05564  0.99148  0.62006  Biso   1.000  C
  C195     1.0000 0.96538  0.98277  0.70741  Biso   1.000  C
  O43      1.0000 0.56792  0.76054  0.73854  Biso   1.000  O
  C196     1.0000 0.46566  0.75635  0.82148  Biso   1.000  C
  C197     1.0000 0.15906  0.71391  0.89670  Biso   1.000  C
  H245     1.0000 0.36342  0.75019  0.88729  Biso   1.000  H
  H246     1.0000 0.81999  0.84543  0.81279  Biso   1.000  H
  H247     1.0000 0.86146  0.77522  0.79621  Biso   1.000  H
  H248     1.0000 0.94603  0.82810  0.81919  Biso   1.000  H
  O44      1.0000 0.07087  0.96511  0.56714  Biso   1.000  O
  C198     1.0000 0.10716  0.04673  0.63995  Biso   1.000  C
  H249     1.0000 0.91558  0.96141  0.73078  Biso   1.000  H
  C199     1.0000 0.01758  0.03720  0.72760  Biso   1.000  C
  C200     1.0000 0.57220  0.75650  0.67837  Biso   1.000  C
  C201     1.0000 0.56198  0.78292  0.85544  Biso   1.000  C
  C202     1.0000 0.04323  0.69172  0.90120  Biso   1.000  C
  H250     1.0000 0.20863  0.68691  0.92040  Biso   1.000  H
  H251     1.0000 0.16722  0.75938  0.90857  Biso   1.000  H
  C203     1.0000 0.14758  0.99437  0.53119  Biso   1.000  C
  H252     1.0000 0.15498  0.06891  0.61599  Biso   1.000  H
  C204     1.0000 0.09030  0.07026  0.69401  Biso   1.000  C
  O45      1.0000 0.00540  0.06203  0.78162  Biso   1.000  O
  H253     1.0000 0.55426  0.71232  0.66539  Biso   1.000  H
  H254     1.0000 0.51964  0.78672  0.66030  Biso   1.000  H
  C205     1.0000 0.68566  0.77382  0.66285  Biso   1.000  C
  C206     1.0000 0.56312  0.85549  0.85566  Biso   1.000  C
  H255     1.0000 0.62967  0.76689  0.83899  Biso   1.000  H
  H256     1.0000 0.55960  0.76708  0.89501  Biso   1.000  H
  H257     1.0000 0.03817  0.64692  0.88720  Biso   1.000  H
  S13      1.0000 0.98783  0.69442  0.97086  Biso   1.000  S
  H258     1.0000 0.99718  0.71862  0.87558  Biso   1.000  H
  C207     1.0000 0.15442  0.94928  0.48119  Biso   1.000  C
  H259     1.0000 0.21885  0.99870  0.55107  Biso   1.000  H
  H260     1.0000 0.12247  0.03749  0.51868  Biso   1.000  H
  C208     1.0000 0.14910  0.12926  0.71645  Biso   1.000  C
  C209     1.0000 0.92448  0.03484  0.81618  Biso   1.000  C
  S14      1.0000 0.70935  0.76752  0.58796  Biso   1.000  S
  H261     1.0000 0.70097  0.81853  0.67527  Biso   1.000  H
  H262     1.0000 0.73700  0.74509  0.68371  Biso   1.000  H
  C210     1.0000 0.60272  0.88951  0.80956  Biso   1.000  C
  C211     1.0000 0.52098  0.89090  0.89988  Biso   1.000  C
  C212     1.0000 0.89349  0.75452  0.95886  Biso   1.000  C
  C213     1.0000 0.98155  0.78831  0.99270  Biso   1.000  C
  S15      1.0000 0.25146  0.97252  0.42980  Biso   1.000  S
  H263     1.0000 0.17333  0.90582  0.49548  Biso   1.000  H
  H264     1.0000 0.08214  0.94649  0.46211  Biso   1.000  H
  H265     1.0000 0.09991  0.15409  0.74049  Biso   1.000  H
  H266     1.0000 0.16826  0.15688  0.68409  Biso   1.000  H
  C214     1.0000 0.25027  0.11304  0.75050  Biso   1.000  C
  H267     1.0000 0.93720  0.98821  0.82169  Biso   1.000  H
  H268     1.0000 0.85157  0.04110  0.79850  Biso   1.000  H
  C215     1.0000 0.93461  0.07031  0.87236  Biso   1.000  C
  C216     1.0000 0.65360  0.84153  0.55985  Biso   1.000  C
  C217     1.0000 0.59856  0.95582  0.80761  Biso   1.000  C
  H269     1.0000 0.63299  0.86660  0.77907  Biso   1.000  H
  O46      1.0000 0.48167  0.85467  0.94402  Biso   1.000  O
  C218     1.0000 0.51719  0.95731  0.89742  Biso   1.000  C
  C219     1.0000 0.92677  0.82199  0.95797  Biso   1.000  C
  H270     1.0000 0.83848  0.75029  0.98829  Biso   1.000  H
  H271     1.0000 0.85638  0.74528  0.92197  Biso   1.000  H
  H272     1.0000 0.85697  0.79981  0.95038  Biso   1.000  H
  H273     1.0000 0.05607  0.80549  0.99559  Biso   1.000  H
  H274     1.0000 0.95323  0.83330  0.99677  Biso   1.000  H
  H275     1.0000 0.94977  0.79192  0.03048  Biso   1.000  H
  C220     1.0000 0.37828  0.96314  0.46906  Biso   1.000  C
  C221     1.0000 0.34826  0.10443  0.72391  Biso   1.000  C
  C222     1.0000 0.24939  0.10544  0.80927  Biso   1.000  C
  S16      1.0000 0.82248  0.05828  0.91786  Biso   1.000  S
  H276     1.0000 0.94183  0.11689  0.86469  Biso   1.000  H
  H277     1.0000 0.00178  0.05602  0.89267  Biso   1.000  H
  H278     1.0000 0.70353  0.85943  0.53199  Biso   1.000  H
  H279     1.0000 0.64814  0.87310  0.59110  Biso   1.000  H
  C223     1.0000 0.54414  0.83311  0.53182  Biso   1.000  C
  O47      1.0000 0.63820  0.99172  0.76351  Biso   1.000  O
  C224     1.0000 0.55470  0.99124  0.85146  Biso   1.000  C
  C225     1.0000 0.46164  0.88739  0.99533  Biso   1.000  C
  H280     1.0000 0.48799  0.98041  0.92816  Biso   1.000  H
  O48      1.0000 0.86103  0.86381  0.94258  Biso   1.000  O
  H281     1.0000 0.98958  0.82522  0.93308  Biso   1.000  H
  O49      1.0000 0.90298  0.88879  0.97388  Biso   1.000  O
  H282     1.0000 0.96552  0.82300  0.92189  Biso   1.000  H
  C226     1.0000 0.40522  0.89437  0.48382  Biso   1.000  C
  H283     1.0000 0.37533  0.98850  0.50447  Biso   1.000  H
  H284     1.0000 0.43718  0.98109  0.44638  Biso   1.000  H
  O50      1.0000 0.34456  0.11270  0.66560  Biso   1.000  O
  C227     1.0000 0.44228  0.08951  0.75482  Biso   1.000  C
  C228     1.0000 0.34270  0.08932  0.84043  Biso   1.000  C
  H285     1.0000 0.18355  0.11141  0.82831  Biso   1.000  H
  C229     1.0000 0.80398  0.96920  0.91828  Biso   1.000  C
  C230     1.0000 0.87254  0.99990  0.95899  Biso   1.000  C
  O51      1.0000 0.51094  0.89456  0.51003  Biso   1.000  O
  H286     1.0000 0.49186  0.81742  0.55960  Biso   1.000  H
  H287     1.0000 0.54767  0.80140  0.50070  Biso   1.000  H
  C231     1.0000 0.66592  0.95842  0.71356  Biso   1.000  C
  C232     1.0000 0.54332  0.06309  0.84667  Biso   1.000  C
  H288     1.0000 0.40748  0.92113  0.98817  Biso   1.000  H
  H289     1.0000 0.43445  0.85679  0.02319  Biso   1.000  H
  H290     1.0000 0.52880  0.90693  0.01022  Biso   1.000  H
  C233     1.0000 0.88050  0.93152  0.93949  Biso   1.000  C
  H291     1.0000 0.89879  0.94692  0.97829  Biso   1.000  H
  H292     1.0000 0.40426  0.86742  0.44918  Biso   1.000  H
  H293     1.0000 0.35197  0.87680  0.51020  Biso   1.000  H
  C234     1.0000 0.43813  0.09610  0.63558  Biso   1.000  C
  H294     1.0000 0.50845  0.08470  0.73591  Biso   1.000  H
  C235     1.0000 0.44065  0.08162  0.81334  Biso   1.000  C
  O52      1.0000 0.34718  0.08123  0.89831  Biso   1.000  O
  H295     1.0000 0.78959  0.95563  0.87847  Biso   1.000  H
  H296     1.0000 0.73744  0.96011  0.93910  Biso   1.000  H
  H297     1.0000 0.81028  0.92021  0.92079  Biso   1.000  H
  H298     1.0000 0.82908  0.99942  0.99347  Biso   1.000  H
  H299     1.0000 0.94658  0.01328  0.97108  Biso   1.000  H
  H300     1.0000 0.69304  0.98912  0.68587  Biso   1.000  H
  H301     1.0000 0.72222  0.92652  0.72281  Biso   1.000  H
  H302     1.0000 0.60167  0.93653  0.69749  Biso   1.000  H
  H303     1.0000 0.54161  0.08210  0.88508  Biso   1.000  H
  H304     1.0000 0.60689  0.08090  0.82750  Biso   1.000  H
  H305     1.0000 0.94563  0.93792  0.91667  Biso   1.000  H
  H306     1.0000 0.93551  0.93022  0.90989  Biso   1.000  H
  H307     1.0000 0.42524  0.10452  0.59509  Biso   1.000  H
  H308     1.0000 0.49958  0.12209  0.64958  Biso   1.000  H
  H309     1.0000 0.45450  0.05038  0.64139  Biso   1.000  H
  C236     1.0000 0.25123  0.09259  0.92778  Biso   1.000  C
  H310     1.0000 0.26494  0.08542  0.96841  Biso   1.000  H
  H311     1.0000 0.22772  0.13720  0.92159  Biso   1.000  H
  H312     1.0000 0.19440  0.06319  0.91379  Biso   1.000  H
  Ne1      1.0000 0.76476  0.10061  0.24337  Biso   1.000  Ne
  He1      1.0000 0.54430  0.06670  0.37643  Biso   1.000  He
  He2      1.0000 0.82763  0.07770  0.04098  Biso   1.000  He
  Ar1      1.0000 0.72409  0.08888  0.23901  Biso   1.000  Ar
  Ne2      1.0000 0.23532  0.60062  0.25663  Biso   1.000  Ne
  He3      1.0000 0.17196  0.57706  0.46005  Biso   1.000  He
  He4      1.0000 0.61478  0.49880  0.08194  Biso   1.000  He
  He5      1.0000 0.39128  0.70295  0.11547  Biso   1.000  He
  Ar2      1.0000 0.27583  0.58893  0.26114  Biso   1.000  Ar
  Ne3      1.0000 0.76480  0.39939  0.74336  Biso   1.000  Ne
  He6      1.0000 0.54129  0.43429  0.87701  Biso   1.000  He
  He7      1.0000 0.57528  0.25143  0.89761  Biso   1.000  He
  He8      1.0000 0.83560  0.44927  0.48945  Biso   1.000  He
  Ar3      1.0000 0.72414  0.41112  0.73899  Biso   1.000  Ar
  Ne4      1.0000 0.23536  0.89940  0.75661  Biso   1.000  Ne
  He9      1.0000 0.17114  0.92416  0.96198  Biso   1.000  He
  He10     1.0000 0.61494  0.00132  0.58186  Biso   1.000  He
  Ar4      1.0000 0.27602  0.91112  0.76098  Biso   1.000  Ar
