data_image0
_cell_length_a       15.922
_cell_length_b       16.791
_cell_length_c       16.453
_cell_angle_alpha    90
_cell_angle_beta     90
_cell_angle_gamma    90

_symmetry_space_group_name_H-M    "P 1"
_symmetry_int_tables_number       1

loop_
  _symmetry_equiv_pos_as_xyz
  'x, y, z'

loop_
  _atom_site_label
  _atom_site_occupancy
  _atom_site_fract_x
  _atom_site_fract_y
  _atom_site_fract_z
  _atom_site_thermal_displace_type
  _atom_site_B_iso_or_equiv
  _atom_site_type_symbol
  C1       1.0000 0.19753  0.51861  0.41391  Biso   1.000  C
  C2       1.0000 0.10721  0.53112  0.43111  Biso   1.000  C
  O1       1.0000 0.23810  0.59151  0.40588  Biso   1.000  O
  H1       1.0000 0.20368  0.48812  0.36413  Biso   1.000  H
  H2       1.0000 0.22277  0.48842  0.45779  Biso   1.000  H
  O2       1.0000 0.07003  0.57668  0.36638  Biso   1.000  O
  H3       1.0000 0.10068  0.55929  0.48222  Biso   1.000  H
  H4       1.0000 0.07901  0.48008  0.43573  Biso   1.000  H
  C3       1.0000 0.32471  0.58359  0.38662  Biso   1.000  C
  C4       1.0000 0.98348  0.57316  0.36322  Biso   1.000  C
  H5       1.0000 0.35473  0.56018  0.43202  Biso   1.000  H
  H6       1.0000 0.33162  0.54922  0.33969  Biso   1.000  H
  C5       1.0000 0.35837  0.66417  0.36863  Biso   1.000  C
  C6       1.0000 0.94643  0.52105  0.30809  Biso   1.000  C
  C7       1.0000 0.93512  0.62349  0.41202  Biso   1.000  C
  N1       1.0000 0.33325  0.69263  0.28767  Biso   1.000  N
  H7       1.0000 0.41929  0.66280  0.37179  Biso   1.000  H
  H8       1.0000 0.33840  0.70127  0.40941  Biso   1.000  H
  C8       1.0000 0.00000  0.47210  0.24998  Biso   1.000  C
  C9       1.0000 0.85988  0.51462  0.30760  Biso   1.000  C
  C10      1.0000 0.84839  0.61509  0.40862  Biso   1.000  C
  C11      1.0000 0.97450  0.68638  0.46599  Biso   1.000  C
  C12      1.0000 0.37043  0.76940  0.26749  Biso   1.000  C
  H9       1.0000 0.27239  0.69561  0.28609  Biso   1.000  H
  C13      1.0000 0.05357  0.52105  0.19188  Biso   1.000  C
  H10      1.0000 0.03969  0.43249  0.28007  Biso   1.000  H
  H11      1.0000 0.96031  0.43249  0.21990  Biso   1.000  H
  C14      1.0000 0.81083  0.56072  0.35817  Biso   1.000  C
  H12      1.0000 0.83432  0.47847  0.27259  Biso   1.000  H
  H13      1.0000 0.81497  0.64707  0.44138  Biso   1.000  H
  C15      1.0000 0.02663  0.74760  0.42120  Biso   1.000  C
  H14      1.0000 0.00992  0.66012  0.50580  Biso   1.000  H
  H15      1.0000 0.93022  0.71372  0.49529  Biso   1.000  H
  C16      1.0000 0.35002  0.79471  0.18337  Biso   1.000  C
  H16      1.0000 0.35002  0.80930  0.30529  Biso   1.000  H
  H17      1.0000 0.43091  0.76607  0.27351  Biso   1.000  H
  C17      1.0000 0.14012  0.51462  0.19243  Biso   1.000  C
  C18      1.0000 0.01652  0.57316  0.13681  Biso   1.000  C
  H18      1.0000 0.75267  0.55488  0.35811  Biso   1.000  H
  C19      1.0000 0.11242  0.75368  0.43421  Biso   1.000  C
  C20      1.0000 0.99039  0.79852  0.36419  Biso   1.000  C
  O3       1.0000 0.26448  0.82002  0.18416  Biso   1.000  O
  H19      1.0000 0.35743  0.75058  0.14599  Biso   1.000  H
  H20      1.0000 0.38638  0.83801  0.16672  Biso   1.000  H
  C21      1.0000 0.18917  0.56072  0.14180  Biso   1.000  C
  H21      1.0000 0.16568  0.47847  0.22737  Biso   1.000  H
  C22      1.0000 0.06488  0.62349  0.08801  Biso   1.000  C
  O4       1.0000 0.92997  0.57668  0.13359  Biso   1.000  O
  C23      1.0000 0.15990  0.80781  0.39251  Biso   1.000  C
  H22      1.0000 0.13799  0.72039  0.47201  Biso   1.000  H
  C24      1.0000 0.03800  0.85141  0.31757  Biso   1.000  C
  O5       1.0000 0.90435  0.79322  0.35258  Biso   1.000  O
  C25      1.0000 0.23301  0.83318  0.10740  Biso   1.000  C
  C26      1.0000 0.15161  0.61509  0.09141  Biso   1.000  C
  H23      1.0000 0.24733  0.55488  0.14192  Biso   1.000  H
  C27      1.0000 0.02550  0.68638  0.03398  Biso   1.000  C
  C28      1.0000 0.89279  0.53112  0.06892  Biso   1.000  C
  C29      1.0000 0.12348  0.85516  0.33429  Biso   1.000  C
  H24      1.0000 0.21700  0.81258  0.40357  Biso   1.000  H
  C30      1.0000 0.00000  0.90060  0.24998  Biso   1.000  C
  C31      1.0000 0.85749  0.85588  0.38978  Biso   1.000  C
  C32      1.0000 0.14251  0.85588  0.11019  Biso   1.000  C
  H25      1.0000 0.26479  0.87541  0.08138  Biso   1.000  H
  H26      1.0000 0.23948  0.78530  0.07512  Biso   1.000  H
  H27      1.0000 0.18503  0.64707  0.05859  Biso   1.000  H
  H28      1.0000 0.06978  0.71372  0.00468  Biso   1.000  H
  H29      1.0000 0.99008  0.66012  0.99423  Biso   1.000  H
  C33      1.0000 0.97337  0.74760  0.07877  Biso   1.000  C
  H30      1.0000 0.89932  0.55929  0.01781  Biso   1.000  H
  H31      1.0000 0.92099  0.48008  0.06430  Biso   1.000  H
  C34      1.0000 0.80247  0.51861  0.08612  Biso   1.000  C
  H32      1.0000 0.15689  0.89077  0.30542  Biso   1.000  H
  C35      1.0000 0.96200  0.85141  0.18240  Biso   1.000  C
  H33      1.0000 0.04692  0.94229  0.22640  Biso   1.000  H
  H34      1.0000 0.95308  0.94229  0.27363  Biso   1.000  H
  C36      1.0000 0.76699  0.83318  0.39257  Biso   1.000  C
  H35      1.0000 0.87809  0.86517  0.44442  Biso   1.000  H
  H36      1.0000 0.86421  0.90459  0.35878  Biso   1.000  H
  O6       1.0000 0.09565  0.79322  0.14745  Biso   1.000  O
  H37      1.0000 0.12191  0.86517  0.05561  Biso   1.000  H
  H38      1.0000 0.13579  0.90459  0.14119  Biso   1.000  H
  C37      1.0000 0.00961  0.79852  0.13584  Biso   1.000  C
  C38      1.0000 0.88758  0.75368  0.06582  Biso   1.000  C
  O7       1.0000 0.76190  0.59151  0.09415  Biso   1.000  O
  H39      1.0000 0.79632  0.48812  0.13590  Biso   1.000  H
  H40      1.0000 0.77723  0.48842  0.04218  Biso   1.000  H
  C39      1.0000 0.87652  0.85516  0.16568  Biso   1.000  C
  O8       1.0000 0.73552  0.82002  0.31587  Biso   1.000  O
  H41      1.0000 0.73521  0.87541  0.41859  Biso   1.000  H
  H42      1.0000 0.76052  0.78530  0.42491  Biso   1.000  H
  C40      1.0000 0.84010  0.80781  0.10752  Biso   1.000  C
  H43      1.0000 0.86201  0.72039  0.02802  Biso   1.000  H
  C41      1.0000 0.67529  0.58359  0.11341  Biso   1.000  C
  H44      1.0000 0.84311  0.89077  0.19461  Biso   1.000  H
  C42      1.0000 0.64998  0.79471  0.31660  Biso   1.000  C
  H45      1.0000 0.78300  0.81258  0.09640  Biso   1.000  H
  H46      1.0000 0.64527  0.56018  0.06801  Biso   1.000  H
  H47      1.0000 0.66838  0.54922  0.16027  Biso   1.000  H
  C43      1.0000 0.64163  0.66417  0.13140  Biso   1.000  C
  C44      1.0000 0.62957  0.76940  0.23248  Biso   1.000  C
  H48      1.0000 0.64257  0.75058  0.35398  Biso   1.000  H
  H49      1.0000 0.61362  0.83801  0.33331  Biso   1.000  H
  N2       1.0000 0.66675  0.69263  0.21230  Biso   1.000  N
  H50      1.0000 0.58071  0.66280  0.12818  Biso   1.000  H
  H51      1.0000 0.66160  0.70127  0.09062  Biso   1.000  H
  H52      1.0000 0.64998  0.80930  0.19468  Biso   1.000  H
  H53      1.0000 0.56909  0.76607  0.22652  Biso   1.000  H
  H54      1.0000 0.72761  0.69561  0.21388  Biso   1.000  H
  C45      1.0000 0.18917  0.43928  0.64183  Biso   1.000  C
  C46      1.0000 0.15161  0.38491  0.59138  Biso   1.000  C
  H55      1.0000 0.24733  0.44512  0.64189  Biso   1.000  H
  C47      1.0000 0.14012  0.48538  0.69240  Biso   1.000  C
  C48      1.0000 0.06488  0.37651  0.58798  Biso   1.000  C
  H56      1.0000 0.18503  0.35287  0.55862  Biso   1.000  H
  C49      1.0000 0.05357  0.47895  0.69191  Biso   1.000  C
  H57      1.0000 0.16568  0.52147  0.72741  Biso   1.000  H
  C50      1.0000 0.02550  0.31362  0.53401  Biso   1.000  C
  C51      1.0000 0.01652  0.42684  0.63678  Biso   1.000  C
  C52      1.0000 0.00000  0.52790  0.75002  Biso   1.000  C
  C53      1.0000 0.97337  0.25240  0.57880  Biso   1.000  C
  H58      1.0000 0.06978  0.28628  0.50471  Biso   1.000  H
  H59      1.0000 0.99008  0.33988  0.49420  Biso   1.000  H
  O9       1.0000 0.92997  0.42332  0.63362  Biso   1.000  O
  H60      1.0000 0.03969  0.56751  0.78010  Biso   1.000  H
  C54      1.0000 0.94643  0.47895  0.80812  Biso   1.000  C
  H61      1.0000 0.96031  0.56751  0.71993  Biso   1.000  H
  C55      1.0000 0.00961  0.20148  0.63581  Biso   1.000  C
  C56      1.0000 0.88758  0.24632  0.56579  Biso   1.000  C
  C57      1.0000 0.89279  0.46888  0.56889  Biso   1.000  C
  C58      1.0000 0.98348  0.42684  0.86319  Biso   1.000  C
  C59      1.0000 0.85988  0.48538  0.80757  Biso   1.000  C
  O10      1.0000 0.09565  0.20678  0.64742  Biso   1.000  O
  C60      1.0000 0.96200  0.14859  0.68243  Biso   1.000  C
  C61      1.0000 0.84010  0.19219  0.60749  Biso   1.000  C
  H62      1.0000 0.86201  0.27961  0.52799  Biso   1.000  H
  H63      1.0000 0.89932  0.44071  0.51778  Biso   1.000  H
  H64      1.0000 0.92099  0.51992  0.56427  Biso   1.000  H
  C62      1.0000 0.80247  0.48139  0.58609  Biso   1.000  C
  O11      1.0000 0.07003  0.42332  0.86641  Biso   1.000  O
  C63      1.0000 0.93512  0.37651  0.91199  Biso   1.000  C
  C64      1.0000 0.81083  0.43928  0.85820  Biso   1.000  C
  H65      1.0000 0.83432  0.52147  0.77263  Biso   1.000  H
  C65      1.0000 0.14251  0.14412  0.61022  Biso   1.000  C
  C66      1.0000 0.00000  0.09940  0.75002  Biso   1.000  C
  C67      1.0000 0.87652  0.14478  0.66571  Biso   1.000  C
  H66      1.0000 0.78300  0.18742  0.59643  Biso   1.000  H
  O12      1.0000 0.76190  0.40849  0.59412  Biso   1.000  O
  H67      1.0000 0.79632  0.51188  0.63587  Biso   1.000  H
  H68      1.0000 0.77723  0.51158  0.54221  Biso   1.000  H
  C68      1.0000 0.10721  0.46888  0.93108  Biso   1.000  C
  C69      1.0000 0.97450  0.31362  0.96602  Biso   1.000  C
  C70      1.0000 0.84839  0.38491  0.90859  Biso   1.000  C
  H69      1.0000 0.75267  0.44512  0.85808  Biso   1.000  H
  C71      1.0000 0.23301  0.16682  0.60743  Biso   1.000  C
  H70      1.0000 0.12191  0.13477  0.55558  Biso   1.000  H
  H71      1.0000 0.13579  0.09541  0.64122  Biso   1.000  H
  C72      1.0000 0.03800  0.14859  0.81760  Biso   1.000  C
  H72      1.0000 0.04692  0.05771  0.72637  Biso   1.000  H
  H73      1.0000 0.95308  0.05771  0.77360  Biso   1.000  H
  H74      1.0000 0.84311  0.10923  0.69458  Biso   1.000  H
  C73      1.0000 0.67529  0.41641  0.61338  Biso   1.000  C
  C74      1.0000 0.19753  0.48139  0.91388  Biso   1.000  C
  H75      1.0000 0.10068  0.44071  0.98219  Biso   1.000  H
  H76      1.0000 0.07901  0.51992  0.93570  Biso   1.000  H
  C75      1.0000 0.02663  0.25240  0.92123  Biso   1.000  C
  H77      1.0000 0.93022  0.28628  0.99532  Biso   1.000  H
  H78      1.0000 0.00992  0.33988  0.00577  Biso   1.000  H
  H79      1.0000 0.81497  0.35287  0.94141  Biso   1.000  H
  O13      1.0000 0.26448  0.17992  0.68413  Biso   1.000  O
  H80      1.0000 0.26479  0.12459  0.58141  Biso   1.000  H
  H81      1.0000 0.23948  0.21470  0.57509  Biso   1.000  H
  C76      1.0000 0.12348  0.14478  0.83432  Biso   1.000  C
  C77      1.0000 0.99039  0.20148  0.86416  Biso   1.000  C
  H82      1.0000 0.64527  0.43982  0.56798  Biso   1.000  H
  H83      1.0000 0.66838  0.45078  0.66031  Biso   1.000  H
  C78      1.0000 0.64163  0.33578  0.63137  Biso   1.000  C
  O14      1.0000 0.23810  0.40849  0.90585  Biso   1.000  O
  H84      1.0000 0.20368  0.51188  0.86410  Biso   1.000  H
  H85      1.0000 0.22277  0.51158  0.95782  Biso   1.000  H
  C79      1.0000 0.11242  0.24632  0.93418  Biso   1.000  C
  C80      1.0000 0.35002  0.20529  0.68340  Biso   1.000  C
  H86      1.0000 0.15689  0.10923  0.80539  Biso   1.000  H
  C81      1.0000 0.15990  0.19219  0.89248  Biso   1.000  C
  O15      1.0000 0.90435  0.20678  0.85255  Biso   1.000  O
  N3       1.0000 0.66675  0.30737  0.71233  Biso   1.000  N
  H87      1.0000 0.58071  0.33720  0.62821  Biso   1.000  H
  H88      1.0000 0.66160  0.29867  0.59059  Biso   1.000  H
  C82      1.0000 0.32471  0.41641  0.88659  Biso   1.000  C
  H89      1.0000 0.13799  0.27961  0.97198  Biso   1.000  H
  C83      1.0000 0.37043  0.23060  0.76752  Biso   1.000  C
  H90      1.0000 0.35743  0.24942  0.64602  Biso   1.000  H
  H91      1.0000 0.38638  0.16199  0.66669  Biso   1.000  H
  H92      1.0000 0.21700  0.18742  0.90360  Biso   1.000  H
  C84      1.0000 0.85749  0.14412  0.88981  Biso   1.000  C
  C85      1.0000 0.62957  0.23060  0.73251  Biso   1.000  C
  H93      1.0000 0.72761  0.30439  0.71391  Biso   1.000  H
  C86      1.0000 0.35837  0.33578  0.86860  Biso   1.000  C
  H94      1.0000 0.35473  0.43982  0.93199  Biso   1.000  H
  H95      1.0000 0.33162  0.45078  0.83973  Biso   1.000  H
  N4       1.0000 0.33325  0.30737  0.78770  Biso   1.000  N
  H96      1.0000 0.35002  0.19070  0.80532  Biso   1.000  H
  H97      1.0000 0.43091  0.23388  0.77348  Biso   1.000  H
  C87      1.0000 0.76699  0.16682  0.89260  Biso   1.000  C
  H98      1.0000 0.87809  0.13477  0.94439  Biso   1.000  H
  H99      1.0000 0.86421  0.09541  0.85881  Biso   1.000  H
  C88      1.0000 0.64998  0.20529  0.81663  Biso   1.000  C
  H100     1.0000 0.64998  0.19070  0.69471  Biso   1.000  H
  H101     1.0000 0.56909  0.23388  0.72649  Biso   1.000  H
  H102     1.0000 0.41929  0.33720  0.87182  Biso   1.000  H
  H103     1.0000 0.33840  0.29867  0.90938  Biso   1.000  H
  H104     1.0000 0.27239  0.30439  0.78612  Biso   1.000  H
  O16      1.0000 0.73552  0.17992  0.81584  Biso   1.000  O
  H105     1.0000 0.73521  0.12459  0.91862  Biso   1.000  H
  H106     1.0000 0.76052  0.21470  0.92488  Biso   1.000  H
  H107     1.0000 0.64257  0.24942  0.85401  Biso   1.000  H
  H108     1.0000 0.61362  0.16199  0.83328  Biso   1.000  H
  C89      1.0000 0.35749  0.64410  0.61022  Biso   1.000  C
  O17      1.0000 0.40435  0.70675  0.64742  Biso   1.000  O
  C90      1.0000 0.26699  0.66679  0.60743  Biso   1.000  C
  H109     1.0000 0.37809  0.63480  0.55558  Biso   1.000  H
  H110     1.0000 0.36421  0.59538  0.64122  Biso   1.000  H
  C91      1.0000 0.49039  0.70145  0.63581  Biso   1.000  C
  O18      1.0000 0.23552  0.67995  0.68413  Biso   1.000  O
  H111     1.0000 0.23521  0.62462  0.58141  Biso   1.000  H
  H112     1.0000 0.26052  0.71467  0.57509  Biso   1.000  H
  C92      1.0000 0.53800  0.64862  0.68243  Biso   1.000  C
  C93      1.0000 0.52663  0.75237  0.57880  Biso   1.000  C
  C94      1.0000 0.14998  0.70532  0.68340  Biso   1.000  C
  C95      1.0000 0.50000  0.59937  0.75002  Biso   1.000  C
  C96      1.0000 0.62348  0.64481  0.66571  Biso   1.000  C
  C97      1.0000 0.61242  0.74629  0.56579  Biso   1.000  C
  C98      1.0000 0.47450  0.81359  0.53401  Biso   1.000  C
  C99      1.0000 0.12957  0.73057  0.76752  Biso   1.000  C
  H113     1.0000 0.14257  0.74939  0.64602  Biso   1.000  H
  H114     1.0000 0.11362  0.66202  0.66669  Biso   1.000  H
  C100     1.0000 0.46200  0.64862  0.81760  Biso   1.000  C
  H115     1.0000 0.54692  0.55768  0.77360  Biso   1.000  H
  H116     1.0000 0.45308  0.55768  0.72637  Biso   1.000  H
  H117     1.0000 0.65689  0.60920  0.69458  Biso   1.000  H
  C101     1.0000 0.65990  0.69222  0.60749  Biso   1.000  C
  H118     1.0000 0.63799  0.77958  0.52799  Biso   1.000  H
  H119     1.0000 0.50992  0.83991  0.49420  Biso   1.000  H
  H120     1.0000 0.43022  0.78631  0.50471  Biso   1.000  H
  C102     1.0000 0.43512  0.87648  0.58798  Biso   1.000  C
  N5       1.0000 0.16675  0.80740  0.78770  Biso   1.000  N
  H121     1.0000 0.14998  0.69067  0.80532  Biso   1.000  H
  H122     1.0000 0.06909  0.73391  0.77348  Biso   1.000  H
  C103     1.0000 0.50961  0.70145  0.86416  Biso   1.000  C
  C104     1.0000 0.37652  0.64481  0.83432  Biso   1.000  C
  H123     1.0000 0.71700  0.68739  0.59643  Biso   1.000  H
  C105     1.0000 0.34839  0.88488  0.59138  Biso   1.000  C
  C106     1.0000 0.48348  0.92681  0.63678  Biso   1.000  C
  H124     1.0000 0.22761  0.80442  0.78612  Biso   1.000  H
  C107     1.0000 0.14163  0.83580  0.86860  Biso   1.000  C
  O19      1.0000 0.59565  0.70675  0.85255  Biso   1.000  O
  C108     1.0000 0.47337  0.75237  0.92123  Biso   1.000  C
  H125     1.0000 0.34311  0.60920  0.80539  Biso   1.000  H
  C109     1.0000 0.34010  0.69222  0.89248  Biso   1.000  C
  H126     1.0000 0.31497  0.85290  0.55862  Biso   1.000  H
  C110     1.0000 0.31083  0.93931  0.64183  Biso   1.000  C
  O20      1.0000 0.57003  0.92335  0.63362  Biso   1.000  O
  C111     1.0000 0.44643  0.97892  0.69191  Biso   1.000  C
  C112     1.0000 0.17529  0.91638  0.88659  Biso   1.000  C
  H127     1.0000 0.08071  0.83717  0.87182  Biso   1.000  H
  H128     1.0000 0.16160  0.79870  0.90938  Biso   1.000  H
  C113     1.0000 0.64251  0.64410  0.88981  Biso   1.000  C
  C114     1.0000 0.38758  0.74629  0.93418  Biso   1.000  C
  C115     1.0000 0.52550  0.81359  0.96602  Biso   1.000  C
  H129     1.0000 0.28300  0.68739  0.90360  Biso   1.000  H
  H130     1.0000 0.25267  0.94509  0.64189  Biso   1.000  H
  C116     1.0000 0.35988  0.98541  0.69240  Biso   1.000  C
  C117     1.0000 0.60721  0.96891  0.56889  Biso   1.000  C
  C118     1.0000 0.50000  0.02787  0.75002  Biso   1.000  C
  O21      1.0000 0.26190  0.90846  0.90585  Biso   1.000  O
  H131     1.0000 0.14527  0.93979  0.93199  Biso   1.000  H
  H132     1.0000 0.16838  0.95081  0.83973  Biso   1.000  H
  C119     1.0000 0.73301  0.66679  0.89260  Biso   1.000  C
  H133     1.0000 0.62191  0.63480  0.94439  Biso   1.000  H
  H134     1.0000 0.63579  0.59538  0.85881  Biso   1.000  H
  H135     1.0000 0.36201  0.77958  0.97198  Biso   1.000  H
  H136     1.0000 0.56978  0.78631  0.99532  Biso   1.000  H
  C120     1.0000 0.56488  0.87648  0.91199  Biso   1.000  C
  H137     1.0000 0.49008  0.83991  0.00577  Biso   1.000  H
  H138     1.0000 0.33432  0.02150  0.72741  Biso   1.000  H
  H139     1.0000 0.60068  0.94068  0.51778  Biso   1.000  H
  C121     1.0000 0.69753  0.98136  0.58609  Biso   1.000  C
  H140     1.0000 0.57901  0.01989  0.56427  Biso   1.000  H
  C122     1.0000 0.55357  0.97892  0.80812  Biso   1.000  C
  H141     1.0000 0.53969  0.06748  0.71993  Biso   1.000  H
  H142     1.0000 0.46031  0.06748  0.78010  Biso   1.000  H
  C123     1.0000 0.30247  0.98136  0.91388  Biso   1.000  C
  O22      1.0000 0.76448  0.67995  0.81584  Biso   1.000  O
  H143     1.0000 0.76479  0.62462  0.91862  Biso   1.000  H
  H144     1.0000 0.73948  0.71467  0.92488  Biso   1.000  H
  C124     1.0000 0.65161  0.88488  0.90859  Biso   1.000  C
  C125     1.0000 0.51652  0.92681  0.86319  Biso   1.000  C
  O23      1.0000 0.73810  0.90846  0.59412  Biso   1.000  O
  H145     1.0000 0.70368  0.01191  0.63587  Biso   1.000  H
  H146     1.0000 0.72277  0.01161  0.54221  Biso   1.000  H
  C126     1.0000 0.64012  0.98541  0.80757  Biso   1.000  C
  C127     1.0000 0.39279  0.96891  0.93108  Biso   1.000  C
  H147     1.0000 0.29632  0.01191  0.86410  Biso   1.000  H
  H148     1.0000 0.27723  0.01161  0.95782  Biso   1.000  H
  C128     1.0000 0.85002  0.70532  0.81663  Biso   1.000  C
  H149     1.0000 0.68503  0.85290  0.94141  Biso   1.000  H
  C129     1.0000 0.68917  0.93931  0.85820  Biso   1.000  C
  O24      1.0000 0.42997  0.92335  0.86641  Biso   1.000  O
  C130     1.0000 0.82471  0.91638  0.61338  Biso   1.000  C
  H150     1.0000 0.66568  0.02150  0.77263  Biso   1.000  H
  H151     1.0000 0.39932  0.94068  0.98219  Biso   1.000  H
  H152     1.0000 0.42099  0.01989  0.93570  Biso   1.000  H
  C131     1.0000 0.87043  0.73057  0.73251  Biso   1.000  C
  H153     1.0000 0.85743  0.74939  0.85401  Biso   1.000  H
  H154     1.0000 0.88638  0.66202  0.83328  Biso   1.000  H
  H155     1.0000 0.74733  0.94509  0.85808  Biso   1.000  H
  H156     1.0000 0.85473  0.93979  0.56798  Biso   1.000  H
  H157     1.0000 0.83162  0.95081  0.66031  Biso   1.000  H
  C132     1.0000 0.85837  0.83580  0.63137  Biso   1.000  C
  N6       1.0000 0.83325  0.80740  0.71233  Biso   1.000  N
  H158     1.0000 0.85002  0.69067  0.69471  Biso   1.000  H
  H159     1.0000 0.93091  0.73391  0.72649  Biso   1.000  H
  H160     1.0000 0.91929  0.83717  0.62821  Biso   1.000  H
  H161     1.0000 0.83840  0.79870  0.59059  Biso   1.000  H
  H162     1.0000 0.77239  0.80442  0.71391  Biso   1.000  H
  C133     1.0000 0.34010  0.30778  0.39251  Biso   1.000  C
  C134     1.0000 0.37652  0.35519  0.33429  Biso   1.000  C
  C135     1.0000 0.38758  0.25371  0.43421  Biso   1.000  C
  H163     1.0000 0.28300  0.31261  0.40357  Biso   1.000  H
  C136     1.0000 0.46200  0.35138  0.31757  Biso   1.000  C
  H164     1.0000 0.34311  0.39080  0.30542  Biso   1.000  H
  C137     1.0000 0.47337  0.24757  0.42120  Biso   1.000  C
  H165     1.0000 0.36201  0.22042  0.47201  Biso   1.000  H
  C138     1.0000 0.50000  0.40057  0.24998  Biso   1.000  C
  C139     1.0000 0.50961  0.29849  0.36419  Biso   1.000  C
  C140     1.0000 0.52550  0.18641  0.46599  Biso   1.000  C
  C141     1.0000 0.53800  0.35138  0.18240  Biso   1.000  C
  H166     1.0000 0.45308  0.44232  0.22640  Biso   1.000  H
  H167     1.0000 0.54692  0.44232  0.27363  Biso   1.000  H
  O25      1.0000 0.59565  0.29325  0.35258  Biso   1.000  O
  C142     1.0000 0.56488  0.12352  0.41202  Biso   1.000  C
  H168     1.0000 0.49008  0.16009  0.50580  Biso   1.000  H
  H169     1.0000 0.56978  0.21369  0.49529  Biso   1.000  H
  C143     1.0000 0.49039  0.29849  0.13584  Biso   1.000  C
  C144     1.0000 0.62348  0.35519  0.16568  Biso   1.000  C
  C145     1.0000 0.64251  0.35590  0.38978  Biso   1.000  C
  C146     1.0000 0.51652  0.07319  0.36322  Biso   1.000  C
  C147     1.0000 0.65161  0.11512  0.40862  Biso   1.000  C
  O26      1.0000 0.40435  0.29325  0.14745  Biso   1.000  O
  C148     1.0000 0.52663  0.24757  0.07877  Biso   1.000  C
  H170     1.0000 0.65689  0.39080  0.19461  Biso   1.000  H
  C149     1.0000 0.65990  0.30778  0.10752  Biso   1.000  C
  C150     1.0000 0.73301  0.33321  0.39257  Biso   1.000  C
  H171     1.0000 0.62191  0.36520  0.44442  Biso   1.000  H
  H172     1.0000 0.63579  0.40462  0.35878  Biso   1.000  H
  O27      1.0000 0.42997  0.07665  0.36638  Biso   1.000  O
  C151     1.0000 0.55357  0.02108  0.30809  Biso   1.000  C
  H173     1.0000 0.68503  0.14710  0.44138  Biso   1.000  H
  C152     1.0000 0.68917  0.06069  0.35817  Biso   1.000  C
  C153     1.0000 0.35749  0.35590  0.11019  Biso   1.000  C
  C154     1.0000 0.61242  0.25371  0.06582  Biso   1.000  C
  C155     1.0000 0.47450  0.18641  0.03398  Biso   1.000  C
  H174     1.0000 0.71700  0.31261  0.09640  Biso   1.000  H
  O28      1.0000 0.76448  0.32005  0.31587  Biso   1.000  O
  H175     1.0000 0.76479  0.37538  0.41859  Biso   1.000  H
  H176     1.0000 0.73948  0.28527  0.42491  Biso   1.000  H
  C156     1.0000 0.39279  0.03109  0.43111  Biso   1.000  C
  C157     1.0000 0.50000  0.97207  0.24998  Biso   1.000  C
  C158     1.0000 0.64012  0.01459  0.30760  Biso   1.000  C
  H177     1.0000 0.74733  0.05491  0.35811  Biso   1.000  H
  C159     1.0000 0.26699  0.33321  0.10740  Biso   1.000  C
  H178     1.0000 0.37809  0.36520  0.05561  Biso   1.000  H
  H179     1.0000 0.36421  0.40462  0.14119  Biso   1.000  H
  H180     1.0000 0.63799  0.22042  0.02802  Biso   1.000  H
  H181     1.0000 0.43022  0.21369  0.00468  Biso   1.000  H
  C160     1.0000 0.43512  0.12352  0.08801  Biso   1.000  C
  H182     1.0000 0.50992  0.16009  0.99423  Biso   1.000  H
  C161     1.0000 0.85002  0.29468  0.31660  Biso   1.000  C
  C162     1.0000 0.30247  0.01858  0.41391  Biso   1.000  C
  H183     1.0000 0.39932  0.05932  0.48222  Biso   1.000  H
  H184     1.0000 0.42099  0.98011  0.43573  Biso   1.000  H
  C163     1.0000 0.44643  0.02108  0.19188  Biso   1.000  C
  H185     1.0000 0.46031  0.93246  0.28007  Biso   1.000  H
  H186     1.0000 0.53969  0.93246  0.21990  Biso   1.000  H
  H187     1.0000 0.66568  0.97850  0.27259  Biso   1.000  H
  O29      1.0000 0.23552  0.32005  0.18416  Biso   1.000  O
  H188     1.0000 0.23521  0.37538  0.08138  Biso   1.000  H
  H189     1.0000 0.26052  0.28527  0.07512  Biso   1.000  H
  C164     1.0000 0.34839  0.11512  0.09141  Biso   1.000  C
  C165     1.0000 0.48348  0.07319  0.13681  Biso   1.000  C
  C166     1.0000 0.87043  0.26937  0.23248  Biso   1.000  C
  H190     1.0000 0.85743  0.25061  0.35398  Biso   1.000  H
  H191     1.0000 0.88638  0.33798  0.33331  Biso   1.000  H
  O30      1.0000 0.26190  0.09154  0.40588  Biso   1.000  O
  H192     1.0000 0.29632  0.98809  0.36413  Biso   1.000  H
  H193     1.0000 0.27723  0.98839  0.45779  Biso   1.000  H
  C167     1.0000 0.35988  0.01459  0.19243  Biso   1.000  C
  C168     1.0000 0.14998  0.29468  0.18337  Biso   1.000  C
  H194     1.0000 0.31497  0.14710  0.05859  Biso   1.000  H
  C169     1.0000 0.31083  0.06069  0.14180  Biso   1.000  C
  O31      1.0000 0.57003  0.07665  0.13359  Biso   1.000  O
  N7       1.0000 0.83325  0.19260  0.21230  Biso   1.000  N
  H195     1.0000 0.85002  0.30927  0.19468  Biso   1.000  H
  H196     1.0000 0.93091  0.26609  0.22652  Biso   1.000  H
  C170     1.0000 0.17529  0.08362  0.38662  Biso   1.000  C
  H197     1.0000 0.33432  0.97850  0.22737  Biso   1.000  H
  C171     1.0000 0.12957  0.26937  0.26749  Biso   1.000  C
  H198     1.0000 0.14257  0.25061  0.14599  Biso   1.000  H
  H199     1.0000 0.11362  0.33798  0.16672  Biso   1.000  H
  H200     1.0000 0.25267  0.05491  0.14192  Biso   1.000  H
  C172     1.0000 0.60721  0.03109  0.06892  Biso   1.000  C
  C173     1.0000 0.85837  0.16420  0.13140  Biso   1.000  C
  H201     1.0000 0.77239  0.19558  0.21388  Biso   1.000  H
  C174     1.0000 0.14163  0.16420  0.36863  Biso   1.000  C
  H202     1.0000 0.14527  0.06021  0.43202  Biso   1.000  H
  H203     1.0000 0.16838  0.04919  0.33969  Biso   1.000  H
  N8       1.0000 0.16675  0.19260  0.28767  Biso   1.000  N
  H204     1.0000 0.14998  0.30927  0.30529  Biso   1.000  H
  H205     1.0000 0.06909  0.26609  0.27351  Biso   1.000  H
  H206     1.0000 0.60068  0.05932  0.01781  Biso   1.000  H
  C175     1.0000 0.69753  0.01858  0.08612  Biso   1.000  C
  H207     1.0000 0.57901  0.98011  0.06430  Biso   1.000  H
  C176     1.0000 0.82471  0.08362  0.11341  Biso   1.000  C
  H208     1.0000 0.91929  0.16283  0.12818  Biso   1.000  H
  H209     1.0000 0.83840  0.20130  0.09062  Biso   1.000  H
  H210     1.0000 0.08071  0.16283  0.37179  Biso   1.000  H
  H211     1.0000 0.16160  0.20130  0.40941  Biso   1.000  H
  H212     1.0000 0.22761  0.19558  0.28609  Biso   1.000  H
  O32      1.0000 0.73810  0.09154  0.09415  Biso   1.000  O
  H213     1.0000 0.70368  0.98809  0.13590  Biso   1.000  H
  H214     1.0000 0.72277  0.98839  0.04218  Biso   1.000  H
  H215     1.0000 0.85473  0.06021  0.06801  Biso   1.000  H
  H216     1.0000 0.83162  0.04919  0.16027  Biso   1.000  H
  Ne1      1.0000 0.50000  0.18992  0.25000  Biso   1.000  Ne
  He1      1.0000 0.83920  0.06365  0.27868  Biso   1.000  He
  He2      1.0000 0.28777  0.10791  0.27597  Biso   1.000  He
  Ar1      1.0000 0.50010  0.18596  0.25001  Biso   1.000  Ar
  Ne2      1.0000 0.00000  0.68992  0.25000  Biso   1.000  Ne
  He3      1.0000 0.78528  0.69730  0.30674  Biso   1.000  He
  He4      1.0000 0.20982  0.60913  0.27635  Biso   1.000  He
  Ar2      1.0000 0.99990  0.68596  0.25001  Biso   1.000  Ar
  Ne3      1.0000 0.00000  0.31007  0.75000  Biso   1.000  Ne
  He5      1.0000 0.77996  0.30421  0.80925  Biso   1.000  He
  He6      1.0000 0.30113  0.51999  0.73636  Biso   1.000  He
  Ar3      1.0000 0.00010  0.31404  0.74999  Biso   1.000  Ar
  Ne4      1.0000 0.50000  0.81007  0.75000  Biso   1.000  Ne
  He7      1.0000 0.72221  0.80487  0.81023  Biso   1.000  He
  He8      1.0000 0.30242  0.79767  0.70166  Biso   1.000  He
  Ar4      1.0000 0.49990  0.81401  0.74999  Biso   1.000  Ar
