data_image0
_cell_length_a       26.102
_cell_length_b       26.791
_cell_length_c       13.13
_cell_angle_alpha    90
_cell_angle_beta     90
_cell_angle_gamma    90

_symmetry_space_group_name_H-M    "P 1"
_symmetry_int_tables_number       1

loop_
  _symmetry_equiv_pos_as_xyz
  'x, y, z'

loop_
  _atom_site_label
  _atom_site_occupancy
  _atom_site_fract_x
  _atom_site_fract_y
  _atom_site_fract_z
  _atom_site_thermal_displace_type
  _atom_site_B_iso_or_equiv
  _atom_site_type_symbol
  C1       1.0000 0.63627  0.66959  0.64052  Biso   1.000  C
  N1       1.0000 0.62428  0.70076  0.56222  Biso   1.000  N
  N2       1.0000 0.67780  0.64130  0.61158  Biso   1.000  N
  O1       1.0000 0.61359  0.66649  0.71980  Biso   1.000  O
  C2       1.0000 0.58559  0.73827  0.57091  Biso   1.000  C
  C3       1.0000 0.66179  0.69859  0.47989  Biso   1.000  C
  C4       1.0000 0.70657  0.61379  0.68599  Biso   1.000  C
  C5       1.0000 0.70048  0.66037  0.51790  Biso   1.000  C
  N3       1.0000 0.54080  0.72957  0.50868  Biso   1.000  N
  H1       1.0000 0.60030  0.77030  0.55202  Biso   1.000  H
  H2       1.0000 0.57509  0.74058  0.64158  Biso   1.000  H
  N4       1.0000 0.64259  0.67821  0.38698  Biso   1.000  N
  H3       1.0000 0.67788  0.73110  0.46870  Biso   1.000  H
  N5       1.0000 0.70899  0.56082  0.66679  Biso   1.000  N
  H4       1.0000 0.74128  0.62689  0.68797  Biso   1.000  H
  H5       1.0000 0.69140  0.61920  0.75248  Biso   1.000  H
  N6       1.0000 0.70129  0.62409  0.43587  Biso   1.000  N
  H6       1.0000 0.73427  0.67530  0.52963  Biso   1.000  H
  C6       1.0000 0.53678  0.74417  0.40152  Biso   1.000  C
  C7       1.0000 0.49479  0.72039  0.55187  Biso   1.000  C
  C8       1.0000 0.61440  0.70800  0.31226  Biso   1.000  C
  C9       1.0000 0.66960  0.63637  0.35788  Biso   1.000  C
  C10      1.0000 0.68600  0.52738  0.72856  Biso   1.000  C
  C11      1.0000 0.74420  0.53887  0.59566  Biso   1.000  C
  C12      1.0000 0.73879  0.58550  0.42780  Biso   1.000  C
  C13      1.0000 0.47870  0.73790  0.38180  Biso   1.000  C
  N7       1.0000 0.55973  0.70927  0.33206  Biso   1.000  N
  H7       1.0000 0.54850  0.77840  0.38972  Biso   1.000  H
  N8       1.0000 0.45778  0.72170  0.47563  Biso   1.000  N
  O2       1.0000 0.48717  0.71113  0.64151  Biso   1.000  O
  H8       1.0000 0.62030  0.69430  0.24494  Biso   1.000  H
  H9       1.0000 0.62758  0.74189  0.31287  Biso   1.000  H
  O3       1.0000 0.66619  0.61446  0.27662  Biso   1.000  O
  N9       1.0000 0.70067  0.47990  0.69703  Biso   1.000  N
  O4       1.0000 0.65830  0.53667  0.79916  Biso   1.000  O
  C14      1.0000 0.73879  0.48188  0.61653  Biso   1.000  C
  N10      1.0000 0.72910  0.54190  0.48949  Biso   1.000  N
  H10      1.0000 0.77940  0.55060  0.60647  Biso   1.000  H
  H11      1.0000 0.74090  0.57519  0.35712  Biso   1.000  H
  H12      1.0000 0.77189  0.59919  0.44661  Biso   1.000  H
  N11      1.0000 0.47690  0.70128  0.29992  Biso   1.000  N
  H13      1.0000 0.46330  0.76959  0.36017  Biso   1.000  H
  C15      1.0000 0.52548  0.68728  0.26794  Biso   1.000  C
  C16      1.0000 0.40280  0.72147  0.49878  Biso   1.000  C
  C17      1.0000 0.69439  0.43600  0.76062  Biso   1.000  C
  N12      1.0000 0.72289  0.46090  0.52292  Biso   1.000  N
  H14      1.0000 0.77140  0.46751  0.63907  Biso   1.000  H
  C18      1.0000 0.71968  0.49789  0.44699  Biso   1.000  C
  C19      1.0000 0.43280  0.69490  0.23633  Biso   1.000  C
  O5       1.0000 0.53509  0.66190  0.19650  Biso   1.000  O
  N13      1.0000 0.37779  0.67930  0.45758  Biso   1.000  N
  H15      1.0000 0.39809  0.72177  0.57212  Biso   1.000  H
  H16      1.0000 0.38721  0.75148  0.47152  Biso   1.000  H
  N14      1.0000 0.66248  0.39898  0.71820  Biso   1.000  N
  H17      1.0000 0.68010  0.44631  0.82551  Biso   1.000  H
  H18      1.0000 0.72780  0.42160  0.77357  Biso   1.000  H
  C20      1.0000 0.72420  0.40850  0.49977  Biso   1.000  C
  O6       1.0000 0.71060  0.48908  0.35682  Biso   1.000  O
  N15      1.0000 0.39487  0.66190  0.28142  Biso   1.000  N
  H19      1.0000 0.44349  0.68127  0.17113  Biso   1.000  H
  H20      1.0000 0.41729  0.72718  0.22376  Biso   1.000  H
  C21      1.0000 0.35848  0.67847  0.35423  Biso   1.000  C
  C22      1.0000 0.35028  0.64649  0.51889  Biso   1.000  C
  C23      1.0000 0.62068  0.38128  0.76786  Biso   1.000  C
  C24      1.0000 0.68217  0.36300  0.64638  Biso   1.000  C
  N16      1.0000 0.68190  0.38050  0.54151  Biso   1.000  N
  H21      1.0000 0.72427  0.40439  0.42643  Biso   1.000  H
  H22      1.0000 0.75588  0.39461  0.52567  Biso   1.000  H
  C25      1.0000 0.37928  0.61868  0.23206  Biso   1.000  C
  C26      1.0000 0.31779  0.63700  0.35362  Biso   1.000  C
  H23      1.0000 0.34369  0.71080  0.33488  Biso   1.000  H
  N17      1.0000 0.31810  0.61950  0.45849  Biso   1.000  N
  O7       1.0000 0.35518  0.64238  0.60876  Biso   1.000  O
  N18      1.0000 0.60509  0.33810  0.71858  Biso   1.000  N
  O8       1.0000 0.59777  0.40129  0.83732  Biso   1.000  O
  C27      1.0000 0.64148  0.32149  0.64577  Biso   1.000  C
  H24      1.0000 0.71600  0.35038  0.66657  Biso   1.000  H
  C28      1.0000 0.64968  0.35348  0.48111  Biso   1.000  C
  N19      1.0000 0.33748  0.60099  0.28180  Biso   1.000  N
  O9       1.0000 0.40219  0.59867  0.16268  Biso   1.000  O
  H25      1.0000 0.28400  0.64958  0.33343  Biso   1.000  H
  C29      1.0000 0.27580  0.59150  0.50023  Biso   1.000  C
  C30      1.0000 0.56720  0.30510  0.76367  Biso   1.000  C
  N20      1.0000 0.62217  0.32070  0.54242  Biso   1.000  N
  H26      1.0000 0.65627  0.28920  0.66512  Biso   1.000  H
  O10      1.0000 0.64478  0.35758  0.39117  Biso   1.000  O
  C31      1.0000 0.30561  0.56400  0.23938  Biso   1.000  C
  N21      1.0000 0.27711  0.53910  0.47708  Biso   1.000  N
  H27      1.0000 0.27569  0.59557  0.57357  Biso   1.000  H
  H28      1.0000 0.24408  0.60539  0.47433  Biso   1.000  H
  N22      1.0000 0.52310  0.29868  0.70008  Biso   1.000  N
  H29      1.0000 0.55647  0.31869  0.82887  Biso   1.000  H
  H30      1.0000 0.58268  0.27278  0.77616  Biso   1.000  H
  C32      1.0000 0.59720  0.27849  0.50122  Biso   1.000  C
  N23      1.0000 0.29929  0.52010  0.30297  Biso   1.000  N
  H31      1.0000 0.31990  0.55369  0.17449  Biso   1.000  H
  H32      1.0000 0.27220  0.57840  0.22643  Biso   1.000  H
  C33      1.0000 0.26121  0.51808  0.38347  Biso   1.000  C
  C34      1.0000 0.28029  0.50211  0.55301  Biso   1.000  C
  C35      1.0000 0.52130  0.26210  0.61820  Biso   1.000  C
  C36      1.0000 0.47448  0.31268  0.73206  Biso   1.000  C
  N24      1.0000 0.54218  0.27830  0.52437  Biso   1.000  N
  H33      1.0000 0.60187  0.27819  0.42788  Biso   1.000  H
  H34      1.0000 0.61279  0.24848  0.52848  Biso   1.000  H
  C37      1.0000 0.31400  0.47258  0.27136  Biso   1.000  C
  C38      1.0000 0.25580  0.46109  0.40427  Biso   1.000  C
  H35      1.0000 0.22860  0.53249  0.36093  Biso   1.000  H
  N25      1.0000 0.27090  0.45810  0.51051  Biso   1.000  N
  O11      1.0000 0.28940  0.51088  0.64318  Biso   1.000  O
  C39      1.0000 0.46318  0.25579  0.59848  Biso   1.000  C
  H36      1.0000 0.53670  0.23041  0.63983  Biso   1.000  H
  N26      1.0000 0.44023  0.29069  0.66786  Biso   1.000  N
  O12      1.0000 0.46491  0.33810  0.80350  Biso   1.000  O
  C40      1.0000 0.50517  0.27961  0.44813  Biso   1.000  C
  N27      1.0000 0.29101  0.43914  0.33321  Biso   1.000  N
  O13      1.0000 0.34170  0.46329  0.20076  Biso   1.000  O
  H37      1.0000 0.22060  0.44940  0.39353  Biso   1.000  H
  C41      1.0000 0.26121  0.41450  0.57220  Biso   1.000  C
  N28      1.0000 0.45920  0.27039  0.49132  Biso   1.000  N
  H38      1.0000 0.45150  0.22160  0.61028  Biso   1.000  H
  C42      1.0000 0.38560  0.29200  0.68766  Biso   1.000  C
  O14      1.0000 0.51280  0.28887  0.35849  Biso   1.000  O
  C43      1.0000 0.29339  0.38617  0.31401  Biso   1.000  C
  N29      1.0000 0.29871  0.37591  0.56413  Biso   1.000  N
  H39      1.0000 0.25910  0.42481  0.64288  Biso   1.000  H
  H40      1.0000 0.22811  0.40081  0.55339  Biso   1.000  H
  C44      1.0000 0.41437  0.26169  0.42909  Biso   1.000  C
  N30      1.0000 0.35741  0.32179  0.61302  Biso   1.000  N
  H41      1.0000 0.37970  0.30570  0.75506  Biso   1.000  H
  H42      1.0000 0.37239  0.25811  0.68713  Biso   1.000  H
  N31      1.0000 0.32220  0.35870  0.38842  Biso   1.000  N
  H43      1.0000 0.25868  0.37311  0.31203  Biso   1.000  H
  H44      1.0000 0.30860  0.38080  0.24752  Biso   1.000  H
  C45      1.0000 0.29948  0.33959  0.48210  Biso   1.000  C
  C46      1.0000 0.33040  0.36359  0.64212  Biso   1.000  C
  N32      1.0000 0.37568  0.29920  0.43778  Biso   1.000  N
  H45      1.0000 0.39970  0.22970  0.44798  Biso   1.000  H
  H46      1.0000 0.42491  0.25938  0.35842  Biso   1.000  H
  C47      1.0000 0.33821  0.30141  0.52011  Biso   1.000  C
  C48      1.0000 0.36369  0.33041  0.35948  Biso   1.000  C
  H47      1.0000 0.26569  0.32470  0.47037  Biso   1.000  H
  O15      1.0000 0.33381  0.38550  0.72338  Biso   1.000  O
  H48      1.0000 0.32208  0.26890  0.53130  Biso   1.000  H
  O16      1.0000 0.38641  0.33351  0.28020  Biso   1.000  O
  C49      1.0000 0.61440  0.79198  0.81226  Biso   1.000  C
  N33      1.0000 0.55973  0.79071  0.83206  Biso   1.000  N
  H49      1.0000 0.62030  0.80568  0.74486  Biso   1.000  H
  H50      1.0000 0.62758  0.75809  0.81287  Biso   1.000  H
  N34      1.0000 0.64259  0.82177  0.88698  Biso   1.000  N
  C50      1.0000 0.52548  0.81270  0.76786  Biso   1.000  C
  C51      1.0000 0.53678  0.75578  0.90152  Biso   1.000  C
  C52      1.0000 0.66960  0.86357  0.85788  Biso   1.000  C
  C53      1.0000 0.66179  0.80139  0.97989  Biso   1.000  C
  N35      1.0000 0.47690  0.79870  0.79992  Biso   1.000  N
  O17      1.0000 0.53509  0.83808  0.69650  Biso   1.000  O
  C54      1.0000 0.47870  0.76208  0.88180  Biso   1.000  C
  H51      1.0000 0.54850  0.72159  0.88972  Biso   1.000  H
  N36      1.0000 0.54080  0.77037  0.00868  Biso   1.000  N
  N37      1.0000 0.70129  0.87589  0.93587  Biso   1.000  N
  O18      1.0000 0.66619  0.88548  0.77662  Biso   1.000  O
  N38      1.0000 0.62428  0.79922  0.06222  Biso   1.000  N
  H52      1.0000 0.67788  0.76888  0.96870  Biso   1.000  H
  C55      1.0000 0.70048  0.83957  0.01790  Biso   1.000  C
  C56      1.0000 0.43280  0.80508  0.73633  Biso   1.000  C
  H53      1.0000 0.46330  0.73039  0.86017  Biso   1.000  H
  N39      1.0000 0.45778  0.77828  0.97563  Biso   1.000  N
  C57      1.0000 0.49479  0.77959  0.05187  Biso   1.000  C
  C58      1.0000 0.58559  0.76167  0.07091  Biso   1.000  C
  C59      1.0000 0.73879  0.91449  0.92780  Biso   1.000  C
  C60      1.0000 0.63627  0.83039  0.14052  Biso   1.000  C
  H54      1.0000 0.73427  0.82468  0.02963  Biso   1.000  H
  N40      1.0000 0.67780  0.85868  0.11158  Biso   1.000  N
  H55      1.0000 0.44349  0.81867  0.67106  Biso   1.000  H
  H56      1.0000 0.41729  0.77280  0.72376  Biso   1.000  H
  N41      1.0000 0.39487  0.83808  0.78142  Biso   1.000  N
  C61      1.0000 0.40280  0.77847  0.99878  Biso   1.000  C
  O19      1.0000 0.48717  0.78885  0.14151  Biso   1.000  O
  H57      1.0000 0.60030  0.72969  0.05202  Biso   1.000  H
  H58      1.0000 0.57509  0.75940  0.14158  Biso   1.000  H
  H59      1.0000 0.74090  0.92479  0.85712  Biso   1.000  H
  H60      1.0000 0.77189  0.90079  0.94661  Biso   1.000  H
  N42      1.0000 0.72910  0.95808  0.98949  Biso   1.000  N
  O20      1.0000 0.61359  0.83349  0.21980  Biso   1.000  O
  C62      1.0000 0.70657  0.88619  0.18599  Biso   1.000  C
  C63      1.0000 0.35848  0.82147  0.85423  Biso   1.000  C
  C64      1.0000 0.37928  0.88127  0.73206  Biso   1.000  C
  N43      1.0000 0.37779  0.82069  0.95758  Biso   1.000  N
  H61      1.0000 0.38721  0.74850  0.97152  Biso   1.000  H
  H62      1.0000 0.39809  0.77817  0.07212  Biso   1.000  H
  C65      1.0000 0.74420  0.96107  0.09573  Biso   1.000  C
  C66      1.0000 0.71968  0.00209  0.94699  Biso   1.000  C
  H63      1.0000 0.74128  0.87309  0.18797  Biso   1.000  H
  H64      1.0000 0.69140  0.88078  0.25248  Biso   1.000  H
  N44      1.0000 0.70899  0.93916  0.16679  Biso   1.000  N
  H65      1.0000 0.34369  0.78918  0.83488  Biso   1.000  H
  C67      1.0000 0.31779  0.86298  0.85362  Biso   1.000  C
  N45      1.0000 0.33748  0.89900  0.78180  Biso   1.000  N
  O21      1.0000 0.40219  0.90127  0.66268  Biso   1.000  O
  C68      1.0000 0.35028  0.85350  0.01889  Biso   1.000  C
  H66      1.0000 0.77940  0.94939  0.10647  Biso   1.000  H
  C69      1.0000 0.73879  0.01810  0.11653  Biso   1.000  C
  O22      1.0000 0.71060  0.01090  0.85682  Biso   1.000  O
  N46      1.0000 0.72289  0.03912  0.02292  Biso   1.000  N
  C70      1.0000 0.68600  0.97257  0.22856  Biso   1.000  C
  H67      1.0000 0.28400  0.85040  0.83336  Biso   1.000  H
  N47      1.0000 0.31810  0.88048  0.95849  Biso   1.000  N
  C71      1.0000 0.30561  0.93599  0.73938  Biso   1.000  C
  O23      1.0000 0.35518  0.85760  0.10883  Biso   1.000  O
  H68      1.0000 0.77140  0.03251  0.13907  Biso   1.000  H
  N48      1.0000 0.70067  0.02008  0.19703  Biso   1.000  N
  C72      1.0000 0.72420  0.09149  0.99977  Biso   1.000  C
  O24      1.0000 0.65830  0.96327  0.29916  Biso   1.000  O
  C73      1.0000 0.27580  0.90848  0.00023  Biso   1.000  C
  H69      1.0000 0.31990  0.94629  0.67449  Biso   1.000  H
  H70      1.0000 0.27220  0.92158  0.72643  Biso   1.000  H
  N49      1.0000 0.29929  0.97988  0.80297  Biso   1.000  N
  C74      1.0000 0.69439  0.06401  0.26062  Biso   1.000  C
  H71      1.0000 0.72427  0.09559  0.92643  Biso   1.000  H
  H72      1.0000 0.75588  0.10541  0.02567  Biso   1.000  H
  N50      1.0000 0.68190  0.11948  0.04151  Biso   1.000  N
  H73      1.0000 0.24408  0.89459  0.97426  Biso   1.000  H
  N51      1.0000 0.27711  0.96088  0.97708  Biso   1.000  N
  H74      1.0000 0.27569  0.90437  0.07357  Biso   1.000  H
  C75      1.0000 0.26121  0.98190  0.88347  Biso   1.000  C
  C76      1.0000 0.31400  0.02740  0.77136  Biso   1.000  C
  H75      1.0000 0.68010  0.05371  0.32551  Biso   1.000  H
  H76      1.0000 0.72780  0.07838  0.27357  Biso   1.000  H
  N52      1.0000 0.66248  0.10100  0.21820  Biso   1.000  N
  C77      1.0000 0.64968  0.14650  0.98111  Biso   1.000  C
  C78      1.0000 0.68217  0.13699  0.14638  Biso   1.000  C
  C79      1.0000 0.28029  0.99787  0.05301  Biso   1.000  C
  H77      1.0000 0.22860  0.96749  0.86093  Biso   1.000  H
  C80      1.0000 0.25580  0.03889  0.90427  Biso   1.000  C
  N53      1.0000 0.29101  0.06084  0.83321  Biso   1.000  N
  O25      1.0000 0.34170  0.03669  0.70076  Biso   1.000  O
  C81      1.0000 0.62068  0.11870  0.26794  Biso   1.000  C
  O26      1.0000 0.64478  0.14240  0.89117  Biso   1.000  O
  N54      1.0000 0.62217  0.17931  0.04242  Biso   1.000  N
  C82      1.0000 0.64148  0.17849  0.14577  Biso   1.000  C
  H78      1.0000 0.71600  0.14960  0.16657  Biso   1.000  H
  O27      1.0000 0.28940  0.98906  0.14318  Biso   1.000  O
  N55      1.0000 0.27090  0.04192  0.01051  Biso   1.000  N
  H79      1.0000 0.22060  0.05061  0.89353  Biso   1.000  H
  C83      1.0000 0.29339  0.11381  0.81401  Biso   1.000  C
  N56      1.0000 0.60509  0.16188  0.21858  Biso   1.000  N
  O28      1.0000 0.59777  0.09869  0.33732  Biso   1.000  O
  C84      1.0000 0.59720  0.22149  0.00122  Biso   1.000  C
  H80      1.0000 0.65627  0.21078  0.16512  Biso   1.000  H
  C85      1.0000 0.26121  0.08551  0.07220  Biso   1.000  C
  H81      1.0000 0.25868  0.12691  0.81196  Biso   1.000  H
  H82      1.0000 0.30860  0.11918  0.74752  Biso   1.000  H
  N57      1.0000 0.32220  0.14128  0.88842  Biso   1.000  N
  C86      1.0000 0.56720  0.19488  0.26367  Biso   1.000  C
  N58      1.0000 0.54218  0.22168  0.02437  Biso   1.000  N
  H83      1.0000 0.60187  0.22179  0.92788  Biso   1.000  H
  H84      1.0000 0.61279  0.25150  0.02848  Biso   1.000  H
  H85      1.0000 0.25910  0.07521  0.14288  Biso   1.000  H
  H86      1.0000 0.22811  0.09921  0.05339  Biso   1.000  H
  N59      1.0000 0.29871  0.12411  0.06413  Biso   1.000  N
  C87      1.0000 0.29948  0.16039  0.98210  Biso   1.000  C
  C88      1.0000 0.36369  0.16961  0.85948  Biso   1.000  C
  N60      1.0000 0.52310  0.20130  0.20008  Biso   1.000  N
  H87      1.0000 0.55647  0.18129  0.32887  Biso   1.000  H
  H88      1.0000 0.58268  0.22720  0.27616  Biso   1.000  H
  C89      1.0000 0.50517  0.22041  0.94806  Biso   1.000  C
  C90      1.0000 0.52130  0.23788  0.11820  Biso   1.000  C
  C91      1.0000 0.33040  0.13639  0.14212  Biso   1.000  C
  H89      1.0000 0.26569  0.17528  0.97037  Biso   1.000  H
  C92      1.0000 0.33821  0.19861  0.02011  Biso   1.000  C
  N61      1.0000 0.37568  0.20078  0.93778  Biso   1.000  N
  O29      1.0000 0.38641  0.16651  0.78020  Biso   1.000  O
  C93      1.0000 0.47448  0.18730  0.23206  Biso   1.000  C
  N62      1.0000 0.45920  0.22959  0.99132  Biso   1.000  N
  O30      1.0000 0.51280  0.21112  0.85849  Biso   1.000  O
  C94      1.0000 0.46318  0.24419  0.09848  Biso   1.000  C
  H90      1.0000 0.53670  0.26961  0.13983  Biso   1.000  H
  N63      1.0000 0.35741  0.17819  0.11302  Biso   1.000  N
  O31      1.0000 0.33381  0.11448  0.22338  Biso   1.000  O
  H91      1.0000 0.32208  0.23109  0.03130  Biso   1.000  H
  C95      1.0000 0.41437  0.23829  0.92909  Biso   1.000  C
  N64      1.0000 0.44023  0.20929  0.16794  Biso   1.000  N
  O32      1.0000 0.46491  0.16188  0.30350  Biso   1.000  O
  H92      1.0000 0.45150  0.27838  0.11028  Biso   1.000  H
  C96      1.0000 0.38560  0.20798  0.18766  Biso   1.000  C
  H93      1.0000 0.39970  0.27028  0.94798  Biso   1.000  H
  H94      1.0000 0.42491  0.24060  0.85842  Biso   1.000  H
  H95      1.0000 0.37970  0.19428  0.25506  Biso   1.000  H
  H96      1.0000 0.37239  0.24191  0.18713  Biso   1.000  H
  O33      1.0000 0.83377  0.61446  0.77662  Biso   1.000  O
  C97      1.0000 0.83040  0.63637  0.85788  Biso   1.000  C
  N65      1.0000 0.79867  0.62409  0.93587  Biso   1.000  N
  N66      1.0000 0.85737  0.67821  0.88698  Biso   1.000  N
  C98      1.0000 0.76117  0.58550  0.92780  Biso   1.000  C
  C99      1.0000 0.79948  0.66037  0.01790  Biso   1.000  C
  C100     1.0000 0.83817  0.69859  0.97989  Biso   1.000  C
  C101     1.0000 0.88556  0.70800  0.81226  Biso   1.000  C
  N67      1.0000 0.77090  0.54190  0.98949  Biso   1.000  N
  H97      1.0000 0.75910  0.57519  0.85712  Biso   1.000  H
  H98      1.0000 0.72811  0.59919  0.94661  Biso   1.000  H
  H99      1.0000 0.76569  0.67530  0.02963  Biso   1.000  H
  N68      1.0000 0.82220  0.64130  0.11158  Biso   1.000  N
  H100     1.0000 0.82208  0.73110  0.96870  Biso   1.000  H
  N69      1.0000 0.87568  0.70076  0.06222  Biso   1.000  N
  H101     1.0000 0.87966  0.69430  0.74486  Biso   1.000  H
  H102     1.0000 0.87239  0.74189  0.81287  Biso   1.000  H
  N70      1.0000 0.94023  0.70927  0.83206  Biso   1.000  N
  C102     1.0000 0.78029  0.49789  0.94699  Biso   1.000  C
  C103     1.0000 0.75580  0.53887  0.09573  Biso   1.000  C
  C104     1.0000 0.79339  0.61379  0.18599  Biso   1.000  C
  C105     1.0000 0.86369  0.66959  0.14052  Biso   1.000  C
  C106     1.0000 0.91437  0.73827  0.07091  Biso   1.000  C
  C107     1.0000 0.96318  0.74417  0.90152  Biso   1.000  C
  C108     1.0000 0.97448  0.68728  0.76786  Biso   1.000  C
  O34      1.0000 0.78940  0.48908  0.85682  Biso   1.000  O
  N71      1.0000 0.77707  0.46090  0.02292  Biso   1.000  N
  C109     1.0000 0.76117  0.48188  0.11653  Biso   1.000  C
  H103     1.0000 0.72060  0.55060  0.10647  Biso   1.000  H
  N72      1.0000 0.79097  0.56082  0.16679  Biso   1.000  N
  H104     1.0000 0.75868  0.62689  0.18797  Biso   1.000  H
  H105     1.0000 0.80860  0.61920  0.25248  Biso   1.000  H
  O35      1.0000 0.88637  0.66649  0.21980  Biso   1.000  O
  H106     1.0000 0.89970  0.77030  0.05202  Biso   1.000  H
  H107     1.0000 0.92487  0.74058  0.14158  Biso   1.000  H
  N73      1.0000 0.95920  0.72957  0.00868  Biso   1.000  N
  H108     1.0000 0.95150  0.77840  0.88972  Biso   1.000  H
  C110     1.0000 0.02130  0.73790  0.88180  Biso   1.000  C
  O36      1.0000 0.96487  0.66190  0.69650  Biso   1.000  O
  N74      1.0000 0.02310  0.70128  0.79992  Biso   1.000  N
  C111     1.0000 0.77580  0.40850  0.99977  Biso   1.000  C
  H109     1.0000 0.72860  0.46751  0.13907  Biso   1.000  H
  N75      1.0000 0.79929  0.47990  0.19703  Biso   1.000  N
  C112     1.0000 0.81400  0.52738  0.22856  Biso   1.000  C
  C113     1.0000 0.00521  0.72039  0.05187  Biso   1.000  C
  H110     1.0000 0.03670  0.76959  0.86017  Biso   1.000  H
  N76      1.0000 0.04218  0.72170  0.97563  Biso   1.000  N
  C114     1.0000 0.06720  0.69490  0.73633  Biso   1.000  C
  H111     1.0000 0.77569  0.40439  0.92643  Biso   1.000  H
  H112     1.0000 0.74408  0.39461  0.02567  Biso   1.000  H
  N77      1.0000 0.81810  0.38050  0.04151  Biso   1.000  N
  C115     1.0000 0.80557  0.43600  0.26062  Biso   1.000  C
  O37      1.0000 0.84170  0.53667  0.29916  Biso   1.000  O
  O38      1.0000 0.01280  0.71113  0.14151  Biso   1.000  O
  C116     1.0000 0.09720  0.72147  0.99878  Biso   1.000  C
  H113     1.0000 0.05651  0.68127  0.67106  Biso   1.000  H
  H114     1.0000 0.08271  0.72718  0.72376  Biso   1.000  H
  N78      1.0000 0.10509  0.66190  0.78142  Biso   1.000  N
  C117     1.0000 0.85028  0.35348  0.98111  Biso   1.000  C
  C118     1.0000 0.81779  0.36300  0.14638  Biso   1.000  C
  N79      1.0000 0.83748  0.39898  0.21820  Biso   1.000  N
  H115     1.0000 0.81990  0.44631  0.32551  Biso   1.000  H
  H116     1.0000 0.77220  0.42160  0.27357  Biso   1.000  H
  H117     1.0000 0.11279  0.75148  0.97152  Biso   1.000  H
  N80      1.0000 0.12221  0.67930  0.95758  Biso   1.000  N
  H118     1.0000 0.10191  0.72177  0.07212  Biso   1.000  H
  C119     1.0000 0.14148  0.67847  0.85423  Biso   1.000  C
  C120     1.0000 0.12068  0.61868  0.73206  Biso   1.000  C
  O39      1.0000 0.85518  0.35758  0.89117  Biso   1.000  O
  N81      1.0000 0.87779  0.32070  0.04242  Biso   1.000  N
  C121     1.0000 0.85848  0.32149  0.14577  Biso   1.000  C
  H119     1.0000 0.78400  0.35038  0.16657  Biso   1.000  H
  C122     1.0000 0.87928  0.38128  0.26794  Biso   1.000  C
  C123     1.0000 0.14968  0.64649  0.01889  Biso   1.000  C
  H120     1.0000 0.15631  0.71080  0.83488  Biso   1.000  H
  C124     1.0000 0.18221  0.63700  0.85362  Biso   1.000  C
  N82      1.0000 0.16248  0.60099  0.78180  Biso   1.000  N
  O40      1.0000 0.09781  0.59867  0.66268  Biso   1.000  O
  C125     1.0000 0.90277  0.27849  0.00122  Biso   1.000  C
  H121     1.0000 0.84369  0.28920  0.16512  Biso   1.000  H
  N83      1.0000 0.89487  0.33810  0.21858  Biso   1.000  N
  O41      1.0000 0.90219  0.40129  0.33732  Biso   1.000  O
  N84      1.0000 0.18190  0.61950  0.95849  Biso   1.000  N
  O42      1.0000 0.14478  0.64238  0.10883  Biso   1.000  O
  H122     1.0000 0.21600  0.64958  0.83336  Biso   1.000  H
  C126     1.0000 0.19439  0.56400  0.73938  Biso   1.000  C
  H123     1.0000 0.89809  0.27819  0.92788  Biso   1.000  H
  H124     1.0000 0.88717  0.24848  0.02848  Biso   1.000  H
  N85      1.0000 0.95778  0.27830  0.02437  Biso   1.000  N
  C127     1.0000 0.93276  0.30510  0.26367  Biso   1.000  C
  C128     1.0000 0.22420  0.59150  0.00023  Biso   1.000  C
  H125     1.0000 0.18010  0.55369  0.67449  Biso   1.000  H
  H126     1.0000 0.22780  0.57840  0.72643  Biso   1.000  H
  N86      1.0000 0.20071  0.52010  0.80297  Biso   1.000  N
  C129     1.0000 0.99479  0.27961  0.94806  Biso   1.000  C
  C130     1.0000 0.97870  0.26210  0.11820  Biso   1.000  C
  H127     1.0000 0.94349  0.31869  0.32887  Biso   1.000  H
  H128     1.0000 0.91729  0.27278  0.27616  Biso   1.000  H
  N87      1.0000 0.97690  0.29868  0.20008  Biso   1.000  N
  H129     1.0000 0.25588  0.60539  0.97426  Biso   1.000  H
  N88      1.0000 0.22289  0.53910  0.97708  Biso   1.000  N
  H130     1.0000 0.22431  0.59557  0.07357  Biso   1.000  H
  C131     1.0000 0.23879  0.51808  0.88347  Biso   1.000  C
  C132     1.0000 0.18600  0.47258  0.77136  Biso   1.000  C
  O43      1.0000 0.98717  0.28887  0.85849  Biso   1.000  O
  N89      1.0000 0.04080  0.27039  0.99132  Biso   1.000  N
  H131     1.0000 0.96330  0.23041  0.13983  Biso   1.000  H
  C133     1.0000 0.03682  0.25579  0.09848  Biso   1.000  C
  C134     1.0000 0.02552  0.31268  0.23206  Biso   1.000  C
  C135     1.0000 0.21968  0.50211  0.05301  Biso   1.000  C
  C136     1.0000 0.24420  0.46109  0.90427  Biso   1.000  C
  H132     1.0000 0.27140  0.53249  0.86093  Biso   1.000  H
  N90      1.0000 0.20899  0.43914  0.83321  Biso   1.000  N
  O44      1.0000 0.15830  0.46329  0.70076  Biso   1.000  O
  C137     1.0000 0.08559  0.26169  0.92909  Biso   1.000  C
  H133     1.0000 0.04850  0.22160  0.11028  Biso   1.000  H
  N91      1.0000 0.05973  0.29069  0.16794  Biso   1.000  N
  O45      1.0000 0.03509  0.33810  0.30350  Biso   1.000  O
  N92      1.0000 0.22910  0.45810  0.01051  Biso   1.000  N
  O46      1.0000 0.21060  0.51088  0.14318  Biso   1.000  O
  H134     1.0000 0.27940  0.44940  0.89353  Biso   1.000  H
  C138     1.0000 0.20661  0.38617  0.81401  Biso   1.000  C
  H135     1.0000 0.10030  0.22970  0.94798  Biso   1.000  H
  H136     1.0000 0.07509  0.25938  0.85842  Biso   1.000  H
  N93      1.0000 0.12428  0.29920  0.93778  Biso   1.000  N
  C139     1.0000 0.11440  0.29200  0.18766  Biso   1.000  C
  C140     1.0000 0.23879  0.41450  0.07220  Biso   1.000  C
  N94      1.0000 0.17780  0.35870  0.88842  Biso   1.000  N
  H137     1.0000 0.24128  0.37311  0.81196  Biso   1.000  H
  H138     1.0000 0.19140  0.38080  0.74752  Biso   1.000  H
  C141     1.0000 0.13631  0.33041  0.85948  Biso   1.000  C
  C142     1.0000 0.16179  0.30141  0.02011  Biso   1.000  C
  H139     1.0000 0.12030  0.30570  0.25506  Biso   1.000  H
  H140     1.0000 0.12761  0.25811  0.18713  Biso   1.000  H
  N95      1.0000 0.14259  0.32179  0.11302  Biso   1.000  N
  N96      1.0000 0.20129  0.37591  0.06413  Biso   1.000  N
  H141     1.0000 0.24090  0.42481  0.14288  Biso   1.000  H
  H142     1.0000 0.27189  0.40081  0.05339  Biso   1.000  H
  C143     1.0000 0.20048  0.33959  0.98210  Biso   1.000  C
  O47      1.0000 0.11359  0.33351  0.78020  Biso   1.000  O
  H143     1.0000 0.17788  0.26890  0.03130  Biso   1.000  H
  C144     1.0000 0.16960  0.36359  0.14212  Biso   1.000  C
  H144     1.0000 0.23431  0.32470  0.97037  Biso   1.000  H
  O48      1.0000 0.16619  0.38550  0.22338  Biso   1.000  O
  C145     1.0000 0.79948  0.83957  0.51790  Biso   1.000  C
  C146     1.0000 0.83817  0.80139  0.47989  Biso   1.000  C
  H145     1.0000 0.76569  0.82468  0.52963  Biso   1.000  H
  N97      1.0000 0.79867  0.87589  0.43587  Biso   1.000  N
  N98      1.0000 0.82220  0.85868  0.61158  Biso   1.000  N
  H146     1.0000 0.82208  0.76888  0.46870  Biso   1.000  H
  N99      1.0000 0.85737  0.82177  0.38698  Biso   1.000  N
  N100     1.0000 0.87568  0.79922  0.56222  Biso   1.000  N
  C147     1.0000 0.83040  0.86357  0.35788  Biso   1.000  C
  C148     1.0000 0.76117  0.91449  0.42780  Biso   1.000  C
  C149     1.0000 0.86369  0.83039  0.64052  Biso   1.000  C
  C150     1.0000 0.79339  0.88619  0.68599  Biso   1.000  C
  C151     1.0000 0.88556  0.79198  0.31226  Biso   1.000  C
  C152     1.0000 0.91437  0.76167  0.57091  Biso   1.000  C
  O49      1.0000 0.83377  0.88548  0.27662  Biso   1.000  O
  H147     1.0000 0.75910  0.92479  0.35712  Biso   1.000  H
  H148     1.0000 0.72811  0.90079  0.44661  Biso   1.000  H
  N101     1.0000 0.77090  0.95808  0.48949  Biso   1.000  N
  O50      1.0000 0.88637  0.83349  0.71980  Biso   1.000  O
  H149     1.0000 0.75868  0.87309  0.68797  Biso   1.000  H
  H150     1.0000 0.80860  0.88078  0.75248  Biso   1.000  H
  N102     1.0000 0.79097  0.93916  0.66679  Biso   1.000  N
  H151     1.0000 0.87966  0.80568  0.24494  Biso   1.000  H
  H152     1.0000 0.87239  0.75809  0.31287  Biso   1.000  H
  N103     1.0000 0.94023  0.79071  0.33206  Biso   1.000  N
  H153     1.0000 0.89970  0.72969  0.55202  Biso   1.000  H
  H154     1.0000 0.92487  0.75940  0.64158  Biso   1.000  H
  N104     1.0000 0.95920  0.77037  0.50868  Biso   1.000  N
  C153     1.0000 0.75580  0.96107  0.59566  Biso   1.000  C
  C154     1.0000 0.78029  0.00209  0.44699  Biso   1.000  C
  C155     1.0000 0.81400  0.97257  0.72856  Biso   1.000  C
  C156     1.0000 0.96318  0.75578  0.40152  Biso   1.000  C
  C157     1.0000 0.97448  0.81270  0.26794  Biso   1.000  C
  C158     1.0000 0.00521  0.77959  0.55187  Biso   1.000  C
  H155     1.0000 0.72060  0.94939  0.60647  Biso   1.000  H
  C159     1.0000 0.76117  0.01810  0.61653  Biso   1.000  C
  N105     1.0000 0.77707  0.03912  0.52292  Biso   1.000  N
  O51      1.0000 0.78940  0.01090  0.35682  Biso   1.000  O
  O52      1.0000 0.84170  0.96327  0.79916  Biso   1.000  O
  N106     1.0000 0.79929  0.02008  0.69703  Biso   1.000  N
  H156     1.0000 0.95150  0.72159  0.38972  Biso   1.000  H
  C160     1.0000 0.02130  0.76208  0.38180  Biso   1.000  C
  O53      1.0000 0.96487  0.83808  0.19650  Biso   1.000  O
  N107     1.0000 0.02310  0.79870  0.29992  Biso   1.000  N
  N108     1.0000 0.04218  0.77828  0.47563  Biso   1.000  N
  O54      1.0000 0.01280  0.78885  0.64151  Biso   1.000  O
  H157     1.0000 0.72860  0.03251  0.63907  Biso   1.000  H
  C161     1.0000 0.77580  0.09149  0.49977  Biso   1.000  C
  C162     1.0000 0.80557  0.06401  0.76062  Biso   1.000  C
  H158     1.0000 0.03670  0.73039  0.36017  Biso   1.000  H
  C163     1.0000 0.06720  0.80508  0.23633  Biso   1.000  C
  C164     1.0000 0.09720  0.77847  0.49878  Biso   1.000  C
  H159     1.0000 0.77569  0.09559  0.42643  Biso   1.000  H
  H160     1.0000 0.74408  0.10541  0.52567  Biso   1.000  H
  N109     1.0000 0.81810  0.11948  0.54151  Biso   1.000  N
  H161     1.0000 0.81990  0.05371  0.82551  Biso   1.000  H
  H162     1.0000 0.77220  0.07838  0.77357  Biso   1.000  H
  N110     1.0000 0.83748  0.10100  0.71820  Biso   1.000  N
  H163     1.0000 0.05651  0.81867  0.17113  Biso   1.000  H
  H164     1.0000 0.08271  0.77280  0.22376  Biso   1.000  H
  N111     1.0000 0.10509  0.83808  0.28142  Biso   1.000  N
  H165     1.0000 0.10191  0.77817  0.57212  Biso   1.000  H
  H166     1.0000 0.11279  0.74850  0.47152  Biso   1.000  H
  N112     1.0000 0.12221  0.82069  0.45758  Biso   1.000  N
  C165     1.0000 0.85028  0.14650  0.48111  Biso   1.000  C
  C166     1.0000 0.81779  0.13699  0.64638  Biso   1.000  C
  C167     1.0000 0.87928  0.11870  0.76786  Biso   1.000  C
  C168     1.0000 0.14148  0.82147  0.35423  Biso   1.000  C
  C169     1.0000 0.12068  0.88127  0.23206  Biso   1.000  C
  C170     1.0000 0.14968  0.85350  0.51889  Biso   1.000  C
  N113     1.0000 0.87779  0.17931  0.54242  Biso   1.000  N
  O55      1.0000 0.85518  0.14240  0.39117  Biso   1.000  O
  C171     1.0000 0.85848  0.17849  0.64577  Biso   1.000  C
  H167     1.0000 0.78400  0.14960  0.66657  Biso   1.000  H
  N114     1.0000 0.89487  0.16188  0.71858  Biso   1.000  N
  O56      1.0000 0.90219  0.09869  0.83732  Biso   1.000  O
  H168     1.0000 0.15631  0.78918  0.33488  Biso   1.000  H
  C172     1.0000 0.18221  0.86298  0.35362  Biso   1.000  C
  N115     1.0000 0.16248  0.89900  0.28180  Biso   1.000  N
  O57      1.0000 0.09781  0.90127  0.16268  Biso   1.000  O
  N116     1.0000 0.18190  0.88048  0.45849  Biso   1.000  N
  O58      1.0000 0.14478  0.85760  0.60876  Biso   1.000  O
  C173     1.0000 0.90277  0.22149  0.50122  Biso   1.000  C
  H169     1.0000 0.84369  0.21078  0.66512  Biso   1.000  H
  C174     1.0000 0.93276  0.19488  0.76367  Biso   1.000  C
  H170     1.0000 0.21600  0.85040  0.33343  Biso   1.000  H
  C175     1.0000 0.19439  0.93599  0.23938  Biso   1.000  C
  C176     1.0000 0.22420  0.90848  0.50023  Biso   1.000  C
  H171     1.0000 0.89809  0.22179  0.42788  Biso   1.000  H
  H172     1.0000 0.88717  0.25150  0.52848  Biso   1.000  H
  N117     1.0000 0.95778  0.22168  0.52437  Biso   1.000  N
  H173     1.0000 0.94349  0.18129  0.82887  Biso   1.000  H
  H174     1.0000 0.91729  0.22720  0.77616  Biso   1.000  H
  N118     1.0000 0.97690  0.20130  0.70008  Biso   1.000  N
  H175     1.0000 0.18010  0.94629  0.17449  Biso   1.000  H
  H176     1.0000 0.22780  0.92158  0.22643  Biso   1.000  H
  N119     1.0000 0.20071  0.97988  0.30297  Biso   1.000  N
  H177     1.0000 0.22431  0.90437  0.57357  Biso   1.000  H
  H178     1.0000 0.25588  0.89459  0.47433  Biso   1.000  H
  N120     1.0000 0.22289  0.96088  0.47708  Biso   1.000  N
  C177     1.0000 0.99479  0.22041  0.44813  Biso   1.000  C
  C178     1.0000 0.97870  0.23788  0.61820  Biso   1.000  C
  C179     1.0000 0.02552  0.18730  0.73206  Biso   1.000  C
  C180     1.0000 0.23879  0.98190  0.38347  Biso   1.000  C
  C181     1.0000 0.18600  0.02740  0.27136  Biso   1.000  C
  C182     1.0000 0.21968  0.99787  0.55301  Biso   1.000  C
  O59      1.0000 0.98717  0.21112  0.35849  Biso   1.000  O
  N121     1.0000 0.04080  0.22959  0.49132  Biso   1.000  N
  H179     1.0000 0.96330  0.26961  0.63983  Biso   1.000  H
  C183     1.0000 0.03682  0.24419  0.59848  Biso   1.000  C
  N122     1.0000 0.05973  0.20929  0.66786  Biso   1.000  N
  O60      1.0000 0.03509  0.16188  0.80350  Biso   1.000  O
  H180     1.0000 0.27140  0.96749  0.36093  Biso   1.000  H
  C184     1.0000 0.24420  0.03889  0.40427  Biso   1.000  C
  N123     1.0000 0.20899  0.06084  0.33321  Biso   1.000  N
  O61      1.0000 0.15830  0.03669  0.20076  Biso   1.000  O
  O62      1.0000 0.21060  0.98906  0.64318  Biso   1.000  O
  N124     1.0000 0.22910  0.04192  0.51051  Biso   1.000  N
  C185     1.0000 0.08559  0.23829  0.42909  Biso   1.000  C
  H181     1.0000 0.04850  0.27838  0.61028  Biso   1.000  H
  C186     1.0000 0.11440  0.20798  0.68766  Biso   1.000  C
  H182     1.0000 0.27940  0.05061  0.39353  Biso   1.000  H
  C187     1.0000 0.20661  0.11381  0.31401  Biso   1.000  C
  C188     1.0000 0.23879  0.08551  0.57220  Biso   1.000  C
  H183     1.0000 0.10030  0.27028  0.44798  Biso   1.000  H
  H184     1.0000 0.07509  0.24060  0.35842  Biso   1.000  H
  N125     1.0000 0.12428  0.20078  0.43778  Biso   1.000  N
  H185     1.0000 0.12030  0.19428  0.75506  Biso   1.000  H
  H186     1.0000 0.12761  0.24191  0.68713  Biso   1.000  H
  N126     1.0000 0.14259  0.17819  0.61302  Biso   1.000  N
  H187     1.0000 0.24128  0.12691  0.31203  Biso   1.000  H
  H188     1.0000 0.19140  0.11918  0.24752  Biso   1.000  H
  N127     1.0000 0.17780  0.14128  0.38842  Biso   1.000  N
  H189     1.0000 0.24090  0.07521  0.64288  Biso   1.000  H
  H190     1.0000 0.27189  0.09921  0.55339  Biso   1.000  H
  N128     1.0000 0.20129  0.12411  0.56413  Biso   1.000  N
  C189     1.0000 0.13631  0.16961  0.35948  Biso   1.000  C
  C190     1.0000 0.16179  0.19861  0.52011  Biso   1.000  C
  C191     1.0000 0.16960  0.13639  0.64212  Biso   1.000  C
  C192     1.0000 0.20048  0.16039  0.48210  Biso   1.000  C
  O63      1.0000 0.11359  0.16651  0.28020  Biso   1.000  O
  H191     1.0000 0.17788  0.23109  0.53130  Biso   1.000  H
  O64      1.0000 0.16619  0.11448  0.72338  Biso   1.000  O
  H192     1.0000 0.23431  0.17528  0.47037  Biso   1.000  H
  Ne1      1.0000 0.49999  0.49999  0.49999  Biso   1.000  Ne
  He1      1.0000 0.47767  0.52778  0.74417  Biso   1.000  He
  He2      1.0000 0.53504  0.48343  0.25173  Biso   1.000  He
  Ar1      1.0000 0.49999  0.49999  0.49999  Biso   1.000  Ar
  Ne2      1.0000 0.49999  0.99999  1.00000  Biso   1.000  Ne
  He3      1.0000 0.46526  0.98372  0.24567  Biso   1.000  He
  He4      1.0000 0.53129  0.01273  0.78428  Biso   1.000  He
  Ar2      1.0000 0.49999  0.99999  1.00000  Biso   1.000  Ar
  Ne3      1.0000 0.99999  0.49999  1.00000  Biso   1.000  Ne
  He5      1.0000 0.01898  0.52437  0.21529  Biso   1.000  He
  He6      1.0000 0.98148  0.47604  0.78865  Biso   1.000  He
  Ar3      1.0000 0.99998  0.49998  0.99999  Biso   1.000  Ar
  Ne4      1.0000 0.99999  0.99999  0.49999  Biso   1.000  Ne
  He7      1.0000 0.02699  0.96753  0.78433  Biso   1.000  He
  He8      1.0000 0.97441  0.03102  0.22783  Biso   1.000  He
  Ar4      1.0000 0.00011  0.99959  0.48274  Biso   1.000  Ar
