data_image0
_cell_length_a       25.876
_cell_length_b       26.739
_cell_length_c       13.21
_cell_angle_alpha    90
_cell_angle_beta     90
_cell_angle_gamma    90

_symmetry_space_group_name_H-M    "P 1"
_symmetry_int_tables_number       1

loop_
  _symmetry_equiv_pos_as_xyz
  'x, y, z'

loop_
  _atom_site_label
  _atom_site_occupancy
  _atom_site_fract_x
  _atom_site_fract_y
  _atom_site_fract_z
  _atom_site_thermal_displace_type
  _atom_site_B_iso_or_equiv
  _atom_site_type_symbol
  C1       1.0000 0.35380  0.32469  0.64762  Biso   1.000  C
  N1       1.0000 0.37081  0.32649  0.54322  Biso   1.000  N
  C2       1.0000 0.31512  0.36789  0.65572  Biso   1.000  C
  N2       1.0000 0.39260  0.33790  0.71908  Biso   1.000  N
  H1       1.0000 0.33780  0.29261  0.66412  Biso   1.000  H
  C3       1.0000 0.34260  0.36060  0.48827  Biso   1.000  C
  C4       1.0000 0.39720  0.28412  0.49538  Biso   1.000  C
  N3       1.0000 0.31110  0.38629  0.55140  Biso   1.000  N
  N4       1.0000 0.34032  0.40263  0.72218  Biso   1.000  N
  H2       1.0000 0.28169  0.35678  0.68244  Biso   1.000  H
  C5       1.0000 0.38271  0.38210  0.76601  Biso   1.000  C
  C6       1.0000 0.42939  0.30222  0.75814  Biso   1.000  C
  O1       1.0000 0.34712  0.36744  0.39667  Biso   1.000  O
  N5       1.0000 0.45088  0.28243  0.51408  Biso   1.000  N
  H3       1.0000 0.39160  0.28580  0.42279  Biso   1.000  H
  H4       1.0000 0.38178  0.25330  0.51961  Biso   1.000  H
  C7       1.0000 0.26739  0.41509  0.51734  Biso   1.000  C
  C8       1.0000 0.31110  0.44160  0.77176  Biso   1.000  C
  O2       1.0000 0.40880  0.40099  0.83512  Biso   1.000  O
  N6       1.0000 0.47310  0.29564  0.69137  Biso   1.000  N
  H5       1.0000 0.44161  0.31351  0.82369  Biso   1.000  H
  H6       1.0000 0.41231  0.27032  0.76760  Biso   1.000  H
  C9       1.0000 0.48651  0.28341  0.43808  Biso   1.000  C
  C10      1.0000 0.47310  0.26160  0.60742  Biso   1.000  C
  N7       1.0000 0.27079  0.46726  0.54042  Biso   1.000  N
  H7       1.0000 0.26399  0.41131  0.44451  Biso   1.000  H
  H8       1.0000 0.23628  0.40181  0.54807  Biso   1.000  H
  N8       1.0000 0.30341  0.48510  0.70893  Biso   1.000  N
  H9       1.0000 0.27771  0.42840  0.79160  Biso   1.000  H
  H10      1.0000 0.32919  0.45159  0.83301  Biso   1.000  H
  C11      1.0000 0.52249  0.31018  0.71840  Biso   1.000  C
  O3       1.0000 0.47731  0.29448  0.34913  Biso   1.000  O
  N9       1.0000 0.53358  0.27065  0.47600  Biso   1.000  N
  C12      1.0000 0.53068  0.25528  0.58138  Biso   1.000  C
  H11      1.0000 0.45710  0.22959  0.62544  Biso   1.000  H
  C13      1.0000 0.26020  0.48801  0.64027  Biso   1.000  C
  C14      1.0000 0.27180  0.50350  0.46730  Biso   1.000  C
  C15      1.0000 0.31879  0.53181  0.74171  Biso   1.000  C
  N10      1.0000 0.55635  0.28988  0.64996  Biso   1.000  N
  O4       1.0000 0.53370  0.33565  0.79137  Biso   1.000  O
  C16      1.0000 0.57748  0.26029  0.41098  Biso   1.000  C
  H12      1.0000 0.54239  0.22080  0.59107  Biso   1.000  H
  H13      1.0000 0.22871  0.47391  0.67002  Biso   1.000  H
  C17      1.0000 0.25452  0.54501  0.61908  Biso   1.000  C
  O5       1.0000 0.27589  0.49579  0.37721  Biso   1.000  O
  N11      1.0000 0.26650  0.54886  0.51226  Biso   1.000  N
  N12      1.0000 0.29236  0.56663  0.68607  Biso   1.000  N
  O6       1.0000 0.35002  0.54037  0.80712  Biso   1.000  O
  C18      1.0000 0.61142  0.29029  0.66737  Biso   1.000  C
  N13      1.0000 0.61822  0.29661  0.41862  Biso   1.000  N
  H14      1.0000 0.56558  0.25899  0.34133  Biso   1.000  H
  H15      1.0000 0.59120  0.22761  0.42801  Biso   1.000  H
  H16      1.0000 0.21959  0.55701  0.63407  Biso   1.000  H
  C19      1.0000 0.25738  0.59389  0.45360  Biso   1.000  C
  C20      1.0000 0.29541  0.61928  0.70787  Biso   1.000  C
  N14      1.0000 0.63932  0.31893  0.59190  Biso   1.000  N
  H17      1.0000 0.61822  0.30439  0.73376  Biso   1.000  H
  H18      1.0000 0.62409  0.25622  0.66722  Biso   1.000  H
  C21      1.0000 0.63058  0.32840  0.34111  Biso   1.000  C
  C22      1.0000 0.65652  0.29672  0.49788  Biso   1.000  C
  N15      1.0000 0.29912  0.63005  0.46086  Biso   1.000  N
  H19      1.0000 0.22569  0.60941  0.47684  Biso   1.000  H
  H20      1.0000 0.25271  0.58469  0.38319  Biso   1.000  H
  N16      1.0000 0.32602  0.64688  0.63323  Biso   1.000  N
  H21      1.0000 0.31071  0.62381  0.77434  Biso   1.000  H
  H22      1.0000 0.26078  0.63308  0.70992  Biso   1.000  H
  C23      1.0000 0.66969  0.35895  0.61893  Biso   1.000  C
  O7       1.0000 0.60577  0.33311  0.26223  Biso   1.000  O
  N17      1.0000 0.67398  0.35312  0.36677  Biso   1.000  N
  C24      1.0000 0.69702  0.33393  0.45882  Biso   1.000  C
  H23      1.0000 0.67132  0.26340  0.50848  Biso   1.000  H
  C25      1.0000 0.30298  0.66607  0.54118  Biso   1.000  C
  C26      1.0000 0.33031  0.64105  0.38107  Biso   1.000  C
  C27      1.0000 0.36942  0.67160  0.65889  Biso   1.000  C
  N18      1.0000 0.70088  0.36995  0.53914  Biso   1.000  N
  O8       1.0000 0.66911  0.38102  0.69962  Biso   1.000  O
  C28      1.0000 0.70459  0.38072  0.29213  Biso   1.000  C
  H24      1.0000 0.73021  0.31759  0.44557  Biso   1.000  H
  H25      1.0000 0.26979  0.68241  0.55443  Biso   1.000  H
  C29      1.0000 0.34348  0.70328  0.50212  Biso   1.000  C
  O9       1.0000 0.33089  0.61898  0.30038  Biso   1.000  O
  N19      1.0000 0.36068  0.68107  0.40810  Biso   1.000  N
  O10      1.0000 0.39423  0.66689  0.73777  Biso   1.000  O
  N20      1.0000 0.38178  0.70339  0.58138  Biso   1.000  N
  C30      1.0000 0.74262  0.40611  0.54640  Biso   1.000  C
  N21      1.0000 0.70764  0.43337  0.31393  Biso   1.000  N
  H26      1.0000 0.68929  0.37619  0.22566  Biso   1.000  H
  H27      1.0000 0.73922  0.36692  0.29008  Biso   1.000  H
  H28      1.0000 0.32868  0.73660  0.49152  Biso   1.000  H
  C31      1.0000 0.38858  0.70971  0.33263  Biso   1.000  C
  C32      1.0000 0.42252  0.73971  0.58902  Biso   1.000  C
  N22      1.0000 0.73350  0.45114  0.48774  Biso   1.000  N
  H29      1.0000 0.77431  0.39059  0.52316  Biso   1.000  H
  H30      1.0000 0.74729  0.41531  0.61681  Biso   1.000  H
  C33      1.0000 0.68121  0.46819  0.25829  Biso   1.000  C
  C34      1.0000 0.74548  0.45499  0.38092  Biso   1.000  C
  N23      1.0000 0.44365  0.71012  0.34996  Biso   1.000  N
  H31      1.0000 0.38178  0.69561  0.26624  Biso   1.000  H
  H32      1.0000 0.37591  0.74378  0.33278  Biso   1.000  H
  N24      1.0000 0.46642  0.72935  0.52400  Biso   1.000  N
  H33      1.0000 0.43442  0.74101  0.65867  Biso   1.000  H
  H34      1.0000 0.40880  0.77239  0.57199  Biso   1.000  H
  C35      1.0000 0.72820  0.49650  0.53270  Biso   1.000  C
  O11      1.0000 0.64998  0.45963  0.19288  Biso   1.000  O
  N25      1.0000 0.69659  0.51490  0.29107  Biso   1.000  N
  C36      1.0000 0.73980  0.51199  0.35973  Biso   1.000  C
  H35      1.0000 0.78041  0.44299  0.36593  Biso   1.000  H
  C37      1.0000 0.46932  0.74472  0.41862  Biso   1.000  C
  C38      1.0000 0.47751  0.68982  0.28160  Biso   1.000  C
  C39      1.0000 0.51349  0.71659  0.56192  Biso   1.000  C
  N26      1.0000 0.72921  0.53274  0.45958  Biso   1.000  N
  O12      1.0000 0.72411  0.50421  0.62279  Biso   1.000  O
  C40      1.0000 0.68890  0.55840  0.22824  Biso   1.000  C
  H36      1.0000 0.77129  0.52609  0.32998  Biso   1.000  H
  H37      1.0000 0.45761  0.77920  0.40893  Biso   1.000  H
  C41      1.0000 0.52690  0.73840  0.39258  Biso   1.000  C
  O13      1.0000 0.46630  0.66435  0.20863  Biso   1.000  O
  N27      1.0000 0.52690  0.70436  0.30863  Biso   1.000  N
  O14      1.0000 0.52269  0.70552  0.65087  Biso   1.000  O
  N28      1.0000 0.54912  0.71757  0.48592  Biso   1.000  N
  C42      1.0000 0.73261  0.58491  0.48266  Biso   1.000  C
  N29      1.0000 0.65968  0.59737  0.27782  Biso   1.000  N
  H38      1.0000 0.72229  0.57160  0.20840  Biso   1.000  H
  H39      1.0000 0.67081  0.54841  0.16699  Biso   1.000  H
  H40      1.0000 0.54290  0.77041  0.37456  Biso   1.000  H
  C43      1.0000 0.57061  0.69778  0.24186  Biso   1.000  C
  C44      1.0000 0.60280  0.71588  0.50462  Biso   1.000  C
  N30      1.0000 0.68890  0.61371  0.44860  Biso   1.000  N
  H41      1.0000 0.73601  0.58869  0.55549  Biso   1.000  H
  H42      1.0000 0.76372  0.59819  0.45193  Biso   1.000  H
  C45      1.0000 0.61729  0.61790  0.23399  Biso   1.000  C
  C46      1.0000 0.68488  0.63211  0.34428  Biso   1.000  C
  N31      1.0000 0.60740  0.66210  0.28092  Biso   1.000  N
  H43      1.0000 0.55839  0.68649  0.17631  Biso   1.000  H
  H44      1.0000 0.58769  0.72968  0.23240  Biso   1.000  H
  N32      1.0000 0.62919  0.67351  0.45678  Biso   1.000  N
  H45      1.0000 0.60840  0.71420  0.57721  Biso   1.000  H
  H46      1.0000 0.61822  0.74670  0.48039  Biso   1.000  H
  C47      1.0000 0.65740  0.63940  0.51173  Biso   1.000  C
  O15      1.0000 0.59120  0.59901  0.16488  Biso   1.000  O
  C48      1.0000 0.64620  0.67531  0.35238  Biso   1.000  C
  H47      1.0000 0.71831  0.64322  0.31756  Biso   1.000  H
  O16      1.0000 0.65288  0.63256  0.60333  Biso   1.000  O
  H48      1.0000 0.66220  0.70739  0.33588  Biso   1.000  H
  O17      1.0000 0.47731  0.20551  0.84913  Biso   1.000  O
  C49      1.0000 0.48651  0.21661  0.93808  Biso   1.000  C
  N33      1.0000 0.45088  0.21755  0.01408  Biso   1.000  N
  N34      1.0000 0.53358  0.22937  0.97600  Biso   1.000  N
  C50      1.0000 0.39720  0.21590  0.99538  Biso   1.000  C
  C51      1.0000 0.47310  0.23842  0.10742  Biso   1.000  C
  C52      1.0000 0.53068  0.24470  0.08138  Biso   1.000  C
  C53      1.0000 0.57748  0.23969  0.91098  Biso   1.000  C
  N35      1.0000 0.37081  0.17353  0.04322  Biso   1.000  N
  H49      1.0000 0.39160  0.21418  0.92279  Biso   1.000  H
  H50      1.0000 0.38178  0.24672  0.01961  Biso   1.000  H
  N36      1.0000 0.47310  0.20435  0.19137  Biso   1.000  N
  H51      1.0000 0.45710  0.27039  0.12544  Biso   1.000  H
  N37      1.0000 0.55635  0.21014  0.14996  Biso   1.000  N
  H52      1.0000 0.54239  0.27922  0.09107  Biso   1.000  H
  N38      1.0000 0.61822  0.20341  0.91862  Biso   1.000  N
  H53      1.0000 0.56558  0.24100  0.84133  Biso   1.000  H
  H54      1.0000 0.59120  0.27241  0.92801  Biso   1.000  H
  C54      1.0000 0.34260  0.13938  0.98827  Biso   1.000  C
  C55      1.0000 0.35380  0.17529  0.14762  Biso   1.000  C
  C56      1.0000 0.42939  0.19780  0.25814  Biso   1.000  C
  C57      1.0000 0.52249  0.18984  0.21840  Biso   1.000  C
  C58      1.0000 0.61142  0.20969  0.16737  Biso   1.000  C
  C59      1.0000 0.63058  0.17158  0.84111  Biso   1.000  C
  C60      1.0000 0.65652  0.20330  0.99788  Biso   1.000  C
  O18      1.0000 0.34712  0.13258  0.89667  Biso   1.000  O
  N39      1.0000 0.31110  0.11369  0.05140  Biso   1.000  N
  C61      1.0000 0.31512  0.13209  0.15572  Biso   1.000  C
  N40      1.0000 0.39260  0.16209  0.21908  Biso   1.000  N
  H55      1.0000 0.33780  0.20741  0.16412  Biso   1.000  H
  H56      1.0000 0.44161  0.18651  0.32369  Biso   1.000  H
  H57      1.0000 0.41231  0.22970  0.26760  Biso   1.000  H
  O19      1.0000 0.53370  0.16433  0.29137  Biso   1.000  O
  N41      1.0000 0.63932  0.18105  0.09190  Biso   1.000  N
  H58      1.0000 0.61822  0.19559  0.23376  Biso   1.000  H
  H59      1.0000 0.62409  0.24380  0.16722  Biso   1.000  H
  O20      1.0000 0.60577  0.16691  0.76223  Biso   1.000  O
  N42      1.0000 0.67398  0.14690  0.86677  Biso   1.000  N
  C62      1.0000 0.69702  0.16605  0.95882  Biso   1.000  C
  H60      1.0000 0.67132  0.23658  0.00848  Biso   1.000  H
  C63      1.0000 0.26739  0.08489  0.01734  Biso   1.000  C
  N43      1.0000 0.34032  0.09739  0.22218  Biso   1.000  N
  H61      1.0000 0.28169  0.14320  0.18244  Biso   1.000  H
  C64      1.0000 0.38271  0.11792  0.26601  Biso   1.000  C
  C65      1.0000 0.66969  0.14103  0.11893  Biso   1.000  C
  C66      1.0000 0.70459  0.11930  0.79213  Biso   1.000  C
  H62      1.0000 0.73021  0.18239  0.94557  Biso   1.000  H
  N44      1.0000 0.70088  0.13003  0.03914  Biso   1.000  N
  H63      1.0000 0.26399  0.08871  0.94451  Biso   1.000  H
  N45      1.0000 0.27079  0.03276  0.04042  Biso   1.000  N
  H64      1.0000 0.23628  0.09821  0.04807  Biso   1.000  H
  C67      1.0000 0.31110  0.05842  0.27176  Biso   1.000  C
  O21      1.0000 0.40880  0.09899  0.33512  Biso   1.000  O
  O22      1.0000 0.66911  0.11900  0.19962  Biso   1.000  O
  N46      1.0000 0.70764  0.06664  0.81393  Biso   1.000  N
  H65      1.0000 0.68929  0.12379  0.72566  Biso   1.000  H
  H66      1.0000 0.73922  0.13310  0.79008  Biso   1.000  H
  C68      1.0000 0.74262  0.09391  0.04640  Biso   1.000  C
  C69      1.0000 0.27180  0.99648  0.96730  Biso   1.000  C
  C70      1.0000 0.26020  0.01197  0.14027  Biso   1.000  C
  N47      1.0000 0.30341  0.01492  0.20893  Biso   1.000  N
  H67      1.0000 0.27771  0.07162  0.29160  Biso   1.000  H
  H68      1.0000 0.32919  0.04839  0.33301  Biso   1.000  H
  C71      1.0000 0.68121  0.03179  0.75829  Biso   1.000  C
  C72      1.0000 0.74548  0.04499  0.88092  Biso   1.000  C
  N48      1.0000 0.73350  0.04888  0.98774  Biso   1.000  N
  H69      1.0000 0.77431  0.10939  0.02316  Biso   1.000  H
  H70      1.0000 0.74729  0.08471  0.11681  Biso   1.000  H
  O23      1.0000 0.27589  0.00423  0.87721  Biso   1.000  O
  N49      1.0000 0.26650  0.95112  0.01226  Biso   1.000  N
  C73      1.0000 0.25452  0.95501  0.11908  Biso   1.000  C
  H71      1.0000 0.22871  0.02610  0.17002  Biso   1.000  H
  C74      1.0000 0.31879  0.96821  0.24171  Biso   1.000  C
  O24      1.0000 0.64998  0.04035  0.69288  Biso   1.000  O
  N50      1.0000 0.69659  0.98508  0.79107  Biso   1.000  N
  H72      1.0000 0.78041  0.05700  0.86593  Biso   1.000  H
  C75      1.0000 0.73980  0.98803  0.85973  Biso   1.000  C
  C76      1.0000 0.72820  0.00352  0.03270  Biso   1.000  C
  C77      1.0000 0.25738  0.90609  0.95360  Biso   1.000  C
  N51      1.0000 0.29236  0.93336  0.18607  Biso   1.000  N
  H73      1.0000 0.21959  0.94300  0.13407  Biso   1.000  H
  O25      1.0000 0.35002  0.95965  0.30712  Biso   1.000  O
  C78      1.0000 0.68890  0.94158  0.72824  Biso   1.000  C
  N52      1.0000 0.72921  0.96724  0.95958  Biso   1.000  N
  H74      1.0000 0.77129  0.97390  0.82998  Biso   1.000  H
  O26      1.0000 0.72411  0.99577  0.12279  Biso   1.000  O
  N53      1.0000 0.29912  0.86997  0.96086  Biso   1.000  N
  H75      1.0000 0.22569  0.89061  0.97684  Biso   1.000  H
  H76      1.0000 0.25271  0.91529  0.88319  Biso   1.000  H
  C79      1.0000 0.29541  0.88070  0.20787  Biso   1.000  C
  N54      1.0000 0.65968  0.90261  0.77782  Biso   1.000  N
  H77      1.0000 0.72229  0.92838  0.70840  Biso   1.000  H
  H78      1.0000 0.67081  0.95161  0.66699  Biso   1.000  H
  C80      1.0000 0.73261  0.91511  0.98266  Biso   1.000  C
  C81      1.0000 0.33031  0.85897  0.88107  Biso   1.000  C
  C82      1.0000 0.30298  0.83395  0.04118  Biso   1.000  C
  N55      1.0000 0.32602  0.85310  0.13323  Biso   1.000  N
  H79      1.0000 0.31071  0.87621  0.27434  Biso   1.000  H
  H80      1.0000 0.26078  0.86690  0.20992  Biso   1.000  H
  C83      1.0000 0.61729  0.88208  0.73399  Biso   1.000  C
  C84      1.0000 0.68488  0.86791  0.84428  Biso   1.000  C
  N56      1.0000 0.68890  0.88631  0.94860  Biso   1.000  N
  H81      1.0000 0.76372  0.90179  0.95193  Biso   1.000  H
  H82      1.0000 0.73601  0.91129  0.05549  Biso   1.000  H
  O27      1.0000 0.33089  0.88100  0.80038  Biso   1.000  O
  N57      1.0000 0.36068  0.81895  0.90810  Biso   1.000  N
  H83      1.0000 0.26979  0.81761  0.05443  Biso   1.000  H
  C85      1.0000 0.34348  0.79670  0.00212  Biso   1.000  C
  C86      1.0000 0.36942  0.82842  0.15889  Biso   1.000  C
  N58      1.0000 0.60740  0.83791  0.78092  Biso   1.000  N
  O28      1.0000 0.59120  0.90101  0.66488  Biso   1.000  O
  C87      1.0000 0.64620  0.82471  0.85238  Biso   1.000  C
  H84      1.0000 0.71831  0.85680  0.81756  Biso   1.000  H
  C88      1.0000 0.65740  0.86062  0.01173  Biso   1.000  C
  C89      1.0000 0.38858  0.79031  0.83263  Biso   1.000  C
  H85      1.0000 0.32868  0.76342  0.99152  Biso   1.000  H
  N59      1.0000 0.38178  0.79659  0.08138  Biso   1.000  N
  O29      1.0000 0.39423  0.83309  0.23777  Biso   1.000  O
  C90      1.0000 0.57061  0.80220  0.74186  Biso   1.000  C
  N60      1.0000 0.62919  0.82647  0.95678  Biso   1.000  N
  H86      1.0000 0.66220  0.79259  0.83588  Biso   1.000  H
  O30      1.0000 0.65288  0.86742  0.10333  Biso   1.000  O
  N61      1.0000 0.44365  0.78986  0.84996  Biso   1.000  N
  H87      1.0000 0.38178  0.80441  0.76624  Biso   1.000  H
  H88      1.0000 0.37591  0.75620  0.83278  Biso   1.000  H
  C91      1.0000 0.42252  0.76031  0.08902  Biso   1.000  C
  N62      1.0000 0.52690  0.79565  0.80863  Biso   1.000  N
  H89      1.0000 0.55839  0.81349  0.67631  Biso   1.000  H
  H90      1.0000 0.58769  0.77030  0.73240  Biso   1.000  H
  C92      1.0000 0.60280  0.78410  0.00462  Biso   1.000  C
  C93      1.0000 0.46932  0.75530  0.91862  Biso   1.000  C
  C94      1.0000 0.47751  0.81016  0.78160  Biso   1.000  C
  N63      1.0000 0.46642  0.77063  0.02400  Biso   1.000  N
  H91      1.0000 0.43442  0.75900  0.15867  Biso   1.000  H
  H92      1.0000 0.40880  0.72759  0.07199  Biso   1.000  H
  C95      1.0000 0.52690  0.76158  0.89258  Biso   1.000  C
  N64      1.0000 0.54912  0.78245  0.98592  Biso   1.000  N
  H93      1.0000 0.61822  0.75328  0.98039  Biso   1.000  H
  H94      1.0000 0.60840  0.78582  0.07721  Biso   1.000  H
  H95      1.0000 0.45761  0.72078  0.90893  Biso   1.000  H
  O31      1.0000 0.46630  0.83567  0.70863  Biso   1.000  O
  C96      1.0000 0.51349  0.78339  0.06192  Biso   1.000  C
  H96      1.0000 0.54290  0.72961  0.87456  Biso   1.000  H
  O32      1.0000 0.52269  0.79449  0.15087  Biso   1.000  O
  O33      1.0000 0.22411  0.49579  0.87721  Biso   1.000  O
  C97      1.0000 0.22820  0.50350  0.96730  Biso   1.000  C
  N65      1.0000 0.22921  0.46726  0.04042  Biso   1.000  N
  N66      1.0000 0.23350  0.54886  0.01226  Biso   1.000  N
  C98      1.0000 0.23261  0.41509  0.01734  Biso   1.000  C
  C99      1.0000 0.23980  0.48801  0.14027  Biso   1.000  C
  C100     1.0000 0.24548  0.54501  0.11908  Biso   1.000  C
  C101     1.0000 0.24262  0.59389  0.95360  Biso   1.000  C
  N67      1.0000 0.18890  0.38629  0.05140  Biso   1.000  N
  H97      1.0000 0.23601  0.41131  0.94451  Biso   1.000  H
  H98      1.0000 0.26372  0.40181  0.04807  Biso   1.000  H
  N68      1.0000 0.19659  0.48510  0.20893  Biso   1.000  N
  H99      1.0000 0.27129  0.47391  0.17002  Biso   1.000  H
  N69      1.0000 0.20764  0.56663  0.18607  Biso   1.000  N
  H100     1.0000 0.28041  0.55701  0.13407  Biso   1.000  H
  N70      1.0000 0.20088  0.63005  0.96086  Biso   1.000  N
  H101     1.0000 0.27431  0.60941  0.97684  Biso   1.000  H
  H102     1.0000 0.24729  0.58469  0.88319  Biso   1.000  H
  C102     1.0000 0.15740  0.36060  0.98827  Biso   1.000  C
  C103     1.0000 0.18488  0.36789  0.15572  Biso   1.000  C
  C104     1.0000 0.18890  0.44160  0.27176  Biso   1.000  C
  C105     1.0000 0.18121  0.53181  0.24171  Biso   1.000  C
  C106     1.0000 0.20459  0.61928  0.20787  Biso   1.000  C
  C107     1.0000 0.16969  0.64105  0.88107  Biso   1.000  C
  C108     1.0000 0.19702  0.66607  0.04118  Biso   1.000  C
  O34      1.0000 0.15288  0.36744  0.89667  Biso   1.000  O
  N71      1.0000 0.12919  0.32649  0.04322  Biso   1.000  N
  C109     1.0000 0.14620  0.32469  0.14762  Biso   1.000  C
  N72      1.0000 0.15968  0.40263  0.22218  Biso   1.000  N
  H103     1.0000 0.21831  0.35678  0.18244  Biso   1.000  H
  H104     1.0000 0.22229  0.42840  0.29160  Biso   1.000  H
  H105     1.0000 0.17081  0.45159  0.33301  Biso   1.000  H
  O35      1.0000 0.14998  0.54037  0.30712  Biso   1.000  O
  N73      1.0000 0.17398  0.64688  0.13323  Biso   1.000  N
  H106     1.0000 0.18929  0.62381  0.27434  Biso   1.000  H
  H107     1.0000 0.23922  0.63308  0.20992  Biso   1.000  H
  O36      1.0000 0.16911  0.61898  0.80038  Biso   1.000  O
  N74      1.0000 0.13932  0.68107  0.90810  Biso   1.000  N
  H108     1.0000 0.23021  0.68241  0.05443  Biso   1.000  H
  C110     1.0000 0.15652  0.70328  0.00212  Biso   1.000  C
  C111     1.0000 0.10280  0.28412  0.99538  Biso   1.000  C
  N75      1.0000 0.10740  0.33790  0.21908  Biso   1.000  N
  H109     1.0000 0.16220  0.29261  0.16412  Biso   1.000  H
  C112     1.0000 0.11729  0.38210  0.26601  Biso   1.000  C
  C113     1.0000 0.13058  0.67160  0.15889  Biso   1.000  C
  C114     1.0000 0.11142  0.70971  0.83263  Biso   1.000  C
  H110     1.0000 0.17132  0.73660  0.99152  Biso   1.000  H
  N76      1.0000 0.11822  0.70339  0.08138  Biso   1.000  N
  H111     1.0000 0.10840  0.28580  0.92279  Biso   1.000  H
  N77      1.0000 0.04912  0.28243  0.01408  Biso   1.000  N
  H112     1.0000 0.11822  0.25330  0.01961  Biso   1.000  H
  C115     1.0000 0.07061  0.30222  0.25814  Biso   1.000  C
  O37      1.0000 0.09120  0.40099  0.33512  Biso   1.000  O
  O38      1.0000 0.10577  0.66689  0.23777  Biso   1.000  O
  N78      1.0000 0.05635  0.71012  0.84996  Biso   1.000  N
  H113     1.0000 0.11822  0.69561  0.76624  Biso   1.000  H
  H114     1.0000 0.12409  0.74378  0.83278  Biso   1.000  H
  C116     1.0000 0.07748  0.73971  0.08902  Biso   1.000  C
  C117     1.0000 0.01349  0.28341  0.93808  Biso   1.000  C
  C118     1.0000 0.02690  0.26160  0.10742  Biso   1.000  C
  N79      1.0000 0.02690  0.29564  0.19137  Biso   1.000  N
  H115     1.0000 0.05839  0.31351  0.32369  Biso   1.000  H
  H116     1.0000 0.08769  0.27032  0.26760  Biso   1.000  H
  C119     1.0000 0.03068  0.74472  0.91862  Biso   1.000  C
  C120     1.0000 0.02249  0.68982  0.78160  Biso   1.000  C
  N80      1.0000 0.03358  0.72935  0.02400  Biso   1.000  N
  H117     1.0000 0.06558  0.74101  0.15867  Biso   1.000  H
  H118     1.0000 0.09120  0.77239  0.07199  Biso   1.000  H
  O39      1.0000 0.02269  0.29448  0.84913  Biso   1.000  O
  N81      1.0000 0.96642  0.27065  0.97600  Biso   1.000  N
  C121     1.0000 0.96932  0.25528  0.08138  Biso   1.000  C
  H119     1.0000 0.04290  0.22959  0.12544  Biso   1.000  H
  C122     1.0000 0.97751  0.31018  0.21840  Biso   1.000  C
  H120     1.0000 0.04239  0.77920  0.90893  Biso   1.000  H
  C123     1.0000 0.97310  0.73840  0.89258  Biso   1.000  C
  O40      1.0000 0.03370  0.66435  0.70863  Biso   1.000  O
  N82      1.0000 0.97310  0.70436  0.80863  Biso   1.000  N
  C124     1.0000 0.98651  0.71659  0.06192  Biso   1.000  C
  C125     1.0000 0.92252  0.26029  0.91098  Biso   1.000  C
  N83      1.0000 0.94365  0.28988  0.14996  Biso   1.000  N
  H121     1.0000 0.95761  0.22080  0.09107  Biso   1.000  H
  O41      1.0000 0.96630  0.33565  0.29137  Biso   1.000  O
  N84      1.0000 0.95088  0.71757  0.98592  Biso   1.000  N
  H122     1.0000 0.95710  0.77041  0.87456  Biso   1.000  H
  C126     1.0000 0.92939  0.69778  0.74186  Biso   1.000  C
  O42      1.0000 0.97731  0.70552  0.15087  Biso   1.000  O
  N85      1.0000 0.88178  0.29661  0.91862  Biso   1.000  N
  H123     1.0000 0.93442  0.25899  0.84133  Biso   1.000  H
  H124     1.0000 0.90880  0.22761  0.92801  Biso   1.000  H
  C127     1.0000 0.88858  0.29029  0.16737  Biso   1.000  C
  C128     1.0000 0.89720  0.71588  0.00462  Biso   1.000  C
  N86      1.0000 0.89260  0.66210  0.78092  Biso   1.000  N
  H125     1.0000 0.94161  0.68649  0.67631  Biso   1.000  H
  H126     1.0000 0.91231  0.72968  0.73240  Biso   1.000  H
  C129     1.0000 0.86942  0.32840  0.84111  Biso   1.000  C
  C130     1.0000 0.84348  0.29672  0.99788  Biso   1.000  C
  N87      1.0000 0.86068  0.31893  0.09190  Biso   1.000  N
  H127     1.0000 0.88178  0.30439  0.23376  Biso   1.000  H
  H128     1.0000 0.87591  0.25622  0.16722  Biso   1.000  H
  N88      1.0000 0.87081  0.67351  0.95678  Biso   1.000  N
  H129     1.0000 0.88178  0.74670  0.98039  Biso   1.000  H
  H130     1.0000 0.89160  0.71420  0.07721  Biso   1.000  H
  C131     1.0000 0.85380  0.67531  0.85238  Biso   1.000  C
  C132     1.0000 0.88271  0.61790  0.73399  Biso   1.000  C
  O43      1.0000 0.89423  0.33311  0.76223  Biso   1.000  O
  N89      1.0000 0.82602  0.35312  0.86677  Biso   1.000  N
  C133     1.0000 0.80298  0.33393  0.95882  Biso   1.000  C
  H131     1.0000 0.82868  0.26340  0.00848  Biso   1.000  H
  C134     1.0000 0.83031  0.35895  0.11893  Biso   1.000  C
  C135     1.0000 0.84260  0.63940  0.01173  Biso   1.000  C
  C136     1.0000 0.81512  0.63211  0.84428  Biso   1.000  C
  H132     1.0000 0.83780  0.70739  0.83588  Biso   1.000  H
  N90      1.0000 0.84032  0.59737  0.77782  Biso   1.000  N
  O44      1.0000 0.90880  0.59901  0.66488  Biso   1.000  O
  C137     1.0000 0.79541  0.38072  0.79213  Biso   1.000  C
  H133     1.0000 0.76979  0.31759  0.94557  Biso   1.000  H
  N91      1.0000 0.79912  0.36995  0.03914  Biso   1.000  N
  O45      1.0000 0.83089  0.38102  0.19962  Biso   1.000  O
  N92      1.0000 0.81110  0.61371  0.94860  Biso   1.000  N
  O46      1.0000 0.84712  0.63256  0.10333  Biso   1.000  O
  H134     1.0000 0.78169  0.64322  0.81756  Biso   1.000  H
  C138     1.0000 0.81110  0.55840  0.72824  Biso   1.000  C
  N93      1.0000 0.79236  0.43337  0.81393  Biso   1.000  N
  H135     1.0000 0.81071  0.37619  0.72566  Biso   1.000  H
  H136     1.0000 0.76078  0.36692  0.79008  Biso   1.000  H
  C139     1.0000 0.75738  0.40611  0.04640  Biso   1.000  C
  C140     1.0000 0.76739  0.58491  0.98266  Biso   1.000  C
  N94      1.0000 0.80341  0.51490  0.79107  Biso   1.000  N
  H137     1.0000 0.77771  0.57160  0.70840  Biso   1.000  H
  H138     1.0000 0.82919  0.54841  0.66699  Biso   1.000  H
  C141     1.0000 0.81879  0.46819  0.75829  Biso   1.000  C
  C142     1.0000 0.75452  0.45499  0.88092  Biso   1.000  C
  N95      1.0000 0.76650  0.45114  0.98774  Biso   1.000  N
  H139     1.0000 0.72569  0.39059  0.02316  Biso   1.000  H
  H140     1.0000 0.75271  0.41531  0.11681  Biso   1.000  H
  N96      1.0000 0.77079  0.53274  0.95958  Biso   1.000  N
  H141     1.0000 0.73628  0.59819  0.95193  Biso   1.000  H
  H142     1.0000 0.76399  0.58869  0.05549  Biso   1.000  H
  C143     1.0000 0.76020  0.51199  0.85973  Biso   1.000  C
  O47      1.0000 0.85002  0.45963  0.69288  Biso   1.000  O
  H143     1.0000 0.71959  0.44299  0.86593  Biso   1.000  H
  C144     1.0000 0.77180  0.49650  0.03270  Biso   1.000  C
  H144     1.0000 0.72871  0.52609  0.82998  Biso   1.000  H
  O48      1.0000 0.77589  0.50421  0.12279  Biso   1.000  O
  C145     1.0000 0.14620  0.17529  0.64762  Biso   1.000  C
  N97      1.0000 0.12919  0.17353  0.54322  Biso   1.000  N
  C146     1.0000 0.18488  0.13209  0.65572  Biso   1.000  C
  N98      1.0000 0.10740  0.16209  0.71908  Biso   1.000  N
  H145     1.0000 0.16220  0.20741  0.66412  Biso   1.000  H
  C147     1.0000 0.15740  0.13938  0.48827  Biso   1.000  C
  C148     1.0000 0.10280  0.21590  0.49538  Biso   1.000  C
  N99      1.0000 0.18890  0.11369  0.55140  Biso   1.000  N
  N100     1.0000 0.15968  0.09739  0.72218  Biso   1.000  N
  H146     1.0000 0.21831  0.14320  0.68244  Biso   1.000  H
  C149     1.0000 0.11729  0.11792  0.76601  Biso   1.000  C
  C150     1.0000 0.07061  0.19780  0.75814  Biso   1.000  C
  O49      1.0000 0.15288  0.13258  0.39667  Biso   1.000  O
  N101     1.0000 0.04912  0.21755  0.51408  Biso   1.000  N
  H147     1.0000 0.10840  0.21418  0.42279  Biso   1.000  H
  H148     1.0000 0.11822  0.24672  0.51961  Biso   1.000  H
  C151     1.0000 0.23261  0.08489  0.51734  Biso   1.000  C
  C152     1.0000 0.18890  0.05842  0.77176  Biso   1.000  C
  O50      1.0000 0.09120  0.09899  0.83512  Biso   1.000  O
  N102     1.0000 0.02690  0.20435  0.69137  Biso   1.000  N
  H149     1.0000 0.05839  0.18651  0.82369  Biso   1.000  H
  H150     1.0000 0.08769  0.22970  0.76760  Biso   1.000  H
  C153     1.0000 0.01349  0.21661  0.43808  Biso   1.000  C
  C154     1.0000 0.02690  0.23842  0.60742  Biso   1.000  C
  N103     1.0000 0.22921  0.03276  0.54042  Biso   1.000  N
  H151     1.0000 0.23601  0.08871  0.44451  Biso   1.000  H
  H152     1.0000 0.26372  0.09821  0.54807  Biso   1.000  H
  N104     1.0000 0.19659  0.01492  0.70893  Biso   1.000  N
  H153     1.0000 0.22229  0.07162  0.79160  Biso   1.000  H
  H154     1.0000 0.17081  0.04839  0.83301  Biso   1.000  H
  C155     1.0000 0.97751  0.18984  0.71840  Biso   1.000  C
  O51      1.0000 0.02269  0.20551  0.34913  Biso   1.000  O
  N105     1.0000 0.96642  0.22937  0.47600  Biso   1.000  N
  H155     1.0000 0.04290  0.27039  0.62544  Biso   1.000  H
  C156     1.0000 0.96932  0.24470  0.58138  Biso   1.000  C
  C157     1.0000 0.23980  0.01197  0.64027  Biso   1.000  C
  C158     1.0000 0.22820  0.99648  0.46730  Biso   1.000  C
  C159     1.0000 0.18121  0.96821  0.74171  Biso   1.000  C
  N106     1.0000 0.94365  0.21014  0.64996  Biso   1.000  N
  O52      1.0000 0.96630  0.16433  0.79137  Biso   1.000  O
  C160     1.0000 0.92252  0.23969  0.41098  Biso   1.000  C
  H156     1.0000 0.95761  0.27922  0.59107  Biso   1.000  H
  H157     1.0000 0.27129  0.02610  0.67002  Biso   1.000  H
  C161     1.0000 0.24548  0.95501  0.61908  Biso   1.000  C
  O53      1.0000 0.22411  0.00423  0.37721  Biso   1.000  O
  N107     1.0000 0.23350  0.95112  0.51226  Biso   1.000  N
  N108     1.0000 0.20764  0.93336  0.68607  Biso   1.000  N
  O54      1.0000 0.14998  0.95965  0.80712  Biso   1.000  O
  C162     1.0000 0.88858  0.20969  0.66737  Biso   1.000  C
  N109     1.0000 0.88178  0.20341  0.41862  Biso   1.000  N
  H158     1.0000 0.93442  0.24100  0.34133  Biso   1.000  H
  H159     1.0000 0.90880  0.27241  0.42801  Biso   1.000  H
  H160     1.0000 0.28041  0.94300  0.63407  Biso   1.000  H
  C163     1.0000 0.24262  0.90609  0.45360  Biso   1.000  C
  C164     1.0000 0.20459  0.88070  0.70787  Biso   1.000  C
  N110     1.0000 0.86068  0.18105  0.59190  Biso   1.000  N
  H161     1.0000 0.88178  0.19559  0.73376  Biso   1.000  H
  H162     1.0000 0.87591  0.24380  0.66722  Biso   1.000  H
  C165     1.0000 0.86942  0.17158  0.34111  Biso   1.000  C
  C166     1.0000 0.84348  0.20330  0.49788  Biso   1.000  C
  N111     1.0000 0.20088  0.86997  0.46086  Biso   1.000  N
  H163     1.0000 0.27431  0.89061  0.47684  Biso   1.000  H
  H164     1.0000 0.24729  0.91529  0.38319  Biso   1.000  H
  N112     1.0000 0.17398  0.85310  0.63323  Biso   1.000  N
  H165     1.0000 0.18929  0.87621  0.77434  Biso   1.000  H
  H166     1.0000 0.23922  0.86690  0.70992  Biso   1.000  H
  C167     1.0000 0.83031  0.14103  0.61893  Biso   1.000  C
  O55      1.0000 0.89423  0.16691  0.26223  Biso   1.000  O
  N113     1.0000 0.82602  0.14690  0.36677  Biso   1.000  N
  C168     1.0000 0.80298  0.16605  0.45882  Biso   1.000  C
  H167     1.0000 0.82868  0.23658  0.50848  Biso   1.000  H
  C169     1.0000 0.19702  0.83395  0.54118  Biso   1.000  C
  C170     1.0000 0.16969  0.85897  0.38107  Biso   1.000  C
  C171     1.0000 0.13058  0.82842  0.65889  Biso   1.000  C
  N114     1.0000 0.79912  0.13003  0.53914  Biso   1.000  N
  O56      1.0000 0.83089  0.11900  0.69962  Biso   1.000  O
  C172     1.0000 0.79541  0.11930  0.29213  Biso   1.000  C
  H168     1.0000 0.76979  0.18239  0.44557  Biso   1.000  H
  H169     1.0000 0.23021  0.81761  0.55443  Biso   1.000  H
  C173     1.0000 0.15652  0.79670  0.50212  Biso   1.000  C
  O57      1.0000 0.16911  0.88100  0.30038  Biso   1.000  O
  N115     1.0000 0.13932  0.81895  0.40810  Biso   1.000  N
  O58      1.0000 0.10577  0.83309  0.73777  Biso   1.000  O
  N116     1.0000 0.11822  0.79659  0.58138  Biso   1.000  N
  C174     1.0000 0.75738  0.09391  0.54640  Biso   1.000  C
  N117     1.0000 0.79236  0.06664  0.31393  Biso   1.000  N
  H170     1.0000 0.81071  0.12379  0.22566  Biso   1.000  H
  H171     1.0000 0.76078  0.13310  0.29008  Biso   1.000  H
  H172     1.0000 0.17132  0.76342  0.49152  Biso   1.000  H
  C175     1.0000 0.11142  0.79031  0.33263  Biso   1.000  C
  C176     1.0000 0.07748  0.76031  0.58902  Biso   1.000  C
  N118     1.0000 0.76650  0.04888  0.48774  Biso   1.000  N
  H173     1.0000 0.72569  0.10939  0.52316  Biso   1.000  H
  H174     1.0000 0.75271  0.08471  0.61681  Biso   1.000  H
  C177     1.0000 0.81879  0.03179  0.25829  Biso   1.000  C
  C178     1.0000 0.75452  0.04499  0.38092  Biso   1.000  C
  N119     1.0000 0.05635  0.78986  0.34996  Biso   1.000  N
  H175     1.0000 0.11822  0.80441  0.26624  Biso   1.000  H
  H176     1.0000 0.12409  0.75620  0.33278  Biso   1.000  H
  N120     1.0000 0.03358  0.77063  0.52400  Biso   1.000  N
  H177     1.0000 0.06558  0.75900  0.65867  Biso   1.000  H
  H178     1.0000 0.09120  0.72759  0.57199  Biso   1.000  H
  C179     1.0000 0.77180  0.00352  0.53270  Biso   1.000  C
  N121     1.0000 0.80341  0.98508  0.29107  Biso   1.000  N
  O59      1.0000 0.85002  0.04035  0.19288  Biso   1.000  O
  C180     1.0000 0.76020  0.98803  0.35973  Biso   1.000  C
  H179     1.0000 0.71959  0.05700  0.36593  Biso   1.000  H
  C181     1.0000 0.03068  0.75530  0.41862  Biso   1.000  C
  C182     1.0000 0.02249  0.81016  0.28160  Biso   1.000  C
  C183     1.0000 0.98651  0.78339  0.56192  Biso   1.000  C
  N122     1.0000 0.77079  0.96724  0.45958  Biso   1.000  N
  O60      1.0000 0.77589  0.99577  0.62279  Biso   1.000  O
  C184     1.0000 0.81110  0.94158  0.22824  Biso   1.000  C
  H180     1.0000 0.72871  0.97390  0.32998  Biso   1.000  H
  C185     1.0000 0.97310  0.76158  0.39258  Biso   1.000  C
  H181     1.0000 0.04239  0.72078  0.40893  Biso   1.000  H
  N123     1.0000 0.97310  0.79565  0.30863  Biso   1.000  N
  O61      1.0000 0.03370  0.83567  0.20863  Biso   1.000  O
  O62      1.0000 0.97731  0.79449  0.65087  Biso   1.000  O
  N124     1.0000 0.95088  0.78245  0.48592  Biso   1.000  N
  C186     1.0000 0.76739  0.91511  0.48266  Biso   1.000  C
  N125     1.0000 0.84032  0.90261  0.27782  Biso   1.000  N
  H182     1.0000 0.77771  0.92838  0.20840  Biso   1.000  H
  H183     1.0000 0.82919  0.95161  0.16699  Biso   1.000  H
  H184     1.0000 0.95710  0.72961  0.37456  Biso   1.000  H
  C187     1.0000 0.92939  0.80220  0.24186  Biso   1.000  C
  C188     1.0000 0.89720  0.78410  0.50462  Biso   1.000  C
  N126     1.0000 0.81110  0.88631  0.44860  Biso   1.000  N
  H185     1.0000 0.76399  0.91129  0.55549  Biso   1.000  H
  H186     1.0000 0.73628  0.90179  0.45193  Biso   1.000  H
  C189     1.0000 0.88271  0.88208  0.23399  Biso   1.000  C
  C190     1.0000 0.81512  0.86791  0.34428  Biso   1.000  C
  N127     1.0000 0.89260  0.83791  0.28092  Biso   1.000  N
  H187     1.0000 0.94161  0.81349  0.17631  Biso   1.000  H
  H188     1.0000 0.91231  0.77030  0.23240  Biso   1.000  H
  N128     1.0000 0.87081  0.82647  0.45678  Biso   1.000  N
  H189     1.0000 0.89160  0.78582  0.57721  Biso   1.000  H
  H190     1.0000 0.88178  0.75328  0.48039  Biso   1.000  H
  C191     1.0000 0.84260  0.86062  0.51173  Biso   1.000  C
  O63      1.0000 0.90880  0.90101  0.16488  Biso   1.000  O
  C192     1.0000 0.85380  0.82471  0.35238  Biso   1.000  C
  H191     1.0000 0.78169  0.85680  0.31756  Biso   1.000  H
  O64      1.0000 0.84712  0.86742  0.60333  Biso   1.000  O
  H192     1.0000 0.83780  0.79259  0.33588  Biso   1.000  H
