data_image0
_cell_length_a       12.355
_cell_length_b       19.33
_cell_length_c       15.76
_cell_angle_alpha    90
_cell_angle_beta     106.25
_cell_angle_gamma    90

_symmetry_space_group_name_H-M    "P 1"
_symmetry_int_tables_number       1

loop_
  _symmetry_equiv_pos_as_xyz
  'x, y, z'

loop_
  _atom_site_label
  _atom_site_occupancy
  _atom_site_fract_x
  _atom_site_fract_y
  _atom_site_fract_z
  _atom_site_thermal_displace_type
  _atom_site_B_iso_or_equiv
  _atom_site_type_symbol
  C1       1.0000 0.06276  0.34351  0.28783  Biso   1.000  C
  N1       1.0000 0.07143  0.30812  0.20872  Biso   1.000  N
  C2       1.0000 0.17342  0.38722  0.31737  Biso   1.000  C
  H1       1.0000 0.05744  0.31061  0.33370  Biso   1.000  H
  N2       1.0000 0.97410  0.39571  0.27323  Biso   1.000  N
  C3       1.0000 0.16779  0.32618  0.18618  Biso   1.000  C
  C4       1.0000 0.99420  0.25618  0.15902  Biso   1.000  C
  N3       1.0000 0.22620  0.37362  0.24732  Biso   1.000  N
  H2       1.0000 0.22133  0.37268  0.37540  Biso   1.000  H
  N4       1.0000 0.13219  0.45768  0.31909  Biso   1.000  N
  C5       1.0000 0.01810  0.46011  0.29788  Biso   1.000  C
  C6       1.0000 0.85393  0.38112  0.25221  Biso   1.000  C
  O1       1.0000 0.19750  0.30279  0.12359  Biso   1.000  O
  H3       1.0000 0.03520  0.22571  0.13014  Biso   1.000  H
  H4       1.0000 0.96655  0.22850  0.19993  Biso   1.000  H
  N5       1.0000 0.89835  0.28541  0.09253  Biso   1.000  N
  C7       1.0000 0.34020  0.39529  0.24923  Biso   1.000  C
  C8       1.0000 0.20390  0.51862  0.34652  Biso   1.000  C
  O2       1.0000 0.96040  0.51304  0.29880  Biso   1.000  O
  H5       1.0000 0.81712  0.41878  0.27382  Biso   1.000  H
  H6       1.0000 0.84302  0.33942  0.28287  Biso   1.000  H
  N6       1.0000 0.80034  0.37222  0.15763  Biso   1.000  N
  C9       1.0000 0.88891  0.28438  0.00350  Biso   1.000  C
  C10      1.0000 0.79402  0.30698  0.11090  Biso   1.000  C
  H7       1.0000 0.37209  0.36141  0.21771  Biso   1.000  H
  H8       1.0000 0.38651  0.39612  0.31004  Biso   1.000  H
  N7       1.0000 0.34484  0.46265  0.21031  Biso   1.000  N
  N8       1.0000 0.24487  0.54832  0.27673  Biso   1.000  N
  H9       1.0000 0.26806  0.50579  0.39543  Biso   1.000  H
  H10      1.0000 0.16153  0.55360  0.36774  Biso   1.000  H
  C11      1.0000 0.73032  0.42250  0.10773  Biso   1.000  C
  N9       1.0000 0.78435  0.31102  0.95843  Biso   1.000  N
  O3       1.0000 0.96107  0.26456  0.96847  Biso   1.000  O
  H11      1.0000 0.76358  0.27020  0.14038  Biso   1.000  H
  C12      1.0000 0.71327  0.32318  0.01778  Biso   1.000  C
  C13      1.0000 0.35060  0.52768  0.26001  Biso   1.000  C
  C14      1.0000 0.36545  0.47237  0.13040  Biso   1.000  C
  C15      1.0000 0.20761  0.61092  0.23833  Biso   1.000  C
  N10      1.0000 0.68383  0.39534  0.02419  Biso   1.000  N
  O4       1.0000 0.71199  0.48019  0.13258  Biso   1.000  O
  C16      1.0000 0.73950  0.30528  0.86226  Biso   1.000  C
  H12      1.0000 0.64668  0.29327  0.00357  Biso   1.000  H
  C17      1.0000 0.36904  0.58272  0.19352  Biso   1.000  C
  H13      1.0000 0.41299  0.52732  0.31440  Biso   1.000  H
  N11      1.0000 0.37049  0.54242  0.11573  Biso   1.000  N
  O5       1.0000 0.37724  0.42669  0.07931  Biso   1.000  O
  N12      1.0000 0.27142  0.62814  0.18261  Biso   1.000  N
  O6       1.0000 0.12802  0.64490  0.24890  Biso   1.000  O
  C18      1.0000 0.59446  0.43001  0.95863  Biso   1.000  C
  H14      1.0000 0.78875  0.27579  0.83992  Biso   1.000  H
  H15      1.0000 0.66597  0.28329  0.84832  Biso   1.000  H
  N13      1.0000 0.72869  0.37186  0.81745  Biso   1.000  N
  H16      1.0000 0.43993  0.60781  0.21731  Biso   1.000  H
  C19      1.0000 0.40562  0.56999  0.04137  Biso   1.000  C
  C20      1.0000 0.26060  0.69472  0.13780  Biso   1.000  C
  H17      1.0000 0.56592  0.46762  0.98685  Biso   1.000  H
  H18      1.0000 0.53320  0.39762  0.93622  Biso   1.000  H
  N14      1.0000 0.62962  0.45758  0.88434  Biso   1.000  N
  C21      1.0000 0.79249  0.38908  0.76174  Biso   1.000  C
  C22      1.0000 0.63107  0.41728  0.80655  Biso   1.000  C
  H19      1.0000 0.43418  0.53238  0.01322  Biso   1.000  H
  H20      1.0000 0.46688  0.60238  0.06378  Biso   1.000  H
  N15      1.0000 0.31628  0.60466  0.97588  Biso   1.000  N
  H21      1.0000 0.21133  0.72421  0.16008  Biso   1.000  H
  H22      1.0000 0.33411  0.71671  0.15168  Biso   1.000  H
  N16      1.0000 0.21573  0.68898  0.04157  Biso   1.000  N
  C23      1.0000 0.63466  0.52763  0.86967  Biso   1.000  C
  N17      1.0000 0.75523  0.45168  0.72334  Biso   1.000  N
  O7       1.0000 0.87208  0.35510  0.75116  Biso   1.000  O
  H23      1.0000 0.56017  0.39219  0.78276  Biso   1.000  H
  C24      1.0000 0.64951  0.47232  0.74006  Biso   1.000  C
  C25      1.0000 0.28681  0.67682  0.98222  Biso   1.000  C
  C26      1.0000 0.26978  0.57750  0.89234  Biso   1.000  C
  C27      1.0000 0.11120  0.71562  0.99656  Biso   1.000  C
  N18      1.0000 0.65527  0.53735  0.78976  Biso   1.000  N
  O8       1.0000 0.62287  0.57331  0.92076  Biso   1.000  O
  C28      1.0000 0.79620  0.48138  0.65354  Biso   1.000  C
  H24      1.0000 0.58711  0.47268  0.68567  Biso   1.000  H
  C29      1.0000 0.20609  0.69302  0.88916  Biso   1.000  C
  H25      1.0000 0.35340  0.70673  0.99643  Biso   1.000  H
  N19      1.0000 0.19977  0.62778  0.84244  Biso   1.000  N
  O9       1.0000 0.28809  0.51981  0.86742  Biso   1.000  O
  O10      1.0000 0.03904  0.73544  0.03159  Biso   1.000  O
  N20      1.0000 0.10176  0.71459  0.90754  Biso   1.000  N
  C30      1.0000 0.65991  0.60471  0.75083  Biso   1.000  C
  H26      1.0000 0.73204  0.49421  0.60464  Biso   1.000  H
  H27      1.0000 0.83857  0.44640  0.63233  Biso   1.000  H
  N21      1.0000 0.86789  0.54232  0.68091  Biso   1.000  N
  H28      1.0000 0.23650  0.72980  0.85962  Biso   1.000  H
  C31      1.0000 0.14618  0.61888  0.74786  Biso   1.000  C
  C32      1.0000 0.00591  0.74382  0.84105  Biso   1.000  C
  H29      1.0000 0.62802  0.63859  0.78236  Biso   1.000  H
  H30      1.0000 0.61360  0.60388  0.69003  Biso   1.000  H
  N22      1.0000 0.77391  0.62638  0.75275  Biso   1.000  N
  C33      1.0000 0.98198  0.53989  0.70212  Biso   1.000  C
  C34      1.0000 0.82666  0.61278  0.68263  Biso   1.000  C
  H31      1.0000 0.18298  0.58122  0.72625  Biso   1.000  H
  H32      1.0000 0.15706  0.66058  0.71713  Biso   1.000  H
  N23      1.0000 0.02593  0.60429  0.72684  Biso   1.000  N
  H33      1.0000 0.96490  0.77429  0.86993  Biso   1.000  H
  N24      1.0000 0.92868  0.69188  0.79135  Biso   1.000  N
  H34      1.0000 0.03356  0.77150  0.80014  Biso   1.000  H
  C35      1.0000 0.83229  0.67382  0.81382  Biso   1.000  C
  O11      1.0000 0.03970  0.48696  0.70126  Biso   1.000  O
  C36      1.0000 0.93735  0.65649  0.71223  Biso   1.000  C
  H35      1.0000 0.77877  0.62732  0.62466  Biso   1.000  H
  O12      1.0000 0.80261  0.69721  0.87647  Biso   1.000  O
  H36      1.0000 0.94267  0.68939  0.66637  Biso   1.000  H
  O13      1.0000 0.96104  0.23544  0.46840  Biso   1.000  O
  C37      1.0000 0.88891  0.21562  0.50349  Biso   1.000  C
  N25      1.0000 0.78435  0.18898  0.45842  Biso   1.000  N
  N26      1.0000 0.89835  0.21459  0.59252  Biso   1.000  N
  C38      1.0000 0.73940  0.19472  0.36219  Biso   1.000  C
  C39      1.0000 0.71337  0.17682  0.51783  Biso   1.000  C
  C40      1.0000 0.79402  0.19302  0.61089  Biso   1.000  C
  C41      1.0000 0.99428  0.24382  0.65901  Biso   1.000  C
  N27      1.0000 0.72858  0.12814  0.31737  Biso   1.000  N
  H37      1.0000 0.78875  0.22421  0.33991  Biso   1.000  H
  H38      1.0000 0.66597  0.21671  0.34831  Biso   1.000  H
  N28      1.0000 0.68385  0.10466  0.52424  Biso   1.000  N
  H39      1.0000 0.64678  0.20673  0.50362  Biso   1.000  H
  H40      1.0000 0.76369  0.22980  0.64043  Biso   1.000  H
  N29      1.0000 0.80034  0.12778  0.65762  Biso   1.000  N
  H41      1.0000 0.03528  0.27429  0.63012  Biso   1.000  H
  N30      1.0000 0.07143  0.19188  0.70871  Biso   1.000  N
  H42      1.0000 0.96655  0.27150  0.69992  Biso   1.000  H
  C42      1.0000 0.79241  0.11092  0.26172  Biso   1.000  C
  C43      1.0000 0.63107  0.08272  0.30654  Biso   1.000  C
  C44      1.0000 0.59446  0.06999  0.45861  Biso   1.000  C
  C45      1.0000 0.73032  0.07750  0.60772  Biso   1.000  C
  C46      1.0000 0.85393  0.11888  0.75219  Biso   1.000  C
  C47      1.0000 0.16790  0.17382  0.68623  Biso   1.000  C
  C48      1.0000 0.06276  0.15649  0.78782  Biso   1.000  C
  N31      1.0000 0.75523  0.04832  0.22333  Biso   1.000  N
  O14      1.0000 0.87198  0.14490  0.25108  Biso   1.000  O
  C49      1.0000 0.64940  0.02768  0.23998  Biso   1.000  C
  H43      1.0000 0.56015  0.10781  0.28268  Biso   1.000  H
  N32      1.0000 0.62954  0.04242  0.38433  Biso   1.000  N
  H44      1.0000 0.56584  0.03238  0.48683  Biso   1.000  H
  H45      1.0000 0.53312  0.10238  0.43621  Biso   1.000  H
  O15      1.0000 0.71210  0.01981  0.63263  Biso   1.000  O
  H46      1.0000 0.81721  0.08122  0.77381  Biso   1.000  H
  H47      1.0000 0.84304  0.16058  0.78293  Biso   1.000  H
  N33      1.0000 0.97418  0.10429  0.77321  Biso   1.000  N
  N34      1.0000 0.22628  0.12638  0.74730  Biso   1.000  N
  O16      1.0000 0.19760  0.19721  0.62365  Biso   1.000  O
  C50      1.0000 0.17345  0.11278  0.81743  Biso   1.000  C
  H48      1.0000 0.05744  0.18939  0.83369  Biso   1.000  H
  C51      1.0000 0.79612  0.01862  0.15353  Biso   1.000  C
  N35      1.0000 0.65524  0.96265  0.28968  Biso   1.000  N
  H49      1.0000 0.58701  0.02732  0.18559  Biso   1.000  H
  C52      1.0000 0.63464  0.97237  0.36959  Biso   1.000  C
  C53      1.0000 0.01821  0.03989  0.79793  Biso   1.000  C
  C54      1.0000 0.34028  0.10471  0.74922  Biso   1.000  C
  N36      1.0000 0.13230  0.04232  0.81915  Biso   1.000  N
  H50      1.0000 0.22133  0.12732  0.87539  Biso   1.000  H
  N37      1.0000 0.86781  0.95768  0.18089  Biso   1.000  N
  H51      1.0000 0.73204  0.00579  0.10462  Biso   1.000  H
  H52      1.0000 0.83849  0.05360  0.13232  Biso   1.000  H
  C55      1.0000 0.65983  0.89529  0.25082  Biso   1.000  C
  O17      1.0000 0.62284  0.92669  0.42068  Biso   1.000  O
  O18      1.0000 0.96048  0.98696  0.79879  Biso   1.000  O
  N38      1.0000 0.34484  0.03735  0.71029  Biso   1.000  N
  H53      1.0000 0.37217  0.13859  0.71769  Biso   1.000  H
  H54      1.0000 0.38659  0.10388  0.81003  Biso   1.000  H
  C56      1.0000 0.20398  0.98138  0.84651  Biso   1.000  C
  C57      1.0000 0.98190  0.96011  0.20211  Biso   1.000  C
  C58      1.0000 0.82666  0.88722  0.18261  Biso   1.000  C
  N39      1.0000 0.77382  0.87362  0.25274  Biso   1.000  N
  H55      1.0000 0.62791  0.86141  0.28228  Biso   1.000  H
  H56      1.0000 0.61352  0.89612  0.19001  Biso   1.000  H
  C59      1.0000 0.36545  0.02763  0.63039  Biso   1.000  C
  C60      1.0000 0.35068  0.97232  0.75999  Biso   1.000  C
  N40      1.0000 0.24487  0.95168  0.77672  Biso   1.000  N
  H57      1.0000 0.26806  0.99421  0.89542  Biso   1.000  H
  H58      1.0000 0.16162  0.94640  0.86772  Biso   1.000  H
  O19      1.0000 0.03960  0.01304  0.20118  Biso   1.000  O
  N41      1.0000 0.02593  0.89571  0.22683  Biso   1.000  N
  C61      1.0000 0.93735  0.84351  0.21222  Biso   1.000  C
  H59      1.0000 0.77867  0.87268  0.12458  Biso   1.000  H
  C62      1.0000 0.83221  0.82618  0.31381  Biso   1.000  C
  N42      1.0000 0.37057  0.95758  0.61571  Biso   1.000  N
  O20      1.0000 0.37724  0.07331  0.57930  Biso   1.000  O
  C63      1.0000 0.36904  0.91728  0.69351  Biso   1.000  C
  H60      1.0000 0.41307  0.97268  0.81439  Biso   1.000  H
  C64      1.0000 0.20769  0.88908  0.73832  Biso   1.000  C
  C65      1.0000 0.14615  0.88112  0.24778  Biso   1.000  C
  H61      1.0000 0.94264  0.81061  0.16629  Biso   1.000  H
  N43      1.0000 0.92860  0.80812  0.29133  Biso   1.000  N
  O21      1.0000 0.80250  0.80279  0.37639  Biso   1.000  O
  C66      1.0000 0.40565  0.93001  0.54143  Biso   1.000  C
  N44      1.0000 0.27150  0.87186  0.68260  Biso   1.000  N
  H62      1.0000 0.43993  0.89219  0.71730  Biso   1.000  H
  O22      1.0000 0.12810  0.85510  0.74889  Biso   1.000  O
  H63      1.0000 0.18290  0.91878  0.22623  Biso   1.000  H
  H64      1.0000 0.15706  0.83942  0.21711  Biso   1.000  H
  N45      1.0000 0.19977  0.87222  0.34242  Biso   1.000  N
  C67      1.0000 0.00583  0.75618  0.34104  Biso   1.000  C
  N46      1.0000 0.31625  0.89534  0.47580  Biso   1.000  N
  H65      1.0000 0.43426  0.96762  0.51321  Biso   1.000  H
  H66      1.0000 0.46698  0.89762  0.56383  Biso   1.000  H
  C68      1.0000 0.26068  0.80528  0.63779  Biso   1.000  C
  C69      1.0000 0.20606  0.80698  0.38908  Biso   1.000  C
  C70      1.0000 0.26970  0.92250  0.39232  Biso   1.000  C
  H67      1.0000 0.96482  0.72571  0.36992  Biso   1.000  H
  H68      1.0000 0.03356  0.72850  0.30012  Biso   1.000  H
  N47      1.0000 0.10176  0.78541  0.40752  Biso   1.000  N
  C71      1.0000 0.28673  0.82318  0.48221  Biso   1.000  C
  N48      1.0000 0.21575  0.81102  0.54163  Biso   1.000  N
  H69      1.0000 0.21135  0.77579  0.66013  Biso   1.000  H
  H70      1.0000 0.33413  0.78329  0.65173  Biso   1.000  H
  H71      1.0000 0.23641  0.77020  0.35961  Biso   1.000  H
  O23      1.0000 0.28800  0.98019  0.36741  Biso   1.000  O
  C72      1.0000 0.11117  0.78438  0.49648  Biso   1.000  C
  H72      1.0000 0.35332  0.79327  0.49642  Biso   1.000  H
  O24      1.0000 0.03904  0.76456  0.53158  Biso   1.000  O
  Ne1      1.0000 0.00005  0.50000  0.00003  Biso   1.000  Ne
  He1      1.0000 0.87619  0.61298  0.09444  Biso   1.000  He
  He2      1.0000 0.12539  0.38575  0.90469  Biso   1.000  He
  Ar1      1.0000 0.00005  0.50000  0.00003  Biso   1.000  Ar
  Ne2      1.0000 0.00005  0.00000  0.50001  Biso   1.000  Ne
  He3      1.0000 0.87882  0.88924  0.59285  Biso   1.000  He
  He4      1.0000 0.12103  0.11055  0.40730  Biso   1.000  He
  Ar2      1.0000 0.00005  1.00000  0.50001  Biso   1.000  Ar
