data_image0
_cell_length_a       10.944
_cell_length_b       14.591
_cell_length_c       16.924
_cell_angle_alpha    71.18
_cell_angle_beta     89.65
_cell_angle_gamma    85.66

_symmetry_space_group_name_H-M    "P 1"
_symmetry_int_tables_number       1

loop_
  _symmetry_equiv_pos_as_xyz
  'x, y, z'

loop_
  _atom_site_label
  _atom_site_occupancy
  _atom_site_fract_x
  _atom_site_fract_y
  _atom_site_fract_z
  _atom_site_thermal_displace_type
  _atom_site_B_iso_or_equiv
  _atom_site_type_symbol
  C1       1.0000 0.62080  0.46923  0.43369  Biso   1.000  C
  S1       1.0000 0.57158  0.38052  0.39192  Biso   1.000  S
  S2       1.0000 0.53624  0.57237  0.33241  Biso   1.000  S
  S3       1.0000 0.61523  0.36837  0.41801  Biso   1.000  S
  C2       1.0000 0.59662  0.56184  0.38898  Biso   1.000  C
  C3       1.0000 0.63097  0.54803  0.42170  Biso   1.000  C
  S4       1.0000 0.69409  0.42913  0.53215  Biso   1.000  S
  C4       1.0000 0.54006  0.46332  0.29008  Biso   1.000  C
  C5       1.0000 0.56528  0.45672  0.32230  Biso   1.000  C
  C6       1.0000 0.66613  0.45577  0.46072  Biso   1.000  C
  S5       1.0000 0.51409  0.58451  0.29389  Biso   1.000  S
  C7       1.0000 0.63240  0.65017  0.40778  Biso   1.000  C
  C8       1.0000 0.66433  0.63432  0.44630  Biso   1.000  C
  C9       1.0000 0.83431  0.36430  0.51298  Biso   1.000  C
  C10      1.0000 0.55359  0.44060  0.23239  Biso   1.000  C
  S6       1.0000 0.75190  0.41376  0.55513  Biso   1.000  S
  H1       1.0000 0.60141  0.70883  0.36307  Biso   1.000  H
  H2       1.0000 0.72199  0.64840  0.41158  Biso   1.000  H
  H3       1.0000 0.59717  0.65108  0.46097  Biso   1.000  H
  H4       1.0000 0.62594  0.69433  0.40678  Biso   1.000  H
  H5       1.0000 0.75363  0.63692  0.44542  Biso   1.000  H
  H6       1.0000 0.63526  0.62743  0.50268  Biso   1.000  H
  H7       1.0000 0.88191  0.33952  0.56612  Biso   1.000  H
  H8       1.0000 0.81008  0.30691  0.49962  Biso   1.000  H
  C11      1.0000 0.92557  0.41931  0.44068  Biso   1.000  C
  H9       1.0000 0.87457  0.29322  0.52197  Biso   1.000  H
  C12      1.0000 0.58637  0.34140  0.22971  Biso   1.000  C
  C13      1.0000 0.54289  0.51630  0.15022  Biso   1.000  C
  C14      1.0000 0.88999  0.35848  0.52372  Biso   1.000  C
  H10      1.0000 0.93742  0.47941  0.44043  Biso   1.000  H
  H11      1.0000 0.87136  0.43227  0.39173  Biso   1.000  H
  C15      1.0000 0.04294  0.36508  0.42532  Biso   1.000  C
  C16      1.0000 0.53367  0.25867  0.27941  Biso   1.000  C
  C17      1.0000 0.67527  0.33253  0.17101  Biso   1.000  C
  C18      1.0000 0.45660  0.59622  0.11220  Biso   1.000  C
  C19      1.0000 0.62989  0.50722  0.09078  Biso   1.000  C
  C20      1.0000 0.45463  0.59519  0.14823  Biso   1.000  C
  H12      1.0000 0.95677  0.35110  0.56493  Biso   1.000  H
  C21      1.0000 0.09008  0.40870  0.33703  Biso   1.000  C
  H13      1.0000 0.10649  0.36719  0.46578  Biso   1.000  H
  H14      1.0000 0.02814  0.29621  0.43537  Biso   1.000  H
  H15      1.0000 0.47297  0.26432  0.31830  Biso   1.000  H
  C22      1.0000 0.56847  0.16802  0.27260  Biso   1.000  C
  C23      1.0000 0.71022  0.24019  0.16596  Biso   1.000  C
  C24      1.0000 0.72431  0.42362  0.11957  Biso   1.000  C
  C25      1.0000 0.45937  0.66497  0.03259  Biso   1.000  C
  H16      1.0000 0.38827  0.60384  0.14498  Biso   1.000  H
  C26      1.0000 0.44721  0.66432  0.07018  Biso   1.000  C
  C27      1.0000 0.62577  0.57551  0.01111  Biso   1.000  C
  H17      1.0000 0.40765  0.59918  0.19449  Biso   1.000  H
  C28      1.0000 0.17434  0.33681  0.31050  Biso   1.000  C
  H18      1.0000 0.01917  0.43061  0.29757  Biso   1.000  H
  H19      1.0000 0.13456  0.46630  0.33391  Biso   1.000  H
  H20      1.0000 0.53221  0.11211  0.30688  Biso   1.000  H
  C29      1.0000 0.65670  0.15910  0.21622  Biso   1.000  C
  H21      1.0000 0.77095  0.23327  0.12750  Biso   1.000  H
  C30      1.0000 0.84469  0.43680  0.11064  Biso   1.000  C
  H22      1.0000 0.40186  0.72021  0.01711  Biso   1.000  H
  H23      1.0000 0.38849  0.71839  0.05963  Biso   1.000  H
  C31      1.0000 0.54801  0.65212  0.97552  Biso   1.000  C
  C32      1.0000 0.52504  0.65597  0.00643  Biso   1.000  C
  H24      1.0000 0.69007  0.56544  0.97609  Biso   1.000  H
  S7       1.0000 0.21853  0.38092  0.20117  Biso   1.000  S
  H25      1.0000 0.13303  0.27622  0.32030  Biso   1.000  H
  H26      1.0000 0.24927  0.32083  0.34609  Biso   1.000  H
  H27      1.0000 0.68055  0.09701  0.21191  Biso   1.000  H
  S8       1.0000 0.96423  0.34558  0.15347  Biso   1.000  S
  S9       1.0000 0.90125  0.55179  0.06200  Biso   1.000  S
  H28      1.0000 0.55176  0.69274  0.91902  Biso   1.000  H
  H29      1.0000 0.51381  0.70601  0.95411  Biso   1.000  H
  C33      1.0000 0.07553  0.42810  0.15172  Biso   1.000  C
  C34      1.0000 0.04635  0.52192  0.11039  Biso   1.000  C
  C35      1.0000 0.12414  0.60511  0.09971  Biso   1.000  C
  H30      1.0000 0.20381  0.58081  0.12762  Biso   1.000  H
  H31      1.0000 0.08316  0.65119  0.12431  Biso   1.000  H
  H32      1.0000 0.13629  0.63790  0.04008  Biso   1.000  H
  C36      1.0000 0.37924  0.53080  0.56630  Biso   1.000  C
  C37      1.0000 0.36898  0.45200  0.57829  Biso   1.000  C
  S10      1.0000 0.46380  0.42766  0.66758  Biso   1.000  S
  S11      1.0000 0.42838  0.61944  0.60807  Biso   1.000  S
  S12      1.0000 0.30595  0.57090  0.46784  Biso   1.000  S
  C38      1.0000 0.40342  0.43819  0.61101  Biso   1.000  C
  S13      1.0000 0.38482  0.63159  0.58197  Biso   1.000  S
  C39      1.0000 0.33571  0.36571  0.55369  Biso   1.000  C
  C40      1.0000 0.36756  0.34979  0.59221  Biso   1.000  C
  C41      1.0000 0.33392  0.54417  0.53933  Biso   1.000  C
  C42      1.0000 0.45989  0.53670  0.70991  Biso   1.000  C
  C43      1.0000 0.43467  0.54331  0.67769  Biso   1.000  C
  C44      1.0000 0.16573  0.63573  0.48701  Biso   1.000  C
  S14      1.0000 0.48595  0.41552  0.70610  Biso   1.000  S
  H33      1.0000 0.27795  0.35163  0.58841  Biso   1.000  H
  H34      1.0000 0.40278  0.34888  0.53902  Biso   1.000  H
  H35      1.0000 0.37410  0.30570  0.59321  Biso   1.000  H
  H36      1.0000 0.24641  0.36309  0.55463  Biso   1.000  H
  H37      1.0000 0.36469  0.37260  0.49731  Biso   1.000  H
  H38      1.0000 0.39863  0.29120  0.63692  Biso   1.000  H
  S15      1.0000 0.24814  0.58627  0.44486  Biso   1.000  S
  C45      1.0000 0.44636  0.55943  0.76760  Biso   1.000  C
  H39      1.0000 0.11813  0.66051  0.43387  Biso   1.000  H
  H40      1.0000 0.18987  0.69312  0.50037  Biso   1.000  H
  C46      1.0000 0.07438  0.58072  0.55931  Biso   1.000  C
  H41      1.0000 0.12538  0.70681  0.47802  Biso   1.000  H
  C47      1.0000 0.10997  0.64146  0.47633  Biso   1.000  C
  C48      1.0000 0.45706  0.48371  0.84983  Biso   1.000  C
  C49      1.0000 0.41357  0.65863  0.77028  Biso   1.000  C
  H42      1.0000 0.06262  0.52060  0.55962  Biso   1.000  H
  H43      1.0000 0.12859  0.56766  0.60832  Biso   1.000  H
  C50      1.0000 0.95711  0.63488  0.57467  Biso   1.000  C
  H44      1.0000 0.04318  0.64890  0.43512  Biso   1.000  H
  C51      1.0000 0.54343  0.40381  0.88779  Biso   1.000  C
  C52      1.0000 0.37014  0.49281  0.90921  Biso   1.000  C
  C53      1.0000 0.54541  0.40481  0.85183  Biso   1.000  C
  C54      1.0000 0.46628  0.74130  0.72058  Biso   1.000  C
  C55      1.0000 0.32468  0.66750  0.82897  Biso   1.000  C
  H45      1.0000 0.89347  0.63277  0.53421  Biso   1.000  H
  H46      1.0000 0.97190  0.70382  0.56462  Biso   1.000  H
  C56      1.0000 0.90986  0.59133  0.66295  Biso   1.000  C
  C57      1.0000 0.54058  0.33499  0.96740  Biso   1.000  C
  H47      1.0000 0.61167  0.39619  0.85501  Biso   1.000  H
  C58      1.0000 0.55283  0.33571  0.92981  Biso   1.000  C
  C59      1.0000 0.37418  0.42452  0.98888  Biso   1.000  C
  C60      1.0000 0.27572  0.57641  0.88042  Biso   1.000  C
  H48      1.0000 0.59240  0.40078  0.80550  Biso   1.000  H
  H49      1.0000 0.52697  0.73571  0.68169  Biso   1.000  H
  C61      1.0000 0.43148  0.83201  0.72739  Biso   1.000  C
  C62      1.0000 0.28982  0.75983  0.83403  Biso   1.000  C
  H50      1.0000 0.98078  0.56942  0.70241  Biso   1.000  H
  H51      1.0000 0.86539  0.53372  0.66608  Biso   1.000  H
  C63      1.0000 0.82570  0.66322  0.68949  Biso   1.000  C
  H52      1.0000 0.59808  0.27982  0.98288  Biso   1.000  H
  H53      1.0000 0.61146  0.28161  0.94042  Biso   1.000  H
  C64      1.0000 0.45193  0.34791  0.02446  Biso   1.000  C
  C65      1.0000 0.47501  0.34397  0.99362  Biso   1.000  C
  H54      1.0000 0.30997  0.43458  0.02390  Biso   1.000  H
  C66      1.0000 0.15527  0.56316  0.88935  Biso   1.000  C
  H55      1.0000 0.46783  0.88792  0.69311  Biso   1.000  H
  C67      1.0000 0.34333  0.84093  0.78377  Biso   1.000  C
  H56      1.0000 0.22910  0.76669  0.87249  Biso   1.000  H
  S16      1.0000 0.78151  0.61911  0.79882  Biso   1.000  S
  H57      1.0000 0.86701  0.72381  0.67969  Biso   1.000  H
  H58      1.0000 0.75068  0.67920  0.65390  Biso   1.000  H
  H59      1.0000 0.44828  0.30729  0.08097  Biso   1.000  H
  H60      1.0000 0.48614  0.29395  0.04588  Biso   1.000  H
  S17      1.0000 0.03572  0.65438  0.84652  Biso   1.000  S
  S18      1.0000 0.09869  0.44824  0.93799  Biso   1.000  S
  H61      1.0000 0.31939  0.90302  0.78808  Biso   1.000  H
  C68      1.0000 0.92451  0.57191  0.84833  Biso   1.000  C
  C69      1.0000 0.95359  0.47811  0.88960  Biso   1.000  C
  C70      1.0000 0.87590  0.39492  0.90028  Biso   1.000  C
  H62      1.0000 0.79623  0.41920  0.87243  Biso   1.000  H
  H63      1.0000 0.91679  0.34884  0.87568  Biso   1.000  H
  H64      1.0000 0.86367  0.36207  0.95990  Biso   1.000  H
  C71      1.0000 0.67799  0.14273  0.64260  Biso   1.000  C
  C72      1.0000 0.58565  0.07676  0.62793  Biso   1.000  C
  S19      1.0000 0.75920  0.09366  0.74356  Biso   1.000  S
  H65      1.0000 0.74102  0.15002  0.60601  Biso   1.000  H
  H66      1.0000 0.63801  0.20803  0.63748  Biso   1.000  H
  C73      1.0000 0.50672  0.12369  0.55007  Biso   1.000  C
  H67      1.0000 0.52903  0.05550  0.67700  Biso   1.000  H
  H68      1.0000 0.62300  0.01602  0.63080  Biso   1.000  H
  C74      1.0000 0.63668  0.05288  0.80999  Biso   1.000  C
  C75      1.0000 0.39272  0.06999  0.54901  Biso   1.000  C
  H69      1.0000 0.48202  0.18600  0.54501  Biso   1.000  H
  H70      1.0000 0.55602  0.13097  0.49631  Biso   1.000  H
  S20      1.0000 0.52242  0.14126  0.81936  Biso   1.000  S
  C76      1.0000 0.62459  0.96019  0.85582  Biso   1.000  C
  C77      1.0000 0.30234  0.12557  0.47920  Biso   1.000  C
  H71      1.0000 0.34599  0.05899  0.60333  Biso   1.000  H
  H72      1.0000 0.41703  0.00300  0.54857  Biso   1.000  H
  C78      1.0000 0.42052  0.05558  0.87487  Biso   1.000  C
  S21      1.0000 0.49706  0.93924  0.92126  Biso   1.000  S
  C79      1.0000 0.70676  0.87190  0.85757  Biso   1.000  C
  S22      1.0000 0.16844  0.06140  0.47165  Biso   1.000  S
  H73      1.0000 0.28097  0.18998  0.48670  Biso   1.000  H
  H74      1.0000 0.33900  0.13700  0.42301  Biso   1.000  H
  C80      1.0000 0.29737  0.07414  0.87761  Biso   1.000  C
  H75      1.0000 0.77240  0.89070  0.81742  Biso   1.000  H
  H76      1.0000 0.74243  0.84182  0.91383  Biso   1.000  H
  H77      1.0000 0.65849  0.82545  0.84327  Biso   1.000  H
  C81      1.0000 0.11678  0.02770  0.57486  Biso   1.000  C
  C82      1.0000 0.23253  0.16884  0.83010  Biso   1.000  C
  C83      1.0000 0.21439  0.99789  0.91957  Biso   1.000  C
  S23      1.0000 0.07077  0.12197  0.61700  Biso   1.000  S
  C84      1.0000 0.10608  0.93622  0.62387  Biso   1.000  C
  C85      1.0000 0.12662  0.16404  0.78489  Biso   1.000  C
  C86      1.0000 0.26799  0.25947  0.82816  Biso   1.000  C
  C87      1.0000 0.10773  0.99426  0.87437  Biso   1.000  C
  C88      1.0000 0.23444  0.93292  0.99955  Biso   1.000  C
  C89      1.0000 0.06729  0.04176  0.72071  Biso   1.000  C
  S24      1.0000 0.04189  0.92286  0.72271  Biso   1.000  S
  C90      1.0000 0.14151  0.84403  0.60508  Biso   1.000  C
  C91      1.0000 0.09262  0.06597  0.78908  Biso   1.000  C
  C92      1.0000 0.05787  0.24923  0.73963  Biso   1.000  C
  C93      1.0000 0.19922  0.34412  0.78177  Biso   1.000  C
  H78      1.0000 0.33898  0.26297  0.85963  Biso   1.000  H
  C94      1.0000 0.02412  0.92643  0.91127  Biso   1.000  C
  C95      1.0000 0.14936  0.86620  0.03608  Biso   1.000  C
  H79      1.0000 0.30495  0.93296  0.03127  Biso   1.000  H
  H80      1.0000 0.16701  0.85939  0.54701  Biso   1.000  H
  H81      1.0000 0.20965  0.80819  0.64229  Biso   1.000  H
  H82      1.0000 0.07154  0.80399  0.61413  Biso   1.000  H
  C96      1.0000 0.09498  0.33887  0.73888  Biso   1.000  C
  H83      1.0000 0.97796  0.24592  0.71259  Biso   1.000  H
  H84      1.0000 0.22497  0.40297  0.78302  Biso   1.000  H
  H85      1.0000 0.95306  0.92799  0.88261  Biso   1.000  H
  C97      1.0000 0.04364  0.86317  0.99181  Biso   1.000  C
  H86      1.0000 0.16301  0.81901  0.09177  Biso   1.000  H
  H87      1.0000 0.04803  0.39598  0.70760  Biso   1.000  H
  H88      1.0000 0.98194  0.81856  0.01541  Biso   1.000  H
  C98      1.0000 0.32204  0.85730  0.35739  Biso   1.000  C
  S25      1.0000 0.24075  0.90635  0.25649  Biso   1.000  S
  H89      1.0000 0.25902  0.85001  0.39398  Biso   1.000  H
  H90      1.0000 0.36203  0.79200  0.36251  Biso   1.000  H
  C99      1.0000 0.41440  0.92318  0.37212  Biso   1.000  C
  C100     1.0000 0.36327  0.94708  0.19000  Biso   1.000  C
  H91      1.0000 0.47101  0.94453  0.32299  Biso   1.000  H
  H92      1.0000 0.37704  0.98401  0.36919  Biso   1.000  H
  C101     1.0000 0.49332  0.87628  0.44992  Biso   1.000  C
  S26      1.0000 0.47762  0.85877  0.18063  Biso   1.000  S
  C102     1.0000 0.37537  0.03975  0.14423  Biso   1.000  C
  C103     1.0000 0.60731  0.93004  0.45098  Biso   1.000  C
  H93      1.0000 0.51801  0.81403  0.45498  Biso   1.000  H
  H94      1.0000 0.44402  0.86900  0.50368  Biso   1.000  H
  C104     1.0000 0.57952  0.94442  0.12519  Biso   1.000  C
  S27      1.0000 0.50289  0.06072  0.07873  Biso   1.000  S
  C105     1.0000 0.29328  0.12806  0.14242  Biso   1.000  C
  C106     1.0000 0.69771  0.87439  0.52079  Biso   1.000  C
  H95      1.0000 0.65396  0.94101  0.39672  Biso   1.000  H
  H96      1.0000 0.58301  0.99703  0.45142  Biso   1.000  H
  C107     1.0000 0.70258  0.92582  0.12238  Biso   1.000  C
  H97      1.0000 0.22755  0.10931  0.18263  Biso   1.000  H
  H98      1.0000 0.25761  0.15818  0.08623  Biso   1.000  H
  H99      1.0000 0.34145  0.17458  0.15672  Biso   1.000  H
  S28      1.0000 0.83151  0.93856  0.52834  Biso   1.000  S
  H100     1.0000 0.71899  0.80998  0.51329  Biso   1.000  H
  H101     1.0000 0.66104  0.86303  0.57698  Biso   1.000  H
  C108     1.0000 0.76752  0.83110  0.16995  Biso   1.000  C
  C109     1.0000 0.78557  0.00207  0.08042  Biso   1.000  C
  C110     1.0000 0.88317  0.97233  0.42513  Biso   1.000  C
  C111     1.0000 0.73196  0.74049  0.17183  Biso   1.000  C
  C112     1.0000 0.87342  0.83599  0.21510  Biso   1.000  C
  C113     1.0000 0.76560  0.06711  0.00044  Biso   1.000  C
  C114     1.0000 0.89231  0.00575  0.12569  Biso   1.000  C
  S29      1.0000 0.92917  0.87806  0.38299  Biso   1.000  S
  C115     1.0000 0.89387  0.06381  0.37612  Biso   1.000  C
  C116     1.0000 0.80082  0.65591  0.21822  Biso   1.000  C
  H102     1.0000 0.66098  0.73697  0.14042  Biso   1.000  H
  C117     1.0000 0.94208  0.75080  0.26036  Biso   1.000  C
  C118     1.0000 0.90743  0.93400  0.21091  Biso   1.000  C
  C119     1.0000 0.85058  0.13383  0.96391  Biso   1.000  C
  H103     1.0000 0.69500  0.06700  0.96872  Biso   1.000  H
  C120     1.0000 0.97591  0.07360  0.08872  Biso   1.000  C
  C121     1.0000 0.93267  0.95820  0.27928  Biso   1.000  C
  S30      1.0000 0.95815  0.07717  0.27728  Biso   1.000  S
  C122     1.0000 0.85853  0.15600  0.39491  Biso   1.000  C
  H104     1.0000 0.77498  0.59697  0.21703  Biso   1.000  H
  C123     1.0000 0.90497  0.66110  0.26111  Biso   1.000  C
  H105     1.0000 0.02199  0.75411  0.28740  Biso   1.000  H
  H106     1.0000 0.83703  0.18102  0.90822  Biso   1.000  H
  C124     1.0000 0.95641  0.13679  0.00818  Biso   1.000  C
  H107     1.0000 0.04699  0.07197  0.11738  Biso   1.000  H
  H108     1.0000 0.83295  0.14057  0.45298  Biso   1.000  H
  H109     1.0000 0.79040  0.19177  0.35770  Biso   1.000  H
  H110     1.0000 0.92850  0.19601  0.38592  Biso   1.000  H
  H111     1.0000 0.95202  0.60398  0.29239  Biso   1.000  H
  H112     1.0000 0.01801  0.18137  0.98464  Biso   1.000  H
