data_image0
_cell_length_a       19.231
_cell_length_b       9.52
_cell_length_c       30.089
_cell_angle_alpha    90
_cell_angle_beta     90
_cell_angle_gamma    90

_symmetry_space_group_name_H-M    "P 1"
_symmetry_int_tables_number       1

loop_
  _symmetry_equiv_pos_as_xyz
  'x, y, z'

loop_
  _atom_site_label
  _atom_site_occupancy
  _atom_site_fract_x
  _atom_site_fract_y
  _atom_site_fract_z
  _atom_site_thermal_displace_type
  _atom_site_B_iso_or_equiv
  _atom_site_type_symbol
  C1       1.0000 0.50538  0.44359  0.57931  Biso   1.000  C
  C2       1.0000 0.43451  0.41292  0.57390  Biso   1.000  C
  H1       1.0000 0.52800  0.50042  0.55881  Biso   1.000  H
  C3       1.0000 0.54199  0.39013  0.61461  Biso   1.000  C
  C4       1.0000 0.40180  0.32290  0.60351  Biso   1.000  C
  H2       1.0000 0.40970  0.45315  0.55070  Biso   1.000  H
  C5       1.0000 0.50991  0.30305  0.64479  Biso   1.000  C
  H3       1.0000 0.58858  0.41271  0.61820  Biso   1.000  H
  C6       1.0000 0.32801  0.28151  0.59919  Biso   1.000  C
  C7       1.0000 0.43882  0.26702  0.64060  Biso   1.000  C
  H4       1.0000 0.53570  0.26670  0.66818  Biso   1.000  H
  C8       1.0000 0.29952  0.24359  0.55941  Biso   1.000  C
  C9       1.0000 0.29042  0.26775  0.64200  Biso   1.000  C
  C10      1.0000 0.40211  0.17405  0.67147  Biso   1.000  C
  S1       1.0000 0.34148  0.24265  0.50919  Biso   1.000  S
  S2       1.0000 0.21398  0.17216  0.55602  Biso   1.000  S
  C11      1.0000 0.22209  0.30641  0.64871  Biso   1.000  C
  C12      1.0000 0.32921  0.21649  0.67889  Biso   1.000  C
  C13      1.0000 0.42910  0.05546  0.68922  Biso   1.000  C
  C14      1.0000 0.28688  0.11849  0.48310  Biso   1.000  C
  C15      1.0000 0.22823  0.08645  0.50520  Biso   1.000  C
  C16      1.0000 0.19001  0.29170  0.68959  Biso   1.000  C
  H5       1.0000 0.19682  0.34359  0.62521  Biso   1.000  H
  C17      1.0000 0.29551  0.20189  0.72060  Biso   1.000  C
  S3       1.0000 0.38230  0.93739  0.72282  Biso   1.000  S
  S4       1.0000 0.51375  0.99128  0.67845  Biso   1.000  S
  C18      1.0000 0.31059  0.06355  0.43906  Biso   1.000  C
  S5       1.0000 0.16562  0.96261  0.48819  Biso   1.000  S
  C19      1.0000 0.22531  0.23887  0.72492  Biso   1.000  C
  H6       1.0000 0.14367  0.31786  0.69311  Biso   1.000  H
  H7       1.0000 0.32011  0.16775  0.74489  Biso   1.000  H
  C20      1.0000 0.43310  0.78855  0.70989  Biso   1.000  C
  C21      1.0000 0.49472  0.81292  0.69009  Biso   1.000  C
  H8       1.0000 0.30971  0.13792  0.41759  Biso   1.000  H
  H9       1.0000 0.35718  0.02805  0.44169  Biso   1.000  H
  H10      1.0000 0.28022  0.98939  0.42969  Biso   1.000  H
  C22      1.0000 0.19921  0.80347  0.51361  Biso   1.000  C
  H11      1.0000 0.20321  0.22731  0.75210  Biso   1.000  H
  S6       1.0000 0.40190  0.62532  0.72701  Biso   1.000  S
  C23      1.0000 0.54672  0.70651  0.67560  Biso   1.000  C
  C24      1.0000 0.19443  0.79622  0.56300  Biso   1.000  C
  H12      1.0000 0.24762  0.79307  0.50510  Biso   1.000  H
  H13      1.0000 0.17399  0.72405  0.50141  Biso   1.000  H
  C25      1.0000 0.31512  0.63109  0.70262  Biso   1.000  C
  H14      1.0000 0.53039  0.61418  0.68311  Biso   1.000  H
  H15      1.0000 0.55359  0.71282  0.64409  Biso   1.000  H
  H16      1.0000 0.58998  0.72395  0.69058  Biso   1.000  H
  C26      1.0000 0.24492  0.69895  0.58320  Biso   1.000  C
  H17      1.0000 0.14778  0.76786  0.57131  Biso   1.000  H
  H18      1.0000 0.20238  0.88939  0.57489  Biso   1.000  H
  C27      1.0000 0.31428  0.65315  0.65300  Biso   1.000  C
  H19      1.0000 0.28922  0.70651  0.71661  Biso   1.000  H
  H20      1.0000 0.29140  0.54380  0.70930  Biso   1.000  H
  C28      1.0000 0.24211  0.68834  0.63532  Biso   1.000  C
  H21      1.0000 0.23701  0.60630  0.57081  Biso   1.000  H
  H22      1.0000 0.29140  0.72763  0.57450  Biso   1.000  H
  H23      1.0000 0.34580  0.72910  0.64558  Biso   1.000  H
  H24      1.0000 0.33129  0.56880  0.63861  Biso   1.000  H
  H25      1.0000 0.20961  0.61534  0.64379  Biso   1.000  H
  H26      1.0000 0.22609  0.77626  0.64781  Biso   1.000  H
  S7       1.0000 0.40762  0.75273  0.50015  Biso   1.000  S
  C29      1.0000 0.45281  0.75032  0.44681  Biso   1.000  C
  C30      1.0000 0.46269  0.87710  0.52557  Biso   1.000  C
  C31      1.0000 0.42171  0.71071  0.40859  Biso   1.000  C
  S8       1.0000 0.53580  0.82174  0.45292  Biso   1.000  S
  C32      1.0000 0.52010  0.91145  0.50381  Biso   1.000  C
  C33      1.0000 0.43679  0.93393  0.56991  Biso   1.000  C
  C34      1.0000 0.34840  0.66901  0.40503  Biso   1.000  C
  C35      1.0000 0.45889  0.71975  0.36591  Biso   1.000  C
  S9       1.0000 0.58400  0.03172  0.52095  Biso   1.000  S
  H27      1.0000 0.43419  0.85882  0.59111  Biso   1.000  H
  H28      1.0000 0.39150  0.97437  0.56609  Biso   1.000  H
  H29      1.0000 0.46841  0.00441  0.58051  Biso   1.000  H
  C36      1.0000 0.31012  0.72426  0.36881  Biso   1.000  C
  C37      1.0000 0.31402  0.57994  0.43468  Biso   1.000  C
  C38      1.0000 0.42249  0.77185  0.32919  Biso   1.000  C
  C39      1.0000 0.52821  0.67794  0.36036  Biso   1.000  C
  C40      1.0000 0.55140  0.18960  0.49520  Biso   1.000  C
  C41      1.0000 0.24112  0.68834  0.36369  Biso   1.000  C
  C42      1.0000 0.34902  0.81429  0.33690  Biso   1.000  C
  C43      1.0000 0.24539  0.54758  0.42989  Biso   1.000  C
  H30      1.0000 0.33852  0.54149  0.45841  Biso   1.000  H
  C44      1.0000 0.45447  0.77426  0.28841  Biso   1.000  C
  C45      1.0000 0.55910  0.68435  0.31909  Biso   1.000  C
  H31      1.0000 0.55359  0.64611  0.38469  Biso   1.000  H
  C46      1.0000 0.55478  0.19601  0.44451  Biso   1.000  C
  H32      1.0000 0.50330  0.20137  0.50410  Biso   1.000  H
  H33      1.0000 0.57730  0.26859  0.50710  Biso   1.000  H
  C47      1.0000 0.20810  0.60221  0.39460  Biso   1.000  C
  H34      1.0000 0.21679  0.72185  0.33919  Biso   1.000  H
  C48      1.0000 0.32302  0.93435  0.31978  Biso   1.000  C
  H35      1.0000 0.22349  0.48897  0.45030  Biso   1.000  H
  H36      1.0000 0.42998  0.80725  0.26378  Biso   1.000  H
  C49      1.0000 0.52109  0.73015  0.28259  Biso   1.000  C
  H37      1.0000 0.60532  0.65756  0.31570  Biso   1.000  H
  C50      1.0000 0.51048  0.30179  0.42411  Biso   1.000  C
  H38      1.0000 0.60252  0.21492  0.43591  Biso   1.000  H
  H39      1.0000 0.54251  0.10462  0.43262  Biso   1.000  H
  H40      1.0000 0.16109  0.58151  0.39131  Biso   1.000  H
  S10      1.0000 0.23774  0.99769  0.32902  Biso   1.000  S
  S11      1.0000 0.37060  0.05252  0.28628  Biso   1.000  S
  H41      1.0000 0.54121  0.73046  0.25451  Biso   1.000  H
  C51      1.0000 0.50720  0.30168  0.37429  Biso   1.000  C
  H42      1.0000 0.52608  0.39380  0.43361  Biso   1.000  H
  H43      1.0000 0.46357  0.28908  0.43531  Biso   1.000  H
  C52      1.0000 0.25698  0.17479  0.31809  Biso   1.000  C
  C53      1.0000 0.31751  0.19758  0.29871  Biso   1.000  C
  C54      1.0000 0.43789  0.33729  0.35591  Biso   1.000  C
  H44      1.0000 0.54100  0.36807  0.36289  Biso   1.000  H
  H45      1.0000 0.52020  0.20914  0.36369  Biso   1.000  H
  C55      1.0000 0.20212  0.27962  0.33202  Biso   1.000  C
  S12      1.0000 0.34902  0.36502  0.28246  Biso   1.000  S
  C56      1.0000 0.43570  0.35945  0.30619  Biso   1.000  C
  H46      1.0000 0.42192  0.42237  0.37030  Biso   1.000  H
  H47      1.0000 0.40570  0.26282  0.36349  Biso   1.000  H
  H48      1.0000 0.22100  0.37258  0.32999  Biso   1.000  H
  H49      1.0000 0.18798  0.26134  0.36199  Biso   1.000  H
  H50      1.0000 0.16250  0.27185  0.31271  Biso   1.000  H
  H51      1.0000 0.46149  0.28435  0.29200  Biso   1.000  H
  H52      1.0000 0.45910  0.44685  0.29921  Biso   1.000  H
  S13      1.0000 0.66564  0.53739  0.48819  Biso   1.000  S
  C57      1.0000 0.72820  0.41355  0.50520  Biso   1.000  C
  C58      1.0000 0.69918  0.69653  0.51361  Biso   1.000  C
  S14      1.0000 0.71395  0.32784  0.55602  Biso   1.000  S
  C59      1.0000 0.78691  0.38151  0.48310  Biso   1.000  C
  C60      1.0000 0.69440  0.70378  0.56300  Biso   1.000  C
  H53      1.0000 0.74760  0.70693  0.50510  Biso   1.000  H
  H54      1.0000 0.67402  0.77595  0.50141  Biso   1.000  H
  C61      1.0000 0.79949  0.25641  0.55941  Biso   1.000  C
  S15      1.0000 0.84151  0.25735  0.50919  Biso   1.000  S
  C62      1.0000 0.81062  0.43645  0.43906  Biso   1.000  C
  C63      1.0000 0.74489  0.80105  0.58320  Biso   1.000  C
  H55      1.0000 0.64781  0.73214  0.57131  Biso   1.000  H
  H56      1.0000 0.70241  0.61061  0.57489  Biso   1.000  H
  C64      1.0000 0.82799  0.21849  0.59919  Biso   1.000  C
  H57      1.0000 0.78020  0.51061  0.42969  Biso   1.000  H
  H58      1.0000 0.80968  0.36208  0.41759  Biso   1.000  H
  H59      1.0000 0.85721  0.47195  0.44169  Biso   1.000  H
  C65      1.0000 0.74208  0.81166  0.63532  Biso   1.000  C
  H60      1.0000 0.73699  0.89370  0.57081  Biso   1.000  H
  H61      1.0000 0.79138  0.77237  0.57450  Biso   1.000  H
  C66      1.0000 0.79039  0.23225  0.64200  Biso   1.000  C
  C67      1.0000 0.90183  0.17710  0.60351  Biso   1.000  C
  C68      1.0000 0.81431  0.84685  0.65300  Biso   1.000  C
  H62      1.0000 0.70958  0.88466  0.64379  Biso   1.000  H
  H63      1.0000 0.72612  0.72374  0.64781  Biso   1.000  H
  C69      1.0000 0.72212  0.19359  0.64871  Biso   1.000  C
  C70      1.0000 0.82918  0.28351  0.67889  Biso   1.000  C
  C71      1.0000 0.93448  0.08708  0.57390  Biso   1.000  C
  C72      1.0000 0.93880  0.23298  0.64060  Biso   1.000  C
  C73      1.0000 0.81509  0.86891  0.70262  Biso   1.000  C
  H64      1.0000 0.84582  0.77090  0.64558  Biso   1.000  H
  H65      1.0000 0.83131  0.93120  0.63861  Biso   1.000  H
  C74      1.0000 0.68998  0.20830  0.68959  Biso   1.000  C
  H66      1.0000 0.69679  0.15641  0.62521  Biso   1.000  H
  C75      1.0000 0.79549  0.29811  0.72060  Biso   1.000  C
  C76      1.0000 0.90209  0.32595  0.67147  Biso   1.000  C
  H67      1.0000 0.90968  0.04685  0.55070  Biso   1.000  H
  C77      1.0000 0.00541  0.05641  0.57931  Biso   1.000  C
  C78      1.0000 0.00988  0.19695  0.64479  Biso   1.000  C
  S16      1.0000 0.90188  0.87468  0.72701  Biso   1.000  S
  H68      1.0000 0.78919  0.79349  0.71661  Biso   1.000  H
  H69      1.0000 0.79138  0.95620  0.70930  Biso   1.000  H
  C79      1.0000 0.72529  0.26113  0.72492  Biso   1.000  C
  H70      1.0000 0.64370  0.18214  0.69311  Biso   1.000  H
  H71      1.0000 0.82008  0.33225  0.74489  Biso   1.000  H
  C80      1.0000 0.92912  0.44454  0.68922  Biso   1.000  C
  H72      1.0000 0.02798  0.99958  0.55881  Biso   1.000  H
  C81      1.0000 0.04202  0.10987  0.61461  Biso   1.000  C
  H73      1.0000 0.03572  0.23330  0.66818  Biso   1.000  H
  C82      1.0000 0.93308  0.71145  0.70989  Biso   1.000  C
  H74      1.0000 0.70319  0.27269  0.75210  Biso   1.000  H
  S17      1.0000 0.88227  0.56261  0.72282  Biso   1.000  S
  S18      1.0000 0.01373  0.50872  0.67845  Biso   1.000  S
  H75      1.0000 0.08861  0.08729  0.61820  Biso   1.000  H
  C83      1.0000 0.99470  0.68708  0.69009  Biso   1.000  C
  C84      1.0000 0.04670  0.79349  0.67560  Biso   1.000  C
  H76      1.0000 0.03042  0.88582  0.68311  Biso   1.000  H
  H77      1.0000 0.05361  0.78718  0.64409  Biso   1.000  H
  H78      1.0000 0.09001  0.77605  0.69058  Biso   1.000  H
  C85      1.0000 0.70808  0.89779  0.39460  Biso   1.000  C
  C86      1.0000 0.74110  0.81166  0.36369  Biso   1.000  C
  C87      1.0000 0.74541  0.95242  0.42989  Biso   1.000  C
  H79      1.0000 0.66112  0.91849  0.39131  Biso   1.000  H
  C88      1.0000 0.81010  0.77574  0.36881  Biso   1.000  C
  H80      1.0000 0.71681  0.77815  0.33919  Biso   1.000  H
  C89      1.0000 0.81400  0.92006  0.43468  Biso   1.000  C
  H81      1.0000 0.72352  0.01103  0.45030  Biso   1.000  H
  C90      1.0000 0.84899  0.68571  0.33690  Biso   1.000  C
  C91      1.0000 0.84842  0.83099  0.40503  Biso   1.000  C
  H82      1.0000 0.83849  0.95851  0.45841  Biso   1.000  H
  C92      1.0000 0.82299  0.56565  0.31978  Biso   1.000  C
  C93      1.0000 0.92252  0.72815  0.32919  Biso   1.000  C
  C94      1.0000 0.92169  0.78929  0.40859  Biso   1.000  C
  S19      1.0000 0.73772  0.50231  0.32902  Biso   1.000  S
  S20      1.0000 0.87063  0.44748  0.28628  Biso   1.000  S
  C95      1.0000 0.95450  0.72574  0.28841  Biso   1.000  C
  C96      1.0000 0.95892  0.78025  0.36591  Biso   1.000  C
  C97      1.0000 0.95278  0.74968  0.44681  Biso   1.000  C
  C98      1.0000 0.75701  0.32521  0.31809  Biso   1.000  C
  C99      1.0000 0.81748  0.30242  0.29871  Biso   1.000  C
  H83      1.0000 0.93001  0.69275  0.26378  Biso   1.000  H
  C100     1.0000 0.02111  0.76985  0.28259  Biso   1.000  C
  C101     1.0000 0.02818  0.82206  0.36036  Biso   1.000  C
  S21      1.0000 0.90760  0.74727  0.50015  Biso   1.000  S
  S22      1.0000 0.03578  0.67826  0.45292  Biso   1.000  S
  C102     1.0000 0.70210  0.22038  0.33202  Biso   1.000  C
  S23      1.0000 0.84905  0.13498  0.28246  Biso   1.000  S
  H84      1.0000 0.04118  0.76954  0.25451  Biso   1.000  H
  C103     1.0000 0.05912  0.81565  0.31909  Biso   1.000  C
  H85      1.0000 0.05361  0.85389  0.38469  Biso   1.000  H
  C104     1.0000 0.96272  0.62290  0.52557  Biso   1.000  C
  C105     1.0000 0.02012  0.58855  0.50381  Biso   1.000  C
  H86      1.0000 0.72102  0.12742  0.32999  Biso   1.000  H
  H87      1.0000 0.68800  0.23866  0.36199  Biso   1.000  H
  H88      1.0000 0.66252  0.22815  0.31271  Biso   1.000  H
  C106     1.0000 0.93568  0.14055  0.30619  Biso   1.000  C
  H89      1.0000 0.10530  0.84244  0.31570  Biso   1.000  H
  C107     1.0000 0.93682  0.56607  0.56991  Biso   1.000  C
  S24      1.0000 0.08403  0.46828  0.52095  Biso   1.000  S
  H90      1.0000 0.96152  0.21565  0.29200  Biso   1.000  H
  H91      1.0000 0.95908  0.05315  0.29921  Biso   1.000  H
  C108     1.0000 0.93791  0.16271  0.35591  Biso   1.000  C
  H92      1.0000 0.96838  0.49559  0.58051  Biso   1.000  H
  H93      1.0000 0.93422  0.64118  0.59111  Biso   1.000  H
  H94      1.0000 0.89148  0.52563  0.56609  Biso   1.000  H
  C109     1.0000 0.05138  0.31040  0.49520  Biso   1.000  C
  H95      1.0000 0.92190  0.07763  0.37030  Biso   1.000  H
  H96      1.0000 0.90573  0.23718  0.36349  Biso   1.000  H
  C110     1.0000 0.00718  0.19832  0.37429  Biso   1.000  C
  C111     1.0000 0.05481  0.30399  0.44451  Biso   1.000  C
  H97      1.0000 0.00328  0.29863  0.50410  Biso   1.000  H
  H98      1.0000 0.07732  0.23141  0.50710  Biso   1.000  H
  H99      1.0000 0.04098  0.13193  0.36289  Biso   1.000  H
  H100     1.0000 0.02018  0.29086  0.36369  Biso   1.000  H
  C112     1.0000 0.01050  0.19821  0.42411  Biso   1.000  C
  H101     1.0000 0.10249  0.28508  0.43591  Biso   1.000  H
  H102     1.0000 0.04248  0.39538  0.43262  Biso   1.000  H
  H103     1.0000 0.96360  0.21092  0.43531  Biso   1.000  H
  H104     1.0000 0.02610  0.10620  0.43361  Biso   1.000  H
  C113     1.0000 0.47891  0.26985  0.78261  Biso   1.000  C
  C114     1.0000 0.54553  0.22574  0.78839  Biso   1.000  C
  H105     1.0000 0.45879  0.26954  0.75449  Biso   1.000  H
  C115     1.0000 0.44090  0.31565  0.81910  Biso   1.000  C
  H106     1.0000 0.57002  0.19275  0.76380  Biso   1.000  H
  C116     1.0000 0.57751  0.22815  0.82921  Biso   1.000  C
  H107     1.0000 0.39468  0.34244  0.81571  Biso   1.000  H
  C117     1.0000 0.47179  0.32206  0.86035  Biso   1.000  C
  C118     1.0000 0.65098  0.18571  0.83692  Biso   1.000  C
  C119     1.0000 0.54111  0.28025  0.86590  Biso   1.000  C
  H108     1.0000 0.44641  0.35389  0.88471  Biso   1.000  H
  C120     1.0000 0.68988  0.27574  0.86879  Biso   1.000  C
  C121     1.0000 0.67698  0.06565  0.81977  Biso   1.000  C
  C122     1.0000 0.57829  0.28929  0.90860  Biso   1.000  C
  C123     1.0000 0.75888  0.31166  0.86370  Biso   1.000  C
  C124     1.0000 0.65160  0.33099  0.90505  Biso   1.000  C
  S25      1.0000 0.76226  0.00231  0.82901  Biso   1.000  S
  S26      1.0000 0.62940  0.94748  0.78630  Biso   1.000  S
  C125     1.0000 0.54719  0.24968  0.94679  Biso   1.000  C
  C126     1.0000 0.79190  0.39779  0.89461  Biso   1.000  C
  H109     1.0000 0.78321  0.27815  0.83921  Biso   1.000  H
  C127     1.0000 0.68598  0.42006  0.93466  Biso   1.000  C
  C128     1.0000 0.74302  0.82521  0.81811  Biso   1.000  C
  C129     1.0000 0.68249  0.80242  0.79870  Biso   1.000  C
  S27      1.0000 0.46420  0.17826  0.95291  Biso   1.000  S
  S28      1.0000 0.59238  0.24727  0.00017  Biso   1.000  S
  C130     1.0000 0.75461  0.45242  0.92991  Biso   1.000  C
  H110     1.0000 0.83891  0.41849  0.89129  Biso   1.000  H
  H111     1.0000 0.66148  0.45851  0.95839  Biso   1.000  H
  C131     1.0000 0.79788  0.72038  0.83200  Biso   1.000  C
  S29      1.0000 0.65098  0.63498  0.78245  Biso   1.000  S
  C132     1.0000 0.47990  0.08855  0.00379  Biso   1.000  C
  C133     1.0000 0.53731  0.12290  0.02556  Biso   1.000  C
  H112     1.0000 0.77651  0.51103  0.95031  Biso   1.000  H
  H113     1.0000 0.77900  0.62742  0.83000  Biso   1.000  H
  H114     1.0000 0.81202  0.73866  0.86201  Biso   1.000  H
  H115     1.0000 0.83750  0.72815  0.81269  Biso   1.000  H
  C134     1.0000 0.56430  0.64055  0.80621  Biso   1.000  C
  S30      1.0000 0.41600  0.96828  0.02094  Biso   1.000  S
  C135     1.0000 0.56321  0.06607  0.06989  Biso   1.000  C
  H116     1.0000 0.53851  0.71565  0.79198  Biso   1.000  H
  H117     1.0000 0.54090  0.55315  0.79920  Biso   1.000  H
  C136     1.0000 0.56211  0.66271  0.85589  Biso   1.000  C
  C137     1.0000 0.44860  0.81040  0.99521  Biso   1.000  C
  H118     1.0000 0.53159  0.99559  0.08049  Biso   1.000  H
  H119     1.0000 0.56581  0.14118  0.09110  Biso   1.000  H
  H120     1.0000 0.60850  0.02563  0.06610  Biso   1.000  H
  H121     1.0000 0.57808  0.57763  0.87028  Biso   1.000  H
  H122     1.0000 0.59430  0.73718  0.86350  Biso   1.000  H
  C138     1.0000 0.49280  0.69832  0.87431  Biso   1.000  C
  C139     1.0000 0.44522  0.80399  0.94450  Biso   1.000  C
  H123     1.0000 0.49670  0.79863  0.00409  Biso   1.000  H
  H124     1.0000 0.42270  0.73141  0.00711  Biso   1.000  H
  H125     1.0000 0.45900  0.63193  0.86291  Biso   1.000  H
  H126     1.0000 0.47980  0.79086  0.86370  Biso   1.000  H
  C140     1.0000 0.48952  0.69821  0.92409  Biso   1.000  C
  H127     1.0000 0.39748  0.78508  0.93589  Biso   1.000  H
  H128     1.0000 0.45749  0.89538  0.93260  Biso   1.000  H
  H129     1.0000 0.47392  0.60620  0.93360  Biso   1.000  H
  H130     1.0000 0.53643  0.71092  0.93529  Biso   1.000  H
  C141     1.0000 0.27471  0.73887  0.22490  Biso   1.000  C
  C142     1.0000 0.20451  0.70189  0.22061  Biso   1.000  C
  H131     1.0000 0.29681  0.72731  0.25209  Biso   1.000  H
  C143     1.0000 0.31002  0.79170  0.18960  Biso   1.000  C
  C144     1.0000 0.17082  0.71649  0.17890  Biso   1.000  C
  H132     1.0000 0.17992  0.66775  0.24491  Biso   1.000  H
  C145     1.0000 0.27788  0.80641  0.14869  Biso   1.000  C
  H133     1.0000 0.35630  0.81786  0.19309  Biso   1.000  H
  C146     1.0000 0.09791  0.67405  0.17149  Biso   1.000  C
  C147     1.0000 0.20961  0.76775  0.14201  Biso   1.000  C
  H134     1.0000 0.30321  0.84359  0.12520  Biso   1.000  H
  C148     1.0000 0.07088  0.55546  0.18921  Biso   1.000  C
  C149     1.0000 0.06120  0.76702  0.14062  Biso   1.000  C
  C150     1.0000 0.17201  0.78151  0.09921  Biso   1.000  C
  S31      1.0000 0.11773  0.43739  0.22281  Biso   1.000  S
  S32      1.0000 0.98627  0.49128  0.17844  Biso   1.000  S
  C151     1.0000 0.09817  0.82290  0.10353  Biso   1.000  C
  C152     1.0000 0.99012  0.80305  0.14480  Biso   1.000  C
  C153     1.0000 0.20051  0.74359  0.05939  Biso   1.000  C
  C154     1.0000 0.06692  0.28855  0.20991  Biso   1.000  C
  C155     1.0000 0.00530  0.31292  0.19010  Biso   1.000  C
  C156     1.0000 0.06552  0.91292  0.07388  Biso   1.000  C
  C157     1.0000 0.95798  0.89013  0.11459  Biso   1.000  C
  H135     1.0000 0.96428  0.76670  0.16820  Biso   1.000  H
  S33      1.0000 0.28605  0.67216  0.05603  Biso   1.000  S
  S34      1.0000 0.15849  0.74265  0.00921  Biso   1.000  S
  S35      1.0000 0.09812  0.12532  0.22699  Biso   1.000  S
  C158     1.0000 0.95330  0.20651  0.17561  Biso   1.000  C
  H136     1.0000 0.09032  0.95315  0.05072  Biso   1.000  H
  C159     1.0000 0.99459  0.94359  0.07930  Biso   1.000  C
  H137     1.0000 0.91139  0.91271  0.11822  Biso   1.000  H
  C160     1.0000 0.27180  0.58645  0.00518  Biso   1.000  C
  C161     1.0000 0.21309  0.61849  0.98308  Biso   1.000  C
  C162     1.0000 0.18491  0.13109  0.20260  Biso   1.000  C
  H138     1.0000 0.96958  0.11418  0.18309  Biso   1.000  H
  H139     1.0000 0.94639  0.21282  0.14411  Biso   1.000  H
  H140     1.0000 0.90999  0.22395  0.19060  Biso   1.000  H
  H141     1.0000 0.97202  0.00042  0.05879  Biso   1.000  H
  S36      1.0000 0.33436  0.46261  0.98820  Biso   1.000  S
  C163     1.0000 0.18938  0.56355  0.93905  Biso   1.000  C
  H142     1.0000 0.21081  0.20651  0.21659  Biso   1.000  H
  H143     1.0000 0.20862  0.04380  0.20931  Biso   1.000  H
  C164     1.0000 0.18569  0.15315  0.15301  Biso   1.000  C
  C165     1.0000 0.30082  0.30347  0.01359  Biso   1.000  C
  H144     1.0000 0.21980  0.48939  0.92971  Biso   1.000  H
  H145     1.0000 0.19032  0.63792  0.91761  Biso   1.000  H
  H146     1.0000 0.14279  0.52805  0.94171  Biso   1.000  H
  H147     1.0000 0.15418  0.22910  0.14560  Biso   1.000  H
  H148     1.0000 0.16869  0.06880  0.13859  Biso   1.000  H
  C166     1.0000 0.25792  0.18834  0.13530  Biso   1.000  C
  C167     1.0000 0.30560  0.29622  0.06301  Biso   1.000  C
  H149     1.0000 0.25240  0.29307  0.00508  Biso   1.000  H
  H150     1.0000 0.32598  0.22405  0.00140  Biso   1.000  H
  H151     1.0000 0.29042  0.11534  0.14381  Biso   1.000  H
  H152     1.0000 0.27388  0.27626  0.14779  Biso   1.000  H
  C168     1.0000 0.25511  0.19895  0.08319  Biso   1.000  C
  H153     1.0000 0.35219  0.26786  0.07129  Biso   1.000  H
  H154     1.0000 0.29759  0.38939  0.07491  Biso   1.000  H
  H155     1.0000 0.26301  0.10630  0.07079  Biso   1.000  H
  H156     1.0000 0.20862  0.22763  0.07451  Biso   1.000  H
  C169     1.0000 0.70449  0.79811  0.22061  Biso   1.000  C
  C170     1.0000 0.67079  0.78351  0.17890  Biso   1.000  C
  H157     1.0000 0.67989  0.83225  0.24491  Biso   1.000  H
  C171     1.0000 0.77469  0.76113  0.22490  Biso   1.000  C
  C172     1.0000 0.59789  0.82595  0.17149  Biso   1.000  C
  C173     1.0000 0.70958  0.73225  0.14201  Biso   1.000  C
  C174     1.0000 0.80999  0.70830  0.18960  Biso   1.000  C
  H158     1.0000 0.79679  0.77269  0.25209  Biso   1.000  H
  C175     1.0000 0.56118  0.73298  0.14062  Biso   1.000  C
  C176     1.0000 0.57090  0.94454  0.18921  Biso   1.000  C
  C177     1.0000 0.67199  0.71849  0.09921  Biso   1.000  C
  C178     1.0000 0.77791  0.69359  0.14869  Biso   1.000  C
  H159     1.0000 0.85633  0.68214  0.19309  Biso   1.000  H
  C179     1.0000 0.49009  0.69695  0.14480  Biso   1.000  C
  C180     1.0000 0.59820  0.67710  0.10353  Biso   1.000  C
  S37      1.0000 0.61770  0.06261  0.22281  Biso   1.000  S
  S38      1.0000 0.48625  0.00872  0.17844  Biso   1.000  S
  C181     1.0000 0.70048  0.75641  0.05939  Biso   1.000  C
  H160     1.0000 0.80318  0.65641  0.12520  Biso   1.000  H
  C182     1.0000 0.45801  0.60987  0.11459  Biso   1.000  C
  H161     1.0000 0.46430  0.73330  0.16820  Biso   1.000  H
  C183     1.0000 0.56549  0.58708  0.07388  Biso   1.000  C
  C184     1.0000 0.56690  0.21145  0.20991  Biso   1.000  C
  C185     1.0000 0.50528  0.18708  0.19010  Biso   1.000  C
  S39      1.0000 0.78602  0.82784  0.05603  Biso   1.000  S
  S40      1.0000 0.65852  0.75735  0.00921  Biso   1.000  S
  C186     1.0000 0.49462  0.55641  0.07930  Biso   1.000  C
  H162     1.0000 0.41142  0.58729  0.11822  Biso   1.000  H
  H163     1.0000 0.59030  0.54685  0.05072  Biso   1.000  H
  S41      1.0000 0.59810  0.37468  0.22699  Biso   1.000  S
  C187     1.0000 0.45328  0.29349  0.17561  Biso   1.000  C
  C188     1.0000 0.77177  0.91355  0.00518  Biso   1.000  C
  C189     1.0000 0.71312  0.88151  0.98308  Biso   1.000  C
  H164     1.0000 0.47200  0.49958  0.05879  Biso   1.000  H
  C190     1.0000 0.68488  0.36891  0.20260  Biso   1.000  C
  H165     1.0000 0.46961  0.38582  0.18309  Biso   1.000  H
  H166     1.0000 0.44641  0.28718  0.14411  Biso   1.000  H
  H167     1.0000 0.41002  0.27605  0.19060  Biso   1.000  H
  S42      1.0000 0.83438  0.03739  0.98820  Biso   1.000  S
  C191     1.0000 0.68941  0.93645  0.93905  Biso   1.000  C
  H168     1.0000 0.71078  0.29349  0.21659  Biso   1.000  H
  H169     1.0000 0.70860  0.45620  0.20931  Biso   1.000  H
  C192     1.0000 0.68572  0.34685  0.15301  Biso   1.000  C
  C193     1.0000 0.80079  0.19653  0.01359  Biso   1.000  C
  H170     1.0000 0.69029  0.86208  0.91761  Biso   1.000  H
  H171     1.0000 0.64282  0.97195  0.94171  Biso   1.000  H
  H172     1.0000 0.71978  0.01061  0.92971  Biso   1.000  H
  H173     1.0000 0.65420  0.27090  0.14560  Biso   1.000  H
  H174     1.0000 0.66871  0.43120  0.13859  Biso   1.000  H
  C194     1.0000 0.75789  0.31166  0.13530  Biso   1.000  C
  C195     1.0000 0.80557  0.20378  0.06301  Biso   1.000  C
  H175     1.0000 0.75238  0.20693  0.00508  Biso   1.000  H
  H176     1.0000 0.82601  0.27595  0.00140  Biso   1.000  H
  C196     1.0000 0.75508  0.30105  0.08319  Biso   1.000  C
  H177     1.0000 0.79039  0.38466  0.14381  Biso   1.000  H
  H178     1.0000 0.77391  0.22374  0.14779  Biso   1.000  H
  H179     1.0000 0.85222  0.23214  0.07129  Biso   1.000  H
  H180     1.0000 0.79762  0.11061  0.07491  Biso   1.000  H
  H181     1.0000 0.76299  0.39370  0.07079  Biso   1.000  H
  H182     1.0000 0.70860  0.27237  0.07451  Biso   1.000  H
  S43      1.0000 0.26228  0.49769  0.82901  Biso   1.000  S
  C197     1.0000 0.17701  0.43435  0.81977  Biso   1.000  C
  C198     1.0000 0.24299  0.67479  0.81811  Biso   1.000  C
  S44      1.0000 0.12937  0.55252  0.78630  Biso   1.000  S
  C199     1.0000 0.15101  0.31429  0.83692  Biso   1.000  C
  C200     1.0000 0.18252  0.69758  0.79870  Biso   1.000  C
  C201     1.0000 0.29790  0.77962  0.83200  Biso   1.000  C
  C202     1.0000 0.07748  0.27185  0.82921  Biso   1.000  C
  C203     1.0000 0.18990  0.22426  0.86879  Biso   1.000  C
  S45      1.0000 0.15095  0.86502  0.78245  Biso   1.000  S
  H183     1.0000 0.27898  0.87258  0.83000  Biso   1.000  H
  H184     1.0000 0.31200  0.76134  0.86201  Biso   1.000  H
  H185     1.0000 0.33748  0.77185  0.81269  Biso   1.000  H
  C204     1.0000 0.04550  0.27426  0.78839  Biso   1.000  C
  C205     1.0000 0.04108  0.21975  0.86590  Biso   1.000  C
  C206     1.0000 0.25890  0.18834  0.86370  Biso   1.000  C
  C207     1.0000 0.15158  0.16901  0.90505  Biso   1.000  C
  C208     1.0000 0.06432  0.85945  0.80621  Biso   1.000  C
  H186     1.0000 0.06999  0.30725  0.76380  Biso   1.000  H
  C209     1.0000 0.97889  0.23015  0.78261  Biso   1.000  C
  C210     1.0000 0.07831  0.21071  0.90860  Biso   1.000  C
  C211     1.0000 0.97182  0.17794  0.86035  Biso   1.000  C
  C212     1.0000 0.29192  0.10221  0.89461  Biso   1.000  C
  H187     1.0000 0.28319  0.22185  0.83921  Biso   1.000  H
  C213     1.0000 0.18600  0.07994  0.93466  Biso   1.000  C
  H188     1.0000 0.03848  0.78435  0.79198  Biso   1.000  H
  H189     1.0000 0.04092  0.94685  0.79920  Biso   1.000  H
  C214     1.0000 0.06209  0.83729  0.85589  Biso   1.000  C
  H190     1.0000 0.95882  0.23046  0.75449  Biso   1.000  H
  C215     1.0000 0.94088  0.18435  0.81910  Biso   1.000  C
  C216     1.0000 0.04722  0.25032  0.94679  Biso   1.000  C
  H191     1.0000 0.94639  0.14611  0.88471  Biso   1.000  H
  C217     1.0000 0.25459  0.04758  0.92991  Biso   1.000  C
  H192     1.0000 0.33888  0.08151  0.89129  Biso   1.000  H
  H193     1.0000 0.16151  0.04149  0.95839  Biso   1.000  H
  H194     1.0000 0.07810  0.92237  0.87028  Biso   1.000  H
  H195     1.0000 0.09427  0.76282  0.86350  Biso   1.000  H
  C218     1.0000 0.99282  0.80168  0.87431  Biso   1.000  C
  H196     1.0000 0.89470  0.15756  0.81571  Biso   1.000  H
  S46      1.0000 0.96422  0.32174  0.95291  Biso   1.000  S
  S47      1.0000 0.09240  0.25273  0.00017  Biso   1.000  S
  H197     1.0000 0.27648  0.98897  0.95031  Biso   1.000  H
  H198     1.0000 0.95902  0.86807  0.86291  Biso   1.000  H
  H199     1.0000 0.97982  0.70914  0.86370  Biso   1.000  H
  C219     1.0000 0.98950  0.80179  0.92409  Biso   1.000  C
  C220     1.0000 0.97988  0.41145  0.00379  Biso   1.000  C
  C221     1.0000 0.03728  0.37710  0.02556  Biso   1.000  C
  H200     1.0000 0.03640  0.78908  0.93529  Biso   1.000  H
  H201     1.0000 0.97390  0.89380  0.93360  Biso   1.000  H
  C222     1.0000 0.94519  0.69601  0.94450  Biso   1.000  C
  S48      1.0000 0.91597  0.53172  0.02094  Biso   1.000  S
  C223     1.0000 0.06318  0.43393  0.06989  Biso   1.000  C
  H202     1.0000 0.89751  0.71492  0.93589  Biso   1.000  H
  H203     1.0000 0.95752  0.60462  0.93260  Biso   1.000  H
  C224     1.0000 0.94862  0.68960  0.99521  Biso   1.000  C
  H204     1.0000 0.03162  0.50441  0.08049  Biso   1.000  H
  H205     1.0000 0.06578  0.35882  0.09110  Biso   1.000  H
  H206     1.0000 0.10852  0.47437  0.06610  Biso   1.000  H
  H207     1.0000 0.99672  0.70137  0.00409  Biso   1.000  H
  H208     1.0000 0.92268  0.76859  0.00711  Biso   1.000  H
