data_image0
_cell_length_a       21.17
_cell_length_b       12.005
_cell_length_c       17.928
_cell_angle_alpha    90
_cell_angle_beta     99.38
_cell_angle_gamma    90

_symmetry_space_group_name_H-M    "P 1"
_symmetry_int_tables_number       1

loop_
  _symmetry_equiv_pos_as_xyz
  'x, y, z'

loop_
  _atom_site_label
  _atom_site_occupancy
  _atom_site_fract_x
  _atom_site_fract_y
  _atom_site_fract_z
  _atom_site_thermal_displace_type
  _atom_site_B_iso_or_equiv
  _atom_site_type_symbol
  C1       1.0000 0.54636  0.30279  0.42588  Biso   1.000  C
  O1       1.0000 0.53228  0.18701  0.40841  Biso   1.000  O
  H1       1.0000 0.55338  0.31320  0.48088  Biso   1.000  H
  H2       1.0000 0.51030  0.34902  0.40281  Biso   1.000  H
  H3       1.0000 0.58499  0.32461  0.40597  Biso   1.000  H
  C2       1.0000 0.52177  0.16010  0.33191  Biso   1.000  C
  C3       1.0000 0.51620  0.24148  0.27549  Biso   1.000  C
  C4       1.0000 0.51530  0.04948  0.31450  Biso   1.000  C
  H4       1.0000 0.51988  0.31812  0.28878  Biso   1.000  H
  C5       1.0000 0.50507  0.21041  0.19962  Biso   1.000  C
  C6       1.0000 0.50149  0.01891  0.23773  Biso   1.000  C
  C7       1.0000 0.52580  0.96043  0.37341  Biso   1.000  C
  C8       1.0000 0.50480  0.30246  0.13953  Biso   1.000  C
  C9       1.0000 0.49799  0.10037  0.18119  Biso   1.000  C
  H5       1.0000 0.49461  0.94277  0.22410  Biso   1.000  H
  H6       1.0000 0.50055  0.89388  0.35447  Biso   1.000  H
  H7       1.0000 0.50998  0.98701  0.41932  Biso   1.000  H
  C10      1.0000 0.59776  0.92670  0.39512  Biso   1.000  C
  C11      1.0000 0.57231  0.33278  0.12929  Biso   1.000  C
  H8       1.0000 0.48058  0.27630  0.09068  Biso   1.000  H
  H9       1.0000 0.48300  0.36935  0.15507  Biso   1.000  H
  O2       1.0000 0.48598  0.07339  0.10448  Biso   1.000  O
  C12      1.0000 0.63806  0.97493  0.45341  Biso   1.000  C
  C13      1.0000 0.62188  0.84840  0.35221  Biso   1.000  C
  C14      1.0000 0.60640  0.41175  0.17611  Biso   1.000  C
  C15      1.0000 0.60169  0.28047  0.07491  Biso   1.000  C
  C16      1.0000 0.45837  0.96818  0.08548  Biso   1.000  C
  O3       1.0000 0.61937  0.05681  0.50073  Biso   1.000  O
  C17      1.0000 0.70309  0.94311  0.46901  Biso   1.000  C
  H10      1.0000 0.59411  0.81641  0.31083  Biso   1.000  H
  C18      1.0000 0.68476  0.81358  0.36600  Biso   1.000  C
  O4       1.0000 0.57640  0.45923  0.23010  Biso   1.000  O
  C19      1.0000 0.66847  0.44057  0.16582  Biso   1.000  C
  C20      1.0000 0.66421  0.30479  0.06682  Biso   1.000  C
  H11      1.0000 0.57841  0.22691  0.04240  Biso   1.000  H
  H12      1.0000 0.45181  0.95868  0.03042  Biso   1.000  H
  H13      1.0000 0.41718  0.96310  0.10329  Biso   1.000  H
  H14      1.0000 0.48709  0.90970  0.10939  Biso   1.000  H
  C21      1.0000 0.72737  0.86164  0.42689  Biso   1.000  C
  H15      1.0000 0.73079  0.97818  0.50921  Biso   1.000  H
  O5       1.0000 0.70597  0.73444  0.32010  Biso   1.000  O
  C22      1.0000 0.61620  0.52170  0.28850  Biso   1.000  C
  H16      1.0000 0.69029  0.49788  0.19629  Biso   1.000  H
  C23      1.0000 0.70018  0.38751  0.11149  Biso   1.000  C
  O6       1.0000 0.69600  0.25856  0.01447  Biso   1.000  O
  C24      1.0000 0.79708  0.82699  0.44532  Biso   1.000  C
  H17      1.0000 0.58986  0.55085  0.32423  Biso   1.000  H
  H18      1.0000 0.63630  0.58367  0.26571  Biso   1.000  H
  H19      1.0000 0.64948  0.47280  0.31541  Biso   1.000  H
  C25      1.0000 0.76541  0.41416  0.10431  Biso   1.000  C
  C26      1.0000 0.66746  0.16543  0.97264  Biso   1.000  C
  H20      1.0000 0.81167  0.83440  0.50039  Biso   1.000  H
  H21      1.0000 0.80087  0.74761  0.43170  Biso   1.000  H
  C27      1.0000 0.84016  0.89579  0.40388  Biso   1.000  C
  C28      1.0000 0.81591  0.33578  0.14982  Biso   1.000  C
  H22      1.0000 0.77462  0.49171  0.12172  Biso   1.000  H
  H23      1.0000 0.76980  0.41066  0.05020  Biso   1.000  H
  H24      1.0000 0.66251  0.10421  0.00729  Biso   1.000  H
  H25      1.0000 0.69505  0.14119  0.93674  Biso   1.000  H
  H26      1.0000 0.62547  0.18659  0.94494  Biso   1.000  H
  C29      1.0000 0.86548  0.99550  0.43571  Biso   1.000  C
  C30      1.0000 0.85367  0.86739  0.33378  Biso   1.000  C
  C31      1.0000 0.83998  0.35710  0.22569  Biso   1.000  C
  C32      1.0000 0.83751  0.24032  0.11708  Biso   1.000  C
  C33      1.0000 0.90229  0.06439  0.39817  Biso   1.000  C
  H27      1.0000 0.85720  0.01658  0.48422  Biso   1.000  H
  O7       1.0000 0.82710  0.76718  0.30382  Biso   1.000  O
  C34      1.0000 0.88958  0.93628  0.29409  Biso   1.000  C
  O8       1.0000 0.81439  0.45156  0.25452  Biso   1.000  O
  C35      1.0000 0.88268  0.28846  0.26537  Biso   1.000  C
  C36      1.0000 0.88128  0.16968  0.15767  Biso   1.000  C
  H28      1.0000 0.82140  0.22382  0.06569  Biso   1.000  H
  O9       1.0000 0.93005  0.16310  0.42650  Biso   1.000  O
  C37      1.0000 0.91456  0.03474  0.32519  Biso   1.000  C
  C38      1.0000 0.83710  0.73536  0.22772  Biso   1.000  C
  H29      1.0000 0.89690  0.91495  0.24519  Biso   1.000  H
  C39      1.0000 0.83661  0.47572  0.33333  Biso   1.000  C
  H30      1.0000 0.89820  0.30562  0.31688  Biso   1.000  H
  C40      1.0000 0.90559  0.19142  0.23388  Biso   1.000  C
  O10      1.0000 0.90349  0.07272  0.12929  Biso   1.000  O
  C41      1.0000 0.91458  0.20017  0.49750  Biso   1.000  C
  C42      1.0000 0.95076  0.11312  0.28019  Biso   1.000  C
  H31      1.0000 0.81588  0.66397  0.21393  Biso   1.000  H
  H32      1.0000 0.88298  0.72820  0.22682  Biso   1.000  H
  H33      1.0000 0.81887  0.79267  0.19148  Biso   1.000  H
  H34      1.0000 0.81580  0.54369  0.34752  Biso   1.000  H
  H35      1.0000 0.88309  0.48646  0.34158  Biso   1.000  H
  H36      1.0000 0.82596  0.41341  0.36431  Biso   1.000  H
  C43      1.0000 0.88148  0.05248  0.05269  Biso   1.000  C
  H37      1.0000 0.93669  0.27055  0.51192  Biso   1.000  H
  H38      1.0000 0.92817  0.14386  0.53640  Biso   1.000  H
  H39      1.0000 0.86818  0.21133  0.49259  Biso   1.000  H
  H40      1.0000 0.98269  0.15602  0.31541  Biso   1.000  H
  H41      1.0000 0.97397  0.06897  0.24672  Biso   1.000  H
  H42      1.0000 0.89470  0.11379  0.02250  Biso   1.000  H
  H43      1.0000 0.83470  0.04706  0.04398  Biso   1.000  H
  H44      1.0000 0.89979  0.98251  0.03782  Biso   1.000  H
  C44      1.0000 0.45359  0.30279  0.57411  Biso   1.000  C
  O11      1.0000 0.46767  0.18701  0.59158  Biso   1.000  O
  H45      1.0000 0.44656  0.31320  0.51910  Biso   1.000  H
  H46      1.0000 0.48965  0.34902  0.59717  Biso   1.000  H
  H47      1.0000 0.41496  0.32461  0.59401  Biso   1.000  H
  C45      1.0000 0.47819  0.16010  0.66813  Biso   1.000  C
  C46      1.0000 0.48464  0.04948  0.68548  Biso   1.000  C
  C47      1.0000 0.48375  0.24148  0.72449  Biso   1.000  C
  C48      1.0000 0.47415  0.96043  0.62657  Biso   1.000  C
  C49      1.0000 0.49846  0.01891  0.76231  Biso   1.000  C
  H48      1.0000 0.48007  0.31812  0.71121  Biso   1.000  H
  C50      1.0000 0.49484  0.21041  0.80042  Biso   1.000  C
  C51      1.0000 0.40215  0.92670  0.60492  Biso   1.000  C
  H49      1.0000 0.49935  0.89388  0.64551  Biso   1.000  H
  H50      1.0000 0.48998  0.98701  0.58072  Biso   1.000  H
  C52      1.0000 0.50196  0.10037  0.81879  Biso   1.000  C
  H51      1.0000 0.50534  0.94277  0.77588  Biso   1.000  H
  C53      1.0000 0.49515  0.30246  0.86051  Biso   1.000  C
  C54      1.0000 0.36188  0.97493  0.54658  Biso   1.000  C
  C55      1.0000 0.37807  0.84840  0.64777  Biso   1.000  C
  O12      1.0000 0.51396  0.07339  0.89551  Biso   1.000  O
  C56      1.0000 0.42764  0.33278  0.87069  Biso   1.000  C
  H52      1.0000 0.51936  0.27630  0.90930  Biso   1.000  H
  H53      1.0000 0.51695  0.36935  0.84491  Biso   1.000  H
  O13      1.0000 0.38058  0.05681  0.49931  Biso   1.000  O
  C57      1.0000 0.29686  0.94311  0.53097  Biso   1.000  C
  H54      1.0000 0.40585  0.81641  0.68921  Biso   1.000  H
  C58      1.0000 0.31514  0.81358  0.63398  Biso   1.000  C
  C59      1.0000 0.54153  0.96818  0.91450  Biso   1.000  C
  C60      1.0000 0.39354  0.41175  0.82388  Biso   1.000  C
  C61      1.0000 0.39825  0.28047  0.92508  Biso   1.000  C
  C62      1.0000 0.27258  0.86164  0.57309  Biso   1.000  C
  H55      1.0000 0.26916  0.97818  0.49078  Biso   1.000  H
  O14      1.0000 0.29393  0.73444  0.67988  Biso   1.000  O
  H56      1.0000 0.54814  0.95868  0.96962  Biso   1.000  H
  H57      1.0000 0.58276  0.96310  0.89670  Biso   1.000  H
  H58      1.0000 0.51286  0.90970  0.89059  Biso   1.000  H
  O15      1.0000 0.42355  0.45923  0.76989  Biso   1.000  O
  C63      1.0000 0.33144  0.44057  0.83422  Biso   1.000  C
  C64      1.0000 0.33575  0.30479  0.93322  Biso   1.000  C
  H59      1.0000 0.42154  0.22691  0.95758  Biso   1.000  H
  C65      1.0000 0.20287  0.82699  0.55472  Biso   1.000  C
  C66      1.0000 0.38375  0.52170  0.71149  Biso   1.000  C
  H60      1.0000 0.30965  0.49788  0.80370  Biso   1.000  H
  C67      1.0000 0.29977  0.38751  0.88850  Biso   1.000  C
  O16      1.0000 0.30395  0.25856  0.98551  Biso   1.000  O
  H61      1.0000 0.18828  0.83440  0.49960  Biso   1.000  H
  H62      1.0000 0.19908  0.74761  0.56829  Biso   1.000  H
  C68      1.0000 0.15974  0.89579  0.59610  Biso   1.000  C
  H63      1.0000 0.41005  0.55085  0.67581  Biso   1.000  H
  H64      1.0000 0.36366  0.58367  0.73433  Biso   1.000  H
  H65      1.0000 0.35046  0.47280  0.68458  Biso   1.000  H
  C69      1.0000 0.23454  0.41416  0.89568  Biso   1.000  C
  C70      1.0000 0.33250  0.16543  0.02740  Biso   1.000  C
  C71      1.0000 0.13447  0.99550  0.56427  Biso   1.000  C
  C72      1.0000 0.14627  0.86739  0.66620  Biso   1.000  C
  C73      1.0000 0.18405  0.33578  0.85022  Biso   1.000  C
  H66      1.0000 0.22534  0.49171  0.87832  Biso   1.000  H
  H67      1.0000 0.23015  0.41066  0.94978  Biso   1.000  H
  H68      1.0000 0.33744  0.10421  0.99269  Biso   1.000  H
  H69      1.0000 0.30491  0.14119  0.06330  Biso   1.000  H
  H70      1.0000 0.37449  0.18659  0.05511  Biso   1.000  H
  C74      1.0000 0.09766  0.06439  0.60181  Biso   1.000  C
  H71      1.0000 0.14276  0.01658  0.51582  Biso   1.000  H
  O17      1.0000 0.17285  0.76718  0.69622  Biso   1.000  O
  C75      1.0000 0.11037  0.93628  0.70589  Biso   1.000  C
  C76      1.0000 0.15996  0.35710  0.77430  Biso   1.000  C
  C77      1.0000 0.16244  0.24032  0.88290  Biso   1.000  C
  O18      1.0000 0.06985  0.16310  0.57349  Biso   1.000  O
  C78      1.0000 0.08534  0.03474  0.67480  Biso   1.000  C
  C79      1.0000 0.16286  0.73536  0.77232  Biso   1.000  C
  H72      1.0000 0.10304  0.91495  0.75479  Biso   1.000  H
  C80      1.0000 0.11726  0.28846  0.73461  Biso   1.000  C
  O19      1.0000 0.18556  0.45156  0.74552  Biso   1.000  O
  C81      1.0000 0.11867  0.16968  0.84231  Biso   1.000  C
  H73      1.0000 0.17855  0.22382  0.93429  Biso   1.000  H
  C82      1.0000 0.08537  0.20017  0.50248  Biso   1.000  C
  C83      1.0000 0.04914  0.11312  0.71980  Biso   1.000  C
  H74      1.0000 0.18403  0.66397  0.78611  Biso   1.000  H
  H75      1.0000 0.11697  0.72820  0.77322  Biso   1.000  H
  H76      1.0000 0.18103  0.79267  0.80850  Biso   1.000  H
  C84      1.0000 0.09435  0.19142  0.76610  Biso   1.000  C
  H77      1.0000 0.10175  0.30562  0.68311  Biso   1.000  H
  C85      1.0000 0.16335  0.47572  0.66671  Biso   1.000  C
  O20      1.0000 0.09646  0.07272  0.87069  Biso   1.000  O
  H78      1.0000 0.06326  0.27055  0.48812  Biso   1.000  H
  H79      1.0000 0.07178  0.14386  0.46358  Biso   1.000  H
  H80      1.0000 0.13177  0.21133  0.50740  Biso   1.000  H
  H81      1.0000 0.01726  0.15602  0.68458  Biso   1.000  H
  H82      1.0000 0.02594  0.06897  0.75332  Biso   1.000  H
  H83      1.0000 0.18416  0.54369  0.65252  Biso   1.000  H
  H84      1.0000 0.11685  0.48646  0.65840  Biso   1.000  H
  H85      1.0000 0.17394  0.41341  0.63567  Biso   1.000  H
  C86      1.0000 0.11842  0.05248  0.94729  Biso   1.000  C
  H86      1.0000 0.10525  0.11379  0.97748  Biso   1.000  H
  H87      1.0000 0.16525  0.04706  0.95600  Biso   1.000  H
  H88      1.0000 0.10017  0.98251  0.96222  Biso   1.000  H
  C87      1.0000 0.63447  0.49546  0.56427  Biso   1.000  C
  C88      1.0000 0.59766  0.56435  0.60181  Biso   1.000  C
  H89      1.0000 0.64276  0.51662  0.51582  Biso   1.000  H
  C89      1.0000 0.65974  0.39575  0.59610  Biso   1.000  C
  O21      1.0000 0.56985  0.66306  0.57349  Biso   1.000  O
  C90      1.0000 0.58534  0.53469  0.67480  Biso   1.000  C
  C91      1.0000 0.70287  0.32703  0.55472  Biso   1.000  C
  C92      1.0000 0.64627  0.36735  0.66620  Biso   1.000  C
  C93      1.0000 0.58537  0.70021  0.50248  Biso   1.000  C
  C94      1.0000 0.61037  0.43632  0.70589  Biso   1.000  C
  C95      1.0000 0.54914  0.61308  0.71980  Biso   1.000  C
  C96      1.0000 0.77258  0.36168  0.57309  Biso   1.000  C
  H90      1.0000 0.68828  0.33436  0.49960  Biso   1.000  H
  H91      1.0000 0.69908  0.24756  0.56829  Biso   1.000  H
  O22      1.0000 0.67285  0.26722  0.69622  Biso   1.000  O
  H92      1.0000 0.56326  0.77060  0.48812  Biso   1.000  H
  H93      1.0000 0.57178  0.64390  0.46358  Biso   1.000  H
  H94      1.0000 0.63177  0.71129  0.50740  Biso   1.000  H
  H95      1.0000 0.60304  0.41499  0.75479  Biso   1.000  H
  H96      1.0000 0.51726  0.65598  0.68458  Biso   1.000  H
  H97      1.0000 0.52594  0.56901  0.75332  Biso   1.000  H
  C97      1.0000 0.59435  0.69138  0.76610  Biso   1.000  C
  C98      1.0000 0.81514  0.31362  0.63398  Biso   1.000  C
  C99      1.0000 0.79686  0.44307  0.53097  Biso   1.000  C
  C100     1.0000 0.66286  0.23540  0.77232  Biso   1.000  C
  C101     1.0000 0.61726  0.78850  0.73461  Biso   1.000  C
  C102     1.0000 0.61867  0.66964  0.84231  Biso   1.000  C
  O23      1.0000 0.79393  0.23449  0.67988  Biso   1.000  O
  C103     1.0000 0.87807  0.34835  0.64777  Biso   1.000  C
  C104     1.0000 0.86188  0.47497  0.54658  Biso   1.000  C
  H98      1.0000 0.76916  0.47822  0.49078  Biso   1.000  H
  H99      1.0000 0.68403  0.16401  0.78611  Biso   1.000  H
  H100     1.0000 0.61697  0.22815  0.77322  Biso   1.000  H
  H101     1.0000 0.68103  0.29271  0.80850  Biso   1.000  H
  C105     1.0000 0.65996  0.85706  0.77430  Biso   1.000  C
  H102     1.0000 0.60175  0.80558  0.68311  Biso   1.000  H
  O24      1.0000 0.59646  0.57268  0.87069  Biso   1.000  O
  C106     1.0000 0.66244  0.74027  0.88290  Biso   1.000  C
  C107     1.0000 0.90215  0.42666  0.60492  Biso   1.000  C
  H103     1.0000 0.90585  0.31637  0.68921  Biso   1.000  H
  O25      1.0000 0.88058  0.55677  0.49931  Biso   1.000  O
  O26      1.0000 0.68556  0.95160  0.74552  Biso   1.000  O
  C108     1.0000 0.68405  0.83574  0.85022  Biso   1.000  C
  C109     1.0000 0.61842  0.55252  0.94729  Biso   1.000  C
  H104     1.0000 0.67855  0.72378  0.93429  Biso   1.000  H
  C110     1.0000 0.97415  0.46047  0.62657  Biso   1.000  C
  C111     1.0000 0.66335  0.97568  0.66671  Biso   1.000  C
  C112     1.0000 0.73454  0.91420  0.89568  Biso   1.000  C
  H105     1.0000 0.60017  0.48247  0.96222  Biso   1.000  H
  H106     1.0000 0.60525  0.61374  0.97748  Biso   1.000  H
  H107     1.0000 0.66525  0.54711  0.95600  Biso   1.000  H
  H108     1.0000 0.99935  0.39392  0.64551  Biso   1.000  H
  H109     1.0000 0.98998  0.48696  0.58072  Biso   1.000  H
  C113     1.0000 0.98464  0.54952  0.68548  Biso   1.000  C
  H110     1.0000 0.61685  0.98651  0.65840  Biso   1.000  H
  H111     1.0000 0.67394  0.91337  0.63567  Biso   1.000  H
  H112     1.0000 0.68416  0.04373  0.65252  Biso   1.000  H
  H113     1.0000 0.72534  0.99167  0.87832  Biso   1.000  H
  H114     1.0000 0.73015  0.91070  0.94978  Biso   1.000  H
  C114     1.0000 0.79977  0.88746  0.88850  Biso   1.000  C
  C115     1.0000 0.97819  0.66006  0.66813  Biso   1.000  C
  C116     1.0000 0.99846  0.51887  0.76231  Biso   1.000  C
  C117     1.0000 0.83144  0.94061  0.83422  Biso   1.000  C
  C118     1.0000 0.83575  0.80475  0.93322  Biso   1.000  C
  O27      1.0000 0.96767  0.68696  0.59158  Biso   1.000  O
  C119     1.0000 0.98375  0.74144  0.72449  Biso   1.000  C
  C120     1.0000 0.00196  0.60042  0.81879  Biso   1.000  C
  H115     1.0000 0.00534  0.44282  0.77588  Biso   1.000  H
  C121     1.0000 0.89354  0.91179  0.82388  Biso   1.000  C
  H116     1.0000 0.80965  0.99783  0.80370  Biso   1.000  H
  O28      1.0000 0.80395  0.75860  0.98551  Biso   1.000  O
  C122     1.0000 0.89825  0.78051  0.92508  Biso   1.000  C
  C123     1.0000 0.95359  0.80275  0.57411  Biso   1.000  C
  H117     1.0000 0.98007  0.81808  0.71121  Biso   1.000  H
  C124     1.0000 0.99484  0.71037  0.80042  Biso   1.000  C
  O29      1.0000 0.01396  0.57334  0.89551  Biso   1.000  O
  O30      1.0000 0.92355  0.95918  0.76989  Biso   1.000  O
  C125     1.0000 0.92764  0.83274  0.87069  Biso   1.000  C
  C126     1.0000 0.83250  0.66539  0.02740  Biso   1.000  C
  H118     1.0000 0.92154  0.72686  0.95758  Biso   1.000  H
  H119     1.0000 0.94656  0.81316  0.51910  Biso   1.000  H
  H120     1.0000 0.98965  0.84898  0.59717  Biso   1.000  H
  H121     1.0000 0.91496  0.82457  0.59401  Biso   1.000  H
  C127     1.0000 0.99515  0.80250  0.86051  Biso   1.000  C
  C128     1.0000 0.04153  0.46822  0.91450  Biso   1.000  C
  C129     1.0000 0.88375  0.02166  0.71149  Biso   1.000  C
  H122     1.0000 0.83744  0.60416  0.99269  Biso   1.000  H
  H123     1.0000 0.80491  0.64115  0.06330  Biso   1.000  H
  H124     1.0000 0.87449  0.68655  0.05511  Biso   1.000  H
  H125     1.0000 0.01936  0.77626  0.90930  Biso   1.000  H
  H126     1.0000 0.01695  0.86939  0.84491  Biso   1.000  H
  H127     1.0000 0.04814  0.45873  0.96962  Biso   1.000  H
  H128     1.0000 0.08276  0.46306  0.89670  Biso   1.000  H
  H129     1.0000 0.01286  0.40966  0.89059  Biso   1.000  H
  H130     1.0000 0.85046  0.97276  0.68458  Biso   1.000  H
  H131     1.0000 0.91005  0.05090  0.67581  Biso   1.000  H
  H132     1.0000 0.86366  0.08372  0.73433  Biso   1.000  H
  C130     1.0000 0.36548  0.49546  0.43571  Biso   1.000  C
  C131     1.0000 0.34016  0.39575  0.40388  Biso   1.000  C
  C132     1.0000 0.40229  0.56435  0.39817  Biso   1.000  C
  H133     1.0000 0.35720  0.51662  0.48422  Biso   1.000  H
  C133     1.0000 0.35367  0.36735  0.33378  Biso   1.000  C
  C134     1.0000 0.29708  0.32703  0.44532  Biso   1.000  C
  C135     1.0000 0.41456  0.53469  0.32519  Biso   1.000  C
  O31      1.0000 0.43005  0.66306  0.42650  Biso   1.000  O
  O32      1.0000 0.32710  0.26722  0.30382  Biso   1.000  O
  C136     1.0000 0.38958  0.43632  0.29409  Biso   1.000  C
  C137     1.0000 0.22737  0.36168  0.42689  Biso   1.000  C
  H134     1.0000 0.31167  0.33436  0.50039  Biso   1.000  H
  H135     1.0000 0.30087  0.24756  0.43170  Biso   1.000  H
  C138     1.0000 0.45076  0.61308  0.28019  Biso   1.000  C
  C139     1.0000 0.41458  0.70021  0.49750  Biso   1.000  C
  C140     1.0000 0.33710  0.23540  0.22772  Biso   1.000  C
  H136     1.0000 0.39690  0.41499  0.24519  Biso   1.000  H
  C141     1.0000 0.18476  0.31362  0.36600  Biso   1.000  C
  C142     1.0000 0.20309  0.44307  0.46901  Biso   1.000  C
  H137     1.0000 0.48269  0.65598  0.31541  Biso   1.000  H
  H138     1.0000 0.47397  0.56901  0.24672  Biso   1.000  H
  C143     1.0000 0.40559  0.69138  0.23388  Biso   1.000  C
  H139     1.0000 0.43669  0.77060  0.51192  Biso   1.000  H
  H140     1.0000 0.42817  0.64390  0.53640  Biso   1.000  H
  H141     1.0000 0.36818  0.71129  0.49259  Biso   1.000  H
  H142     1.0000 0.31588  0.16401  0.21393  Biso   1.000  H
  H143     1.0000 0.38298  0.22815  0.22682  Biso   1.000  H
  H144     1.0000 0.31887  0.29271  0.19148  Biso   1.000  H
  O33      1.0000 0.20597  0.23449  0.32010  Biso   1.000  O
  C144     1.0000 0.12188  0.34835  0.35221  Biso   1.000  C
  C145     1.0000 0.13806  0.47497  0.45341  Biso   1.000  C
  H145     1.0000 0.23079  0.47822  0.50921  Biso   1.000  H
  C146     1.0000 0.38268  0.78850  0.26537  Biso   1.000  C
  C147     1.0000 0.38128  0.66964  0.15767  Biso   1.000  C
  C148     1.0000 0.09776  0.42666  0.39512  Biso   1.000  C
  H146     1.0000 0.09411  0.31637  0.31083  Biso   1.000  H
  O34      1.0000 0.11937  0.55677  0.50073  Biso   1.000  O
  C149     1.0000 0.33998  0.85706  0.22569  Biso   1.000  C
  H147     1.0000 0.39820  0.80558  0.31688  Biso   1.000  H
  O35      1.0000 0.40349  0.57268  0.12929  Biso   1.000  O
  C150     1.0000 0.33751  0.74027  0.11708  Biso   1.000  C
  C151     1.0000 0.02580  0.46047  0.37341  Biso   1.000  C
  O36      1.0000 0.31439  0.95160  0.25452  Biso   1.000  O
  C152     1.0000 0.31591  0.83574  0.14982  Biso   1.000  C
  C153     1.0000 0.38148  0.55252  0.05269  Biso   1.000  C
  H148     1.0000 0.32140  0.72378  0.06569  Biso   1.000  H
  H149     1.0000 0.00055  0.39392  0.35447  Biso   1.000  H
  H150     1.0000 0.00998  0.48696  0.41932  Biso   1.000  H
  C154     1.0000 0.01530  0.54952  0.31450  Biso   1.000  C
  C155     1.0000 0.33661  0.97568  0.33333  Biso   1.000  C
  C156     1.0000 0.26541  0.91420  0.10431  Biso   1.000  C
  H151     1.0000 0.39979  0.48247  0.03782  Biso   1.000  H
  H152     1.0000 0.39470  0.61374  0.02250  Biso   1.000  H
  H153     1.0000 0.33470  0.54711  0.04398  Biso   1.000  H
  C157     1.0000 0.02177  0.66006  0.33191  Biso   1.000  C
  C158     1.0000 0.00149  0.51887  0.23773  Biso   1.000  C
  H154     1.0000 0.38309  0.98651  0.34158  Biso   1.000  H
  H155     1.0000 0.32596  0.91337  0.36431  Biso   1.000  H
  H156     1.0000 0.31580  0.04373  0.34752  Biso   1.000  H
  H157     1.0000 0.27462  0.99167  0.12172  Biso   1.000  H
  H158     1.0000 0.26980  0.91070  0.05020  Biso   1.000  H
  C159     1.0000 0.20018  0.88746  0.11149  Biso   1.000  C
  O37      1.0000 0.03228  0.68696  0.40841  Biso   1.000  O
  C160     1.0000 0.01620  0.74144  0.27549  Biso   1.000  C
  C161     1.0000 0.99799  0.60042  0.18119  Biso   1.000  C
  H159     1.0000 0.99461  0.44282  0.22410  Biso   1.000  H
  C162     1.0000 0.16847  0.94061  0.16582  Biso   1.000  C
  C163     1.0000 0.16421  0.80475  0.06682  Biso   1.000  C
  C164     1.0000 0.04636  0.80275  0.42588  Biso   1.000  C
  H160     1.0000 0.01988  0.81808  0.28878  Biso   1.000  H
  C165     1.0000 0.00507  0.71037  0.19962  Biso   1.000  C
  O38      1.0000 0.98598  0.57334  0.10448  Biso   1.000  O
  C166     1.0000 0.10640  0.91179  0.17611  Biso   1.000  C
  H161     1.0000 0.19029  0.99783  0.19629  Biso   1.000  H
  O39      1.0000 0.19600  0.75860  0.01447  Biso   1.000  O
  C167     1.0000 0.10169  0.78051  0.07491  Biso   1.000  C
  H162     1.0000 0.05338  0.81316  0.48088  Biso   1.000  H
  H163     1.0000 0.01030  0.84898  0.40281  Biso   1.000  H
  H164     1.0000 0.08499  0.82457  0.40597  Biso   1.000  H
  C168     1.0000 0.00480  0.80250  0.13953  Biso   1.000  C
  C169     1.0000 0.95837  0.46822  0.08548  Biso   1.000  C
  O40      1.0000 0.07640  0.95918  0.23010  Biso   1.000  O
  C170     1.0000 0.07231  0.83274  0.12929  Biso   1.000  C
  C171     1.0000 0.16746  0.66539  0.97264  Biso   1.000  C
  H165     1.0000 0.07841  0.72686  0.04240  Biso   1.000  H
  H166     1.0000 0.98058  0.77626  0.09068  Biso   1.000  H
  H167     1.0000 0.98300  0.86939  0.15507  Biso   1.000  H
  H168     1.0000 0.95181  0.45873  0.03042  Biso   1.000  H
  H169     1.0000 0.91718  0.46306  0.10329  Biso   1.000  H
  H170     1.0000 0.98709  0.40966  0.10939  Biso   1.000  H
  C172     1.0000 0.11620  0.02166  0.28850  Biso   1.000  C
  H171     1.0000 0.16251  0.60416  0.00729  Biso   1.000  H
  H172     1.0000 0.19505  0.64115  0.93674  Biso   1.000  H
  H173     1.0000 0.12547  0.68655  0.94494  Biso   1.000  H
  H174     1.0000 0.14948  0.97276  0.31541  Biso   1.000  H
  H175     1.0000 0.08986  0.05090  0.32423  Biso   1.000  H
  H176     1.0000 0.13630  0.08372  0.26571  Biso   1.000  H
  Ne1      1.0000 0.21082  0.63193  0.26338  Biso   1.000  Ne
  He1      1.0000 0.23104  0.80567  0.45644  Biso   1.000  He
  He2      1.0000 0.15125  0.38696  0.13003  Biso   1.000  He
  Ar1      1.0000 0.20547  0.62201  0.26544  Biso   1.000  Ar
  Ne2      1.0000 0.28912  0.13194  0.73662  Biso   1.000  Ne
  He3      1.0000 0.34093  0.91630  0.85366  Biso   1.000  He
  He4      1.0000 0.27138  0.27126  0.56889  Biso   1.000  He
  Ar2      1.0000 0.29448  0.12202  0.73459  Biso   1.000  Ar
  Ne3      1.0000 0.71082  0.13194  0.26338  Biso   1.000  Ne
  He5      1.0000 0.73104  0.30571  0.45644  Biso   1.000  He
  He6      1.0000 0.65126  0.88694  0.13001  Biso   1.000  He
  Ar3      1.0000 0.70547  0.12204  0.26543  Biso   1.000  Ar
  Ne4      1.0000 0.78912  0.63193  0.73662  Biso   1.000  Ne
  He7      1.0000 0.84098  0.41629  0.85366  Biso   1.000  He
  He8      1.0000 0.77138  0.77121  0.56888  Biso   1.000  He
  Ar4      1.0000 0.79450  0.62200  0.73459  Biso   1.000  Ar
