data_image0
_cell_length_a       17.558
_cell_length_b       17.558
_cell_length_c       28.692
_cell_angle_alpha    90
_cell_angle_beta     90
_cell_angle_gamma    120

_symmetry_space_group_name_H-M    "P 1"
_symmetry_int_tables_number       1

loop_
  _symmetry_equiv_pos_as_xyz
  'x, y, z'

loop_
  _atom_site_label
  _atom_site_occupancy
  _atom_site_fract_x
  _atom_site_fract_y
  _atom_site_fract_z
  _atom_site_thermal_displace_type
  _atom_site_B_iso_or_equiv
  _atom_site_type_symbol
  C1       1.0000 0.70348  0.58215  0.48571  Biso   1.000  C
  C2       1.0000 0.77399  0.63240  0.44779  Biso   1.000  C
  H1       1.0000 0.71420  0.62181  0.51251  Biso   1.000  H
  H2       1.0000 0.64458  0.56459  0.47288  Biso   1.000  H
  C3       1.0000 0.70477  0.50146  0.50230  Biso   1.000  C
  N1       1.0000 0.77479  0.71315  0.43611  Biso   1.000  N
  H3       1.0000 0.75980  0.59478  0.41932  Biso   1.000  H
  C4       1.0000 0.86475  0.65456  0.46619  Biso   1.000  C
  H4       1.0000 0.69080  0.46009  0.47599  Biso   1.000  H
  H5       1.0000 0.65957  0.47167  0.52670  Biso   1.000  H
  C5       1.0000 0.79605  0.52717  0.52210  Biso   1.000  C
  C6       1.0000 0.75676  0.72335  0.39551  Biso   1.000  C
  N2       1.0000 0.92786  0.69329  0.42789  Biso   1.000  N
  C7       1.0000 0.86308  0.57308  0.48289  Biso   1.000  C
  H6       1.0000 0.88217  0.69770  0.49240  Biso   1.000  H
  H7       1.0000 0.80999  0.56735  0.54900  Biso   1.000  H
  H8       1.0000 0.79728  0.47417  0.53259  Biso   1.000  H
  C8       1.0000 0.75240  0.80266  0.38150  Biso   1.000  C
  H9       1.0000 0.74560  0.67948  0.37289  Biso   1.000  H
  C9       1.0000 0.98336  0.77478  0.43270  Biso   1.000  C
  H10      1.0000 0.92238  0.58846  0.49421  Biso   1.000  H
  H11      1.0000 0.84836  0.53178  0.45640  Biso   1.000  H
  C10      1.0000 0.72120  0.80496  0.33731  Biso   1.000  C
  C11      1.0000 0.77559  0.87217  0.41221  Biso   1.000  C
  H12      1.0000 0.97839  0.80529  0.45870  Biso   1.000  H
  C12      1.0000 0.05609  0.82377  0.39872  Biso   1.000  C
  C13      1.0000 0.71324  0.87665  0.32378  Biso   1.000  C
  H13      1.0000 0.70537  0.75748  0.31629  Biso   1.000  H
  C14      1.0000 0.76769  0.94386  0.39872  Biso   1.000  C
  H14      1.0000 0.79688  0.87066  0.44239  Biso   1.000  H
  C15      1.0000 0.05382  0.79030  0.35449  Biso   1.000  C
  C16      1.0000 0.12778  0.90335  0.41221  Biso   1.000  C
  C17      1.0000 0.67616  0.87869  0.27670  Biso   1.000  C
  C18      1.0000 0.73649  0.94616  0.35449  Biso   1.000  C
  C19      1.0000 0.79136  0.01659  0.43270  Biso   1.000  C
  C20      1.0000 0.12333  0.83660  0.32378  Biso   1.000  C
  H15      1.0000 0.00482  0.73591  0.34522  Biso   1.000  H
  H16      1.0000 0.12928  0.92617  0.44239  Biso   1.000  H
  C21      1.0000 0.19729  0.94965  0.38150  Biso   1.000  C
  N3       1.0000 0.65086  0.81726  0.24840  Biso   1.000  N
  H17      1.0000 0.67209  0.92886  0.26830  Biso   1.000  H
  H18      1.0000 0.73109  0.99515  0.34522  Biso   1.000  H
  N4       1.0000 0.76540  0.07210  0.42789  Biso   1.000  N
  H19      1.0000 0.82689  0.02159  0.45870  Biso   1.000  H
  C22      1.0000 0.12131  0.79747  0.27670  Biso   1.000  C
  C23      1.0000 0.19501  0.91617  0.33731  Biso   1.000  C
  C24      1.0000 0.27660  0.03343  0.39551  Biso   1.000  C
  C25      1.0000 0.61335  0.82745  0.20319  Biso   1.000  C
  C26      1.0000 0.78979  0.13523  0.46619  Biso   1.000  C
  N5       1.0000 0.18270  0.83357  0.24840  Biso   1.000  N
  H20      1.0000 0.07111  0.74321  0.26830  Biso   1.000  H
  H21      1.0000 0.24247  0.94787  0.31629  Biso   1.000  H
  N6       1.0000 0.28683  0.06164  0.43611  Biso   1.000  N
  H22      1.0000 0.32050  0.06612  0.37289  Biso   1.000  H
  C27      1.0000 0.51596  0.75866  0.19880  Biso   1.000  C
  C28      1.0000 0.66627  0.81825  0.16350  Biso   1.000  C
  H23      1.0000 0.62008  0.88750  0.20201  Biso   1.000  H
  C29      1.0000 0.85835  0.22599  0.44779  Biso   1.000  C
  C30      1.0000 0.71000  0.13694  0.48289  Biso   1.000  C
  H24      1.0000 0.81548  0.11781  0.49240  Biso   1.000  H
  C31      1.0000 0.17248  0.78589  0.20319  Biso   1.000  C
  C32      1.0000 0.36759  0.14161  0.44779  Biso   1.000  C
  C33      1.0000 0.48098  0.76478  0.15178  Biso   1.000  C
  H25      1.0000 0.50828  0.69921  0.20281  Biso   1.000  H
  H26      1.0000 0.48230  0.76787  0.22362  Biso   1.000  H
  C34      1.0000 0.62837  0.82298  0.11630  Biso   1.000  C
  N7       1.0000 0.75626  0.89059  0.16639  Biso   1.000  N
  H27      1.0000 0.66526  0.76110  0.16639  Biso   1.000  H
  N8       1.0000 0.93838  0.22520  0.43611  Biso   1.000  N
  H28      1.0000 0.83499  0.24019  0.41932  Biso   1.000  H
  C35      1.0000 0.87868  0.29649  0.48571  Biso   1.000  C
  C36      1.0000 0.73106  0.20389  0.52210  Biso   1.000  C
  H29      1.0000 0.66610  0.07762  0.49421  Biso   1.000  H
  H30      1.0000 0.68339  0.15161  0.45640  Biso   1.000  H
  C37      1.0000 0.18170  0.84797  0.16350  Biso   1.000  C
  C38      1.0000 0.24127  0.75728  0.19880  Biso   1.000  C
  H31      1.0000 0.11249  0.73256  0.20201  Biso   1.000  H
  C39      1.0000 0.34539  0.21021  0.46619  Biso   1.000  C
  H32      1.0000 0.40521  0.16503  0.41932  Biso   1.000  H
  C40      1.0000 0.41781  0.12129  0.48571  Biso   1.000  C
  C41      1.0000 0.52995  0.75406  0.11261  Biso   1.000  C
  H33      1.0000 0.41830  0.71881  0.14959  Biso   1.000  H
  H34      1.0000 0.48446  0.82265  0.14900  Biso   1.000  H
  H35      1.0000 0.66100  0.81305  0.09121  Biso   1.000  H
  H36      1.0000 0.63632  0.88250  0.11209  Biso   1.000  H
  C42      1.0000 0.81777  0.86928  0.16820  Biso   1.000  C
  C43      1.0000 0.96658  0.24322  0.39551  Biso   1.000  C
  H37      1.0000 0.90758  0.28584  0.51251  Biso   1.000  H
  H38      1.0000 0.91999  0.35542  0.47288  Biso   1.000  H
  C44      1.0000 0.79673  0.29524  0.50230  Biso   1.000  C
  H39      1.0000 0.75738  0.19002  0.54900  Biso   1.000  H
  H40      1.0000 0.67688  0.20271  0.53259  Biso   1.000  H
  N9       1.0000 0.10939  0.86566  0.16639  Biso   1.000  N
  H41      1.0000 0.23892  0.90420  0.16639  Biso   1.000  H
  C45      1.0000 0.17697  0.80536  0.11630  Biso   1.000  C
  C46      1.0000 0.23518  0.71618  0.15178  Biso   1.000  C
  H42      1.0000 0.30078  0.80911  0.20281  Biso   1.000  H
  H43      1.0000 0.23213  0.71440  0.22362  Biso   1.000  H
  N10      1.0000 0.30667  0.23460  0.42789  Biso   1.000  N
  C47      1.0000 0.42689  0.29004  0.48289  Biso   1.000  C
  H44      1.0000 0.30229  0.18449  0.49240  Biso   1.000  H
  H45      1.0000 0.37820  0.09242  0.51251  Biso   1.000  H
  H46      1.0000 0.43537  0.07999  0.47288  Biso   1.000  H
  C48      1.0000 0.49851  0.20330  0.50230  Biso   1.000  C
  H47      1.0000 0.50649  0.76136  0.08260  Biso   1.000  H
  H48      1.0000 0.52227  0.69428  0.11341  Biso   1.000  H
  C49      1.0000 0.91108  0.93754  0.16851  Biso   1.000  C
  H49      1.0000 0.80198  0.80911  0.16939  Biso   1.000  H
  H50      1.0000 0.93390  0.25440  0.37289  Biso   1.000  H
  C50      1.0000 0.05034  0.24763  0.38150  Biso   1.000  C
  H51      1.0000 0.76930  0.30918  0.47599  Biso   1.000  H
  H52      1.0000 0.81208  0.34042  0.52670  Biso   1.000  H
  C51      1.0000 0.13068  0.94846  0.16820  Biso   1.000  C
  H53      1.0000 0.18691  0.84791  0.09121  Biso   1.000  H
  H54      1.0000 0.11753  0.75380  0.11209  Biso   1.000  H
  C52      1.0000 0.24590  0.77589  0.11261  Biso   1.000  C
  H55      1.0000 0.28117  0.69948  0.14959  Biso   1.000  H
  H56      1.0000 0.17729  0.66179  0.14900  Biso   1.000  H
  C53      1.0000 0.22523  0.20863  0.43270  Biso   1.000  C
  C54      1.0000 0.47283  0.26893  0.52210  Biso   1.000  C
  H57      1.0000 0.41152  0.33391  0.49421  Biso   1.000  H
  H58      1.0000 0.46819  0.31661  0.45640  Biso   1.000  H
  H59      1.0000 0.53990  0.23072  0.47599  Biso   1.000  H
  H60      1.0000 0.52829  0.18791  0.52670  Biso   1.000  H
  C55      1.0000 0.97437  0.91150  0.16890  Biso   1.000  C
  C56      1.0000 0.93705  0.02560  0.16890  Biso   1.000  C
  C57      1.0000 0.09660  0.22441  0.41221  Biso   1.000  C
  C58      1.0000 0.08381  0.27880  0.33731  Biso   1.000  C
  C59      1.0000 0.06236  0.97345  0.16851  Biso   1.000  C
  H61      1.0000 0.19087  0.99285  0.16939  Biso   1.000  H
  H62      1.0000 0.23857  0.74505  0.08260  Biso   1.000  H
  H63      1.0000 0.30572  0.82798  0.11341  Biso   1.000  H
  C60      1.0000 0.17618  0.23230  0.39872  Biso   1.000  C
  H64      1.0000 0.19471  0.17311  0.45870  Biso   1.000  H
  H65      1.0000 0.43263  0.24263  0.54900  Biso   1.000  H
  H66      1.0000 0.52578  0.32312  0.53259  Biso   1.000  H
  H67      1.0000 0.95655  0.85067  0.16949  Biso   1.000  H
  H68      1.0000 0.89408  0.04343  0.16949  Biso   1.000  H
  C61      1.0000 0.02653  0.08894  0.16851  Biso   1.000  C
  H69      1.0000 0.07382  0.20310  0.44239  Biso   1.000  H
  C62      1.0000 0.16339  0.28669  0.32378  Biso   1.000  C
  H70      1.0000 0.05212  0.29458  0.31629  Biso   1.000  H
  C63      1.0000 0.08851  0.06289  0.16890  Biso   1.000  C
  C64      1.0000 0.20974  0.26354  0.35449  Biso   1.000  C
  C65      1.0000 0.05151  0.18219  0.16820  Biso   1.000  C
  C66      1.0000 0.20250  0.32378  0.27670  Biso   1.000  C
  H71      1.0000 0.14932  0.10590  0.16949  Biso   1.000  H
  H72      1.0000 0.26409  0.26893  0.34522  Biso   1.000  H
  N11      1.0000 0.13435  0.24375  0.16639  Biso   1.000  N
  H73      1.0000 0.00710  0.19804  0.16939  Biso   1.000  H
  N12      1.0000 0.16641  0.34910  0.24840  Biso   1.000  N
  H74      1.0000 0.25680  0.32793  0.26830  Biso   1.000  H
  C67      1.0000 0.15199  0.33371  0.16350  Biso   1.000  C
  C68      1.0000 0.21408  0.38659  0.20319  Biso   1.000  C
  H75      1.0000 0.09582  0.33470  0.16639  Biso   1.000  H
  C69      1.0000 0.19462  0.37159  0.11630  Biso   1.000  C
  C70      1.0000 0.24268  0.48399  0.19880  Biso   1.000  C
  H76      1.0000 0.26740  0.37988  0.20201  Biso   1.000  H
  H77      1.0000 0.15209  0.33904  0.09121  Biso   1.000  H
  H78      1.0000 0.24621  0.36370  0.11209  Biso   1.000  H
  C71      1.0000 0.22411  0.46998  0.11261  Biso   1.000  C
  C72      1.0000 0.28384  0.51904  0.15178  Biso   1.000  C
  H79      1.0000 0.19088  0.49168  0.20281  Biso   1.000  H
  H80      1.0000 0.28563  0.51772  0.22362  Biso   1.000  H
  H81      1.0000 0.25491  0.49352  0.08260  Biso   1.000  H
  H82      1.0000 0.17200  0.47774  0.11341  Biso   1.000  H
  H83      1.0000 0.30048  0.58171  0.14959  Biso   1.000  H
  H84      1.0000 0.33822  0.51549  0.14900  Biso   1.000  H
  C73      1.0000 0.58218  0.70349  0.51429  Biso   1.000  C
  C74      1.0000 0.50151  0.70480  0.49770  Biso   1.000  C
  C75      1.0000 0.63241  0.77399  0.55221  Biso   1.000  C
  H85      1.0000 0.62177  0.71421  0.48749  Biso   1.000  H
  H86      1.0000 0.56456  0.64456  0.52712  Biso   1.000  H
  H87      1.0000 0.46010  0.69079  0.52401  Biso   1.000  H
  H88      1.0000 0.47165  0.65956  0.47330  Biso   1.000  H
  C76      1.0000 0.52721  0.79608  0.47790  Biso   1.000  C
  N13      1.0000 0.71317  0.77478  0.56389  Biso   1.000  N
  H89      1.0000 0.59478  0.75978  0.58072  Biso   1.000  H
  C77      1.0000 0.65455  0.86474  0.53381  Biso   1.000  C
  H90      1.0000 0.56736  0.80996  0.45100  Biso   1.000  H
  H91      1.0000 0.47416  0.79727  0.46741  Biso   1.000  H
  C78      1.0000 0.57308  0.86310  0.51711  Biso   1.000  C
  C79      1.0000 0.72335  0.75676  0.60449  Biso   1.000  C
  N14      1.0000 0.69329  0.92788  0.57211  Biso   1.000  N
  H92      1.0000 0.69766  0.88217  0.50760  Biso   1.000  H
  H93      1.0000 0.58847  0.92235  0.50579  Biso   1.000  H
  H94      1.0000 0.53177  0.84837  0.54360  Biso   1.000  H
  C80      1.0000 0.80265  0.75235  0.61850  Biso   1.000  C
  H95      1.0000 0.67949  0.74558  0.62711  Biso   1.000  H
  C81      1.0000 0.77481  0.98338  0.56730  Biso   1.000  C
  C82      1.0000 0.87218  0.77557  0.58779  Biso   1.000  C
  C83      1.0000 0.80500  0.72118  0.66269  Biso   1.000  C
  H96      1.0000 0.80529  0.97838  0.54130  Biso   1.000  H
  C84      1.0000 0.82377  0.05612  0.60132  Biso   1.000  C
  C85      1.0000 0.94387  0.76767  0.60132  Biso   1.000  C
  H97      1.0000 0.87070  0.79687  0.55761  Biso   1.000  H
  C86      1.0000 0.87669  0.71329  0.67622  Biso   1.000  C
  H98      1.0000 0.75747  0.70539  0.68371  Biso   1.000  H
  C87      1.0000 0.79026  0.05382  0.64551  Biso   1.000  C
  C88      1.0000 0.90340  0.12780  0.58779  Biso   1.000  C
  C89      1.0000 0.94616  0.73650  0.64551  Biso   1.000  C
  C90      1.0000 0.01659  0.79135  0.56730  Biso   1.000  C
  C91      1.0000 0.87871  0.67619  0.72330  Biso   1.000  C
  C92      1.0000 0.83658  0.12333  0.67622  Biso   1.000  C
  H99      1.0000 0.73587  0.00482  0.65482  Biso   1.000  H
  H100     1.0000 0.92620  0.12932  0.55761  Biso   1.000  H
  C93      1.0000 0.94967  0.19732  0.61850  Biso   1.000  C
  H101     1.0000 0.99518  0.73111  0.65482  Biso   1.000  H
  N15      1.0000 0.07212  0.76537  0.57211  Biso   1.000  N
  H102     1.0000 0.02159  0.82686  0.54130  Biso   1.000  H
  N16      1.0000 0.81729  0.65088  0.75160  Biso   1.000  N
  H103     1.0000 0.92886  0.67205  0.73170  Biso   1.000  H
  C94      1.0000 0.79746  0.12129  0.72330  Biso   1.000  C
  C95      1.0000 0.91617  0.19501  0.66269  Biso   1.000  C
  C96      1.0000 0.03340  0.27663  0.60449  Biso   1.000  C
  C97      1.0000 0.13517  0.78977  0.53381  Biso   1.000  C
  C98      1.0000 0.82748  0.61339  0.79681  Biso   1.000  C
  N17      1.0000 0.83358  0.18272  0.75160  Biso   1.000  N
  H104     1.0000 0.74321  0.07111  0.73170  Biso   1.000  H
  H105     1.0000 0.94788  0.24250  0.68371  Biso   1.000  H
  N18      1.0000 0.06163  0.28682  0.56389  Biso   1.000  N
  H106     1.0000 0.06610  0.32049  0.62711  Biso   1.000  H
  C99      1.0000 0.22597  0.85836  0.55221  Biso   1.000  C
  C100     1.0000 0.13692  0.71000  0.51711  Biso   1.000  C
  H107     1.0000 0.11779  0.81549  0.50760  Biso   1.000  H
  C101     1.0000 0.81827  0.66626  0.83650  Biso   1.000  C
  C102     1.0000 0.75868  0.51599  0.80120  Biso   1.000  C
  H108     1.0000 0.88751  0.62010  0.79799  Biso   1.000  H
  C103     1.0000 0.78589  0.17252  0.79681  Biso   1.000  C
  C104     1.0000 0.14159  0.36758  0.55221  Biso   1.000  C
  N19      1.0000 0.22521  0.93840  0.56389  Biso   1.000  N
  H109     1.0000 0.24018  0.83495  0.58072  Biso   1.000  H
  C105     1.0000 0.29650  0.87869  0.51429  Biso   1.000  C
  C106     1.0000 0.20392  0.73111  0.47790  Biso   1.000  C
  H110     1.0000 0.07759  0.66607  0.50579  Biso   1.000  H
  H111     1.0000 0.15157  0.68336  0.54360  Biso   1.000  H
  N20      1.0000 0.89056  0.75630  0.83361  Biso   1.000  N
  H112     1.0000 0.76110  0.66528  0.83361  Biso   1.000  H
  C107     1.0000 0.82296  0.62838  0.88370  Biso   1.000  C
  C108     1.0000 0.76476  0.48100  0.84822  Biso   1.000  C
  H113     1.0000 0.69919  0.50830  0.79719  Biso   1.000  H
  H114     1.0000 0.76784  0.48225  0.77642  Biso   1.000  H
  C109     1.0000 0.84801  0.18173  0.83650  Biso   1.000  C
  C110     1.0000 0.75729  0.24131  0.80120  Biso   1.000  C
  H115     1.0000 0.73260  0.11255  0.79799  Biso   1.000  H
  H116     1.0000 0.16501  0.40520  0.58072  Biso   1.000  H
  C111     1.0000 0.12132  0.41783  0.51429  Biso   1.000  C
  C112     1.0000 0.21019  0.34542  0.53381  Biso   1.000  C
  C113     1.0000 0.24316  0.96655  0.60449  Biso   1.000  C
  H117     1.0000 0.28576  0.90756  0.48749  Biso   1.000  H
  H118     1.0000 0.35537  0.91999  0.52712  Biso   1.000  H
  C114     1.0000 0.29519  0.79668  0.49770  Biso   1.000  C
  H119     1.0000 0.18999  0.75735  0.45100  Biso   1.000  H
  H120     1.0000 0.20270  0.67685  0.46741  Biso   1.000  H
  C115     1.0000 0.86925  0.81779  0.83180  Biso   1.000  C
  H121     1.0000 0.81307  0.66100  0.90879  Biso   1.000  H
  H122     1.0000 0.88250  0.63628  0.88791  Biso   1.000  H
  C116     1.0000 0.75406  0.53000  0.88739  Biso   1.000  C
  H123     1.0000 0.71876  0.41826  0.85041  Biso   1.000  H
  H124     1.0000 0.82266  0.48449  0.85100  Biso   1.000  H
  N21      1.0000 0.86566  0.10939  0.83361  Biso   1.000  N
  H125     1.0000 0.90419  0.23895  0.83361  Biso   1.000  H
  C117     1.0000 0.80538  0.17699  0.88370  Biso   1.000  C
  C118     1.0000 0.71619  0.23520  0.84822  Biso   1.000  C
  H126     1.0000 0.80909  0.30083  0.79719  Biso   1.000  H
  H127     1.0000 0.71441  0.23211  0.77642  Biso   1.000  H
  H128     1.0000 0.09241  0.37824  0.48749  Biso   1.000  H
  H129     1.0000 0.07998  0.43539  0.52712  Biso   1.000  H
  C119     1.0000 0.20330  0.49852  0.49770  Biso   1.000  C
  N22      1.0000 0.23462  0.30668  0.57211  Biso   1.000  N
  C120     1.0000 0.29000  0.42690  0.51711  Biso   1.000  C
  H130     1.0000 0.18455  0.30234  0.50760  Biso   1.000  H
  H131     1.0000 0.25438  0.93386  0.62711  Biso   1.000  H
  C121     1.0000 0.24763  0.05033  0.61850  Biso   1.000  C
  H132     1.0000 0.30916  0.76925  0.52401  Biso   1.000  H
  H133     1.0000 0.34036  0.81207  0.47330  Biso   1.000  H
  C122     1.0000 0.93758  0.91104  0.83149  Biso   1.000  C
  H134     1.0000 0.80908  0.80200  0.83061  Biso   1.000  H
  H135     1.0000 0.76137  0.50646  0.91740  Biso   1.000  H
  H136     1.0000 0.69429  0.52231  0.88659  Biso   1.000  H
  C123     1.0000 0.94848  0.13070  0.83180  Biso   1.000  C
  H137     1.0000 0.84788  0.18693  0.90879  Biso   1.000  H
  H138     1.0000 0.75378  0.11754  0.88791  Biso   1.000  H
  C124     1.0000 0.77588  0.24592  0.88739  Biso   1.000  C
  H139     1.0000 0.69951  0.28123  0.85041  Biso   1.000  H
  H140     1.0000 0.66179  0.17732  0.85100  Biso   1.000  H
  H141     1.0000 0.23070  0.53989  0.52401  Biso   1.000  H
  H142     1.0000 0.18789  0.52831  0.47330  Biso   1.000  H
  C125     1.0000 0.26892  0.47281  0.47790  Biso   1.000  C
  C126     1.0000 0.20862  0.22520  0.56730  Biso   1.000  C
  H143     1.0000 0.33390  0.41151  0.50579  Biso   1.000  H
  H144     1.0000 0.31657  0.46820  0.54360  Biso   1.000  H
  C127     1.0000 0.22442  0.09663  0.58779  Biso   1.000  C
  C128     1.0000 0.27878  0.08381  0.66269  Biso   1.000  C
  C129     1.0000 0.91149  0.97437  0.83110  Biso   1.000  C
  C130     1.0000 0.02561  0.93708  0.83110  Biso   1.000  C
  C131     1.0000 0.97346  0.06243  0.83149  Biso   1.000  C
  H145     1.0000 0.99289  0.19094  0.83061  Biso   1.000  H
  H146     1.0000 0.74506  0.23862  0.91740  Biso   1.000  H
  H147     1.0000 0.82798  0.30570  0.88659  Biso   1.000  H
  H148     1.0000 0.24262  0.43262  0.45100  Biso   1.000  H
  H149     1.0000 0.32311  0.52581  0.46741  Biso   1.000  H
  C132     1.0000 0.23231  0.17621  0.60132  Biso   1.000  C
  H150     1.0000 0.17309  0.19469  0.54130  Biso   1.000  H
  H151     1.0000 0.20310  0.07381  0.55761  Biso   1.000  H
  C133     1.0000 0.28670  0.16345  0.67622  Biso   1.000  C
  H152     1.0000 0.29459  0.05211  0.68371  Biso   1.000  H
  H153     1.0000 0.85064  0.95655  0.83051  Biso   1.000  H
  H154     1.0000 0.04340  0.89407  0.83051  Biso   1.000  H
  C134     1.0000 0.08890  0.02652  0.83149  Biso   1.000  C
  C135     1.0000 0.06289  0.08854  0.83110  Biso   1.000  C
  C136     1.0000 0.26349  0.20975  0.64551  Biso   1.000  C
  C137     1.0000 0.32378  0.20251  0.72330  Biso   1.000  C
  C138     1.0000 0.18221  0.05152  0.83180  Biso   1.000  C
  H155     1.0000 0.10592  0.14931  0.83051  Biso   1.000  H
  H156     1.0000 0.26893  0.26413  0.65482  Biso   1.000  H
  N23      1.0000 0.34912  0.16641  0.75160  Biso   1.000  N
  H157     1.0000 0.32793  0.25683  0.73170  Biso   1.000  H
  N24      1.0000 0.24371  0.13431  0.83361  Biso   1.000  N
  H158     1.0000 0.19800  0.00712  0.83061  Biso   1.000  H
  C139     1.0000 0.38657  0.21409  0.79681  Biso   1.000  C
  C140     1.0000 0.33372  0.15200  0.83650  Biso   1.000  C
  C141     1.0000 0.48397  0.24269  0.80120  Biso   1.000  C
  H159     1.0000 0.37992  0.26742  0.79799  Biso   1.000  H
  H160     1.0000 0.33468  0.09584  0.83361  Biso   1.000  H
  C142     1.0000 0.37160  0.19462  0.88370  Biso   1.000  C
  C143     1.0000 0.51899  0.28380  0.84822  Biso   1.000  C
  H161     1.0000 0.49170  0.19094  0.79719  Biso   1.000  H
  H162     1.0000 0.51769  0.28564  0.77642  Biso   1.000  H
  H163     1.0000 0.33902  0.15214  0.90879  Biso   1.000  H
  H164     1.0000 0.36370  0.24625  0.88791  Biso   1.000  H
  C144     1.0000 0.47000  0.22408  0.88739  Biso   1.000  C
  H165     1.0000 0.58168  0.30050  0.85041  Biso   1.000  H
  H166     1.0000 0.51549  0.33818  0.85100  Biso   1.000  H
  H167     1.0000 0.49351  0.25493  0.91740  Biso   1.000  H
  H168     1.0000 0.47767  0.17200  0.88659  Biso   1.000  H
  Ne1      1.0000 0.99999  0.99999  0.31971  Biso   1.000  Ne
  He1      1.0000 0.00001  1.00000  0.41760  Biso   1.000  He
  He2      1.0000 0.91647  0.08722  0.28330  Biso   1.000  He
  He3      1.0000 0.17567  0.08594  0.28241  Biso   1.000  He
  He4      1.0000 0.91229  0.82827  0.28311  Biso   1.000  He
  Ar1      1.0000 0.99998  0.99997  0.31385  Biso   1.000  Ar
  Ne2      1.0000 0.99999  1.00000  0.68030  Biso   1.000  Ne
  He5      1.0000 0.08455  0.17291  0.71710  Biso   1.000  He
  He6      1.0000 0.82319  0.90970  0.71780  Biso   1.000  He
  He7      1.0000 0.08825  0.91546  0.71708  Biso   1.000  He
  He8      1.0000 1.00000  0.99998  0.58241  Biso   1.000  He
  Ar2      1.0000 0.99998  0.00001  0.68615  Biso   1.000  Ar
