data_image0
_cell_length_a       9.327
_cell_length_b       12.086
_cell_length_c       12.421
_cell_angle_alpha    110.92
_cell_angle_beta     90.77
_cell_angle_gamma    98.45

_symmetry_space_group_name_H-M    "P 1"
_symmetry_int_tables_number       1

loop_
  _symmetry_equiv_pos_as_xyz
  'x, y, z'

loop_
  _atom_site_label
  _atom_site_occupancy
  _atom_site_fract_x
  _atom_site_fract_y
  _atom_site_fract_z
  _atom_site_thermal_displace_type
  _atom_site_B_iso_or_equiv
  _atom_site_type_symbol
  O1       1.0000 0.61652  0.42502  0.75125  Biso   1.000  O
  C1       1.0000 0.59159  0.30954  0.75488  Biso   1.000  C
  C2       1.0000 0.68298  0.51646  0.85019  Biso   1.000  C
  C3       1.0000 0.51562  0.22639  0.64177  Biso   1.000  C
  H1       1.0000 0.53058  0.30799  0.81909  Biso   1.000  H
  H2       1.0000 0.68493  0.28450  0.76724  Biso   1.000  H
  O2       1.0000 0.64068  0.28590  0.82617  Biso   1.000  O
  C4       1.0000 0.69983  0.63225  0.82963  Biso   1.000  C
  O3       1.0000 0.69367  0.50250  0.93738  Biso   1.000  O
  H3       1.0000 0.62295  0.52155  0.91647  Biso   1.000  H
  H4       1.0000 0.77954  0.49986  0.86851  Biso   1.000  H
  C5       1.0000 0.59652  0.18359  0.54335  Biso   1.000  C
  C6       1.0000 0.36660  0.19748  0.63209  Biso   1.000  C
  C7       1.0000 0.82533  0.67131  0.78858  Biso   1.000  C
  C8       1.0000 0.58308  0.69968  0.84916  Biso   1.000  C
  C9       1.0000 0.52119  0.11419  0.43344  Biso   1.000  C
  C10      1.0000 0.75012  0.20699  0.54974  Biso   1.000  C
  C11      1.0000 0.29339  0.12023  0.52685  Biso   1.000  C
  O4       1.0000 0.27700  0.23911  0.72429  Biso   1.000  O
  O5       1.0000 0.32947  0.26089  0.74080  Biso   1.000  O
  C12      1.0000 0.84460  0.78280  0.77458  Biso   1.000  C
  O6       1.0000 0.92999  0.59826  0.76413  Biso   1.000  O
  C13      1.0000 0.59620  0.80654  0.82289  Biso   1.000  C
  C14      1.0000 0.45246  0.66385  0.89323  Biso   1.000  C
  C15      1.0000 0.60056  0.07879  0.33225  Biso   1.000  C
  C16      1.0000 0.36950  0.08128  0.43110  Biso   1.000  C
  C17      1.0000 0.82491  0.16337  0.45426  Biso   1.000  C
  H5       1.0000 0.80194  0.25386  0.62190  Biso   1.000  H
  H6       1.0000 0.19131  0.09525  0.52227  Biso   1.000  H
  C18      1.0000 0.12573  0.24253  0.70675  Biso   1.000  C
  C19      1.0000 0.17249  0.23727  0.73916  Biso   1.000  C
  C20      1.0000 0.73293  0.84740  0.79126  Biso   1.000  C
  H7       1.0000 0.93515  0.81328  0.75359  Biso   1.000  H
  C21      1.0000 0.04065  0.62205  0.69146  Biso   1.000  C
  C22      1.0000 0.47594  0.86991  0.83343  Biso   1.000  C
  C23      1.0000 0.34268  0.72978  0.91103  Biso   1.000  C
  H8       1.0000 0.44117  0.59277  0.91060  Biso   1.000  H
  C24      1.0000 0.52923  0.02711  0.20963  Biso   1.000  C
  C25      1.0000 0.74918  0.10012  0.34599  Biso   1.000  C
  H9       1.0000 0.31813  0.02990  0.36007  Biso   1.000  H
  H10      1.0000 0.92816  0.17567  0.46091  Biso   1.000  H
  H11      1.0000 0.11133  0.27673  0.64661  Biso   1.000  H
  H12      1.0000 0.06941  0.16034  0.68066  Biso   1.000  H
  C26      1.0000 0.07365  0.32037  0.82064  Biso   1.000  C
  H13      1.0000 0.13708  0.15056  0.71971  Biso   1.000  H
  H14      1.0000 0.12693  0.26409  0.68230  Biso   1.000  H
  C27      1.0000 0.13886  0.30986  0.86177  Biso   1.000  C
  H15      1.0000 0.74777  0.92235  0.78107  Biso   1.000  H
  H16      1.0000 0.99540  0.63340  0.62440  Biso   1.000  H
  H17      1.0000 0.10866  0.69634  0.73561  Biso   1.000  H
  C28      1.0000 0.12166  0.51754  0.65033  Biso   1.000  C
  C29      1.0000 0.47086  0.97285  0.79031  Biso   1.000  C
  C30      1.0000 0.35472  0.83200  0.87975  Biso   1.000  C
  H18      1.0000 0.25788  0.70696  0.94455  Biso   1.000  H
  C31      1.0000 0.52415  0.13005  0.16651  Biso   1.000  C
  C32      1.0000 0.62473  0.94348  0.13316  Biso   1.000  C
  H19      1.0000 0.42911  0.98290  0.20773  Biso   1.000  H
  O7       1.0000 0.83835  0.06342  0.25534  Biso   1.000  O
  H20      1.0000 0.14394  0.39587  0.85339  Biso   1.000  H
  C33      1.0000 0.05566  0.26248  0.91025  Biso   1.000  C
  H21      1.0000 0.18215  0.39517  0.88147  Biso   1.000  H
  H22      1.0000 0.97932  0.34164  0.80474  Biso   1.000  H
  C34      1.0000 0.97594  0.30049  0.87396  Biso   1.000  C
  H23      1.0000 0.18338  0.28007  0.91673  Biso   1.000  H
  H24      1.0000 0.05219  0.44315  0.60945  Biso   1.000  H
  H25      1.0000 0.16870  0.50822  0.71790  Biso   1.000  H
  C35      1.0000 0.23712  0.53468  0.56936  Biso   1.000  C
  C36      1.0000 0.39942  0.92117  0.66769  Biso   1.000  C
  C37      1.0000 0.37536  0.05648  0.86679  Biso   1.000  C
  H26      1.0000 0.57099  0.01709  0.79230  Biso   1.000  H
  O8       1.0000 0.23272  0.88776  0.89850  Biso   1.000  O
  C38      1.0000 0.40380  0.19350  0.17706  Biso   1.000  C
  C39      1.0000 0.64537  0.16796  0.12020  Biso   1.000  C
  C40      1.0000 0.77170  0.01585  0.14050  Biso   1.000  C
  H27      1.0000 0.58246  0.90930  0.05228  Biso   1.000  H
  H28      1.0000 0.63220  0.87656  0.16021  Biso   1.000  H
  H29      1.0000 0.14949  0.23974  0.92537  Biso   1.000  H
  H30      1.0000 0.03144  0.32214  0.98327  Biso   1.000  H
  C41      1.0000 0.93885  0.15178  0.87534  Biso   1.000  C
  C42      1.0000 0.90012  0.17201  0.85045  Biso   1.000  C
  H31      1.0000 0.95843  0.35199  0.95328  Biso   1.000  H
  H32      1.0000 0.93226  0.33129  0.81943  Biso   1.000  H
  H33      1.0000 0.30873  0.60726  0.61144  Biso   1.000  H
  H34      1.0000 0.19041  0.54779  0.50386  Biso   1.000  H
  C43      1.0000 0.31666  0.42700  0.52227  Biso   1.000  C
  C44      1.0000 0.47890  0.88576  0.56651  Biso   1.000  C
  C45      1.0000 0.25081  0.89984  0.65396  Biso   1.000  C
  C46      1.0000 0.22829  0.98411  0.85944  Biso   1.000  C
  H35      1.0000 0.41752  0.09066  0.94767  Biso   1.000  H
  H36      1.0000 0.36789  0.12340  0.83974  Biso   1.000  H
  C47      1.0000 0.26706  0.15260  0.20877  Biso   1.000  C
  C48      1.0000 0.41691  0.30032  0.15087  Biso   1.000  C
  C49      1.0000 0.65730  0.27017  0.08892  Biso   1.000  C
  O9       1.0000 0.76726  0.11220  0.10145  Biso   1.000  O
  H37      1.0000 0.83475  0.96154  0.08987  Biso   1.000  H
  H38      1.0000 0.93083  0.12063  0.93825  Biso   1.000  H
  H39      1.0000 0.84551  0.17320  0.85961  Biso   1.000  H
  H40      1.0000 0.96479  0.09017  0.80578  Biso   1.000  H
  H41      1.0000 0.92112  0.11945  0.77363  Biso   1.000  H
  H42      1.0000 0.93576  0.14363  0.90895  Biso   1.000  H
  H43      1.0000 0.79493  0.17049  0.85374  Biso   1.000  H
  H44      1.0000 0.38180  0.43835  0.46454  Biso   1.000  H
  H45      1.0000 0.24545  0.35366  0.48641  Biso   1.000  H
  H46      1.0000 0.37328  0.41992  0.58578  Biso   1.000  H
  C50      1.0000 0.40358  0.81641  0.45668  Biso   1.000  C
  C51      1.0000 0.63061  0.91877  0.56884  Biso   1.000  C
  C52      1.0000 0.17518  0.83659  0.54568  Biso   1.000  C
  O10      1.0000 0.16176  0.93662  0.74460  Biso   1.000  O
  H47      1.0000 0.16534  0.03842  0.91008  Biso   1.000  H
  C53      1.0000 0.15549  0.21716  0.22536  Biso   1.000  C
  H48      1.0000 0.25232  0.07761  0.21888  Biso   1.000  H
  C54      1.0000 0.30025  0.36771  0.17032  Biso   1.000  C
  C55      1.0000 0.54764  0.33614  0.10680  Biso   1.000  C
  H49      1.0000 0.74221  0.29300  0.05539  Biso   1.000  H
  C56      1.0000 0.48448  0.77365  0.35817  Biso   1.000  C
  C57      1.0000 0.24998  0.79305  0.45020  Biso   1.000  C
  C58      1.0000 0.70670  0.87973  0.47310  Biso   1.000  C
  H50      1.0000 0.68185  0.97006  0.63987  Biso   1.000  H
  H51      1.0000 0.07194  0.82432  0.53912  Biso   1.000  H
  H52      1.0000 0.06494  0.18668  0.24636  Biso   1.000  H
  C59      1.0000 0.17476  0.32865  0.21136  Biso   1.000  C
  C60      1.0000 0.31702  0.48358  0.14975  Biso   1.000  C
  H53      1.0000 0.55882  0.40722  0.08944  Biso   1.000  H
  C61      1.0000 0.40850  0.69042  0.24506  Biso   1.000  C
  C62      1.0000 0.63349  0.80248  0.36785  Biso   1.000  C
  H54      1.0000 0.19815  0.74610  0.37805  Biso   1.000  H
  H55      1.0000 0.80878  0.90471  0.47768  Biso   1.000  H
  O11      1.0000 0.07011  0.40178  0.23581  Biso   1.000  O
  O12      1.0000 0.38347  0.57494  0.24869  Biso   1.000  O
  O13      1.0000 0.30631  0.49746  0.06256  Biso   1.000  O
  H56      1.0000 0.37703  0.47841  0.08347  Biso   1.000  H
  H57      1.0000 0.22056  0.50013  0.13152  Biso   1.000  H
  H58      1.0000 0.46951  0.69197  0.18086  Biso   1.000  H
  H59      1.0000 0.31518  0.71554  0.23270  Biso   1.000  H
  O14      1.0000 0.35941  0.71406  0.17377  Biso   1.000  O
  O15      1.0000 0.72309  0.76085  0.27565  Biso   1.000  O
  O16      1.0000 0.67062  0.73910  0.25923  Biso   1.000  O
  C63      1.0000 0.95944  0.37794  0.30857  Biso   1.000  C
  C64      1.0000 0.87425  0.75743  0.29319  Biso   1.000  C
  C65      1.0000 0.82760  0.76269  0.26079  Biso   1.000  C
  H60      1.0000 0.00469  0.36659  0.37563  Biso   1.000  H
  H61      1.0000 0.89145  0.30374  0.26442  Biso   1.000  H
  C66      1.0000 0.87833  0.48242  0.34962  Biso   1.000  C
  H62      1.0000 0.88867  0.72334  0.35342  Biso   1.000  H
  H63      1.0000 0.93057  0.83962  0.31929  Biso   1.000  H
  C67      1.0000 0.92644  0.67959  0.17930  Biso   1.000  C
  H64      1.0000 0.86302  0.84943  0.28032  Biso   1.000  H
  H65      1.0000 0.87306  0.73590  0.31773  Biso   1.000  H
  C68      1.0000 0.86123  0.69010  0.13817  Biso   1.000  C
  H66      1.0000 0.94790  0.55681  0.39049  Biso   1.000  H
  H67      1.0000 0.83140  0.49177  0.28213  Biso   1.000  H
  C69      1.0000 0.76297  0.46528  0.43058  Biso   1.000  C
  H68      1.0000 0.85604  0.60409  0.14655  Biso   1.000  H
  C70      1.0000 0.94443  0.73748  0.08969  Biso   1.000  C
  H69      1.0000 0.81793  0.60479  0.11847  Biso   1.000  H
  H70      1.0000 0.02077  0.65832  0.19520  Biso   1.000  H
  C71      1.0000 0.02415  0.69947  0.12599  Biso   1.000  C
  H71      1.0000 0.81671  0.71989  0.08321  Biso   1.000  H
  H72      1.0000 0.69136  0.39269  0.38850  Biso   1.000  H
  H73      1.0000 0.80968  0.45217  0.49608  Biso   1.000  H
  C72      1.0000 0.68343  0.57296  0.47768  Biso   1.000  C
  H74      1.0000 0.85060  0.76021  0.07457  Biso   1.000  H
  H75      1.0000 0.96865  0.67782  0.01668  Biso   1.000  H
  C73      1.0000 0.06113  0.84818  0.12460  Biso   1.000  C
  C74      1.0000 0.09998  0.82803  0.14949  Biso   1.000  C
  H76      1.0000 0.04166  0.64797  0.04666  Biso   1.000  H
  H77      1.0000 0.06773  0.66867  0.18051  Biso   1.000  H
  H78      1.0000 0.61829  0.56161  0.53540  Biso   1.000  H
  H79      1.0000 0.75454  0.64633  0.51362  Biso   1.000  H
  H80      1.0000 0.62672  0.58013  0.41417  Biso   1.000  H
  H81      1.0000 0.06915  0.87933  0.06170  Biso   1.000  H
  H82      1.0000 0.15458  0.82679  0.14042  Biso   1.000  H
  H83      1.0000 0.03530  0.90979  0.19416  Biso   1.000  H
  H84      1.0000 0.07897  0.88051  0.22631  Biso   1.000  H
  H85      1.0000 0.06433  0.85633  0.09099  Biso   1.000  H
  H86      1.0000 0.20505  0.82947  0.14621  Biso   1.000  H
  Ne1      1.0000 0.50003  0.49999  0.49998  Biso   1.000  Ne
  He1      1.0000 0.12722  0.55735  0.62331  Biso   1.000  He
  He2      1.0000 0.83085  0.43765  0.55131  Biso   1.000  He
  He3      1.0000 0.87552  0.44858  0.37381  Biso   1.000  He
  He4      1.0000 0.08344  0.61084  0.23375  Biso   1.000  He
  Ar1      1.0000 0.50003  0.49999  0.49997  Biso   1.000  Ar
