data_image0
_cell_length_a       15.965
_cell_length_b       16.275
_cell_length_c       19.192
_cell_angle_alpha    112.1
_cell_angle_beta     101.9
_cell_angle_gamma    94.52

_symmetry_space_group_name_H-M    "P 1"
_symmetry_int_tables_number       1

loop_
  _symmetry_equiv_pos_as_xyz
  'x, y, z'

loop_
  _atom_site_label
  _atom_site_occupancy
  _atom_site_fract_x
  _atom_site_fract_y
  _atom_site_fract_z
  _atom_site_thermal_displace_type
  _atom_site_B_iso_or_equiv
  _atom_site_type_symbol
  C1       1.0000 0.76539  0.59574  0.37156  Biso   1.000  C
  N1       1.0000 0.78796  0.66417  0.35399  Biso   1.000  N
  H1       1.0000 0.70549  0.57115  0.35847  Biso   1.000  H
  C2       1.0000 0.82744  0.55733  0.40966  Biso   1.000  C
  B1       1.0000 0.71568  0.70548  0.31537  Biso   1.000  B
  C3       1.0000 0.87447  0.69765  0.36819  Biso   1.000  C
  C4       1.0000 0.91273  0.59242  0.42426  Biso   1.000  C
  H2       1.0000 0.81008  0.50994  0.42397  Biso   1.000  H
  C5       1.0000 0.68098  0.64916  0.22370  Biso   1.000  C
  O1       1.0000 0.64405  0.71064  0.35876  Biso   1.000  O
  O2       1.0000 0.75129  0.80335  0.33707  Biso   1.000  O
  C6       1.0000 0.93748  0.66425  0.40326  Biso   1.000  C
  H3       1.0000 0.89039  0.74484  0.35318  Biso   1.000  H
  O3       1.0000 0.98308  0.56877  0.45898  Biso   1.000  O
  C7       1.0000 0.61521  0.57230  0.19352  Biso   1.000  C
  C8       1.0000 0.70711  0.67806  0.17141  Biso   1.000  C
  C9       1.0000 0.64319  0.79514  0.39738  Biso   1.000  C
  C10      1.0000 0.70575  0.85205  0.38447  Biso   1.000  C
  O4       1.0000 0.02346  0.68813  0.42199  Biso   1.000  O
  B2       1.0000 0.06189  0.63547  0.46800  Biso   1.000  B
  H4       1.0000 0.59608  0.54989  0.22772  Biso   1.000  H
  C11      1.0000 0.57949  0.53086  0.11592  Biso   1.000  C
  C12      1.0000 0.67056  0.63910  0.09370  Biso   1.000  C
  H5       1.0000 0.75315  0.72788  0.19090  Biso   1.000  H
  C13      1.0000 0.58944  0.83162  0.44316  Biso   1.000  C
  C14      1.0000 0.71206  0.94325  0.41751  Biso   1.000  C
  N2       1.0000 0.09166  0.70313  0.55530  Biso   1.000  N
  C15      1.0000 0.13739  0.58486  0.43647  Biso   1.000  C
  H6       1.0000 0.53500  0.47957  0.09632  Biso   1.000  H
  C16      1.0000 0.60618  0.56129  0.06439  Biso   1.000  C
  C17      1.0000 0.69540  0.68125  0.04380  Biso   1.000  C
  C18      1.0000 0.60047  0.92804  0.47788  Biso   1.000  C
  H7       1.0000 0.54669  0.79505  0.45159  Biso   1.000  H
  N3       1.0000 0.65995  0.98054  0.46608  Biso   1.000  N
  H8       1.0000 0.75198  0.98074  0.40721  Biso   1.000  H
  C19      1.0000 0.12877  0.79030  0.57467  Biso   1.000  C
  C20      1.0000 0.08128  0.67636  0.61178  Biso   1.000  C
  C21      1.0000 0.21037  0.62893  0.42577  Biso   1.000  C
  C22      1.0000 0.13199  0.49235  0.41611  Biso   1.000  C
  H9       1.0000 0.58151  0.53029  0.01000  Biso   1.000  H
  H10      1.0000 0.74677  0.72520  0.06392  Biso   1.000  H
  N4       1.0000 0.65185  0.66213  0.97586  Biso   1.000  N
  H11      1.0000 0.56434  0.95553  0.51046  Biso   1.000  H
  B3       1.0000 0.66702  0.08774  0.50330  Biso   1.000  B
  C23      1.0000 0.15039  0.84998  0.64936  Biso   1.000  C
  H12      1.0000 0.13929  0.80876  0.53529  Biso   1.000  H
  H13      1.0000 0.05836  0.61496  0.59759  Biso   1.000  H
  C24      1.0000 0.10335  0.73618  0.69205  Biso   1.000  C
  H14      1.0000 0.21739  0.69216  0.43990  Biso   1.000  H
  C25      1.0000 0.27258  0.58164  0.39488  Biso   1.000  C
  C26      1.0000 0.19246  0.44525  0.38499  Biso   1.000  C
  H15      1.0000 0.08460  0.46079  0.42391  Biso   1.000  H
  C27      1.0000 0.67582  0.71710  0.93602  Biso   1.000  C
  O5       1.0000 0.64444  0.11246  0.58060  Biso   1.000  O
  O6       1.0000 0.76065  0.12801  0.52308  Biso   1.000  O
  C28      1.0000 0.60306  0.12030  0.44246  Biso   1.000  C
  O7       1.0000 0.18875  0.93711  0.67960  Biso   1.000  O
  C29      1.0000 0.13779  0.82352  0.71020  Biso   1.000  C
  H16      1.0000 0.09446  0.71645  0.73108  Biso   1.000  H
  H17      1.0000 0.32158  0.61287  0.38889  Biso   1.000  H
  C30      1.0000 0.26306  0.48998  0.37330  Biso   1.000  C
  C31      1.0000 0.17987  0.34680  0.36760  Biso   1.000  C
  C32      1.0000 0.66980  0.67360  0.85558  Biso   1.000  C
  C33      1.0000 0.69593  0.81211  0.97167  Biso   1.000  C
  C34      1.0000 0.71795  0.14680  0.63330  Biso   1.000  C
  C35      1.0000 0.78922  0.15592  0.60021  Biso   1.000  C
  C36      1.0000 0.57734  0.07395  0.36080  Biso   1.000  C
  C37      1.0000 0.57658  0.20247  0.47451  Biso   1.000  C
  B4       1.0000 0.20116  0.97201  0.76685  Biso   1.000  B
  O8       1.0000 0.16438  0.89103  0.77866  Biso   1.000  O
  H18      1.0000 0.30416  0.45732  0.35056  Biso   1.000  H
  N5       1.0000 0.23856  0.29905  0.34847  Biso   1.000  N
  H19      1.0000 0.12716  0.31864  0.37080  Biso   1.000  H
  H20      1.0000 0.65541  0.60992  0.83027  Biso   1.000  H
  C38      1.0000 0.68502  0.72453  0.81352  Biso   1.000  C
  H21      1.0000 0.69931  0.84349  0.02542  Biso   1.000  H
  C39      1.0000 0.71041  0.85801  0.92729  Biso   1.000  C
  C40      1.0000 0.73444  0.17649  0.71345  Biso   1.000  C
  C41      1.0000 0.87103  0.19353  0.64616  Biso   1.000  C
  H22      1.0000 0.59196  0.01615  0.33742  Biso   1.000  H
  C42      1.0000 0.53188  0.11077  0.31479  Biso   1.000  C
  C43      1.0000 0.52628  0.23976  0.43031  Biso   1.000  C
  H23      1.0000 0.59364  0.23461  0.52936  Biso   1.000  H
  N6       1.0000 0.13990  0.04578  0.78895  Biso   1.000  N
  C44      1.0000 0.29842  0.01507  0.81524  Biso   1.000  C
  C45      1.0000 0.21220  0.20436  0.32817  Biso   1.000  C
  H24      1.0000 0.68245  0.69565  0.75972  Biso   1.000  H
  C46      1.0000 0.70370  0.81672  0.85069  Biso   1.000  C
  H25      1.0000 0.72583  0.92169  0.95166  Biso   1.000  H
  C47      1.0000 0.82121  0.21319  0.75719  Biso   1.000  C
  H26      1.0000 0.68921  0.17239  0.73800  Biso   1.000  H
  N7       1.0000 0.88783  0.21868  0.72398  Biso   1.000  N
  H27      1.0000 0.91671  0.20220  0.62347  Biso   1.000  H
  H28      1.0000 0.51919  0.08068  0.25971  Biso   1.000  H
  C48      1.0000 0.50348  0.19406  0.34911  Biso   1.000  C
  C49      1.0000 0.49464  0.32495  0.46660  Biso   1.000  C
  C50      1.0000 0.11814  0.09368  0.74475  Biso   1.000  C
  C51      1.0000 0.11665  0.06722  0.85549  Biso   1.000  C
  C52      1.0000 0.34350  0.98054  0.86300  Biso   1.000  C
  C53      1.0000 0.34463  0.08919  0.80937  Biso   1.000  C
  C54      1.0000 0.27211  0.15934  0.35498  Biso   1.000  C
  C55      1.0000 0.13419  0.15646  0.27838  Biso   1.000  C
  H29      1.0000 0.71215  0.85170  0.82190  Biso   1.000  H
  H30      1.0000 0.83360  0.23490  0.81228  Biso   1.000  H
  B5       1.0000 0.98213  0.26638  0.77307  Biso   1.000  B
  H31      1.0000 0.46946  0.21843  0.31741  Biso   1.000  H
  N8       1.0000 0.49855  0.36024  0.53867  Biso   1.000  N
  H32      1.0000 0.47053  0.35421  0.43467  Biso   1.000  H
  C56      1.0000 0.06936  0.15898  0.76586  Biso   1.000  C
  H33      1.0000 0.13742  0.08103  0.69880  Biso   1.000  H
  C57      1.0000 0.06635  0.13648  0.88178  Biso   1.000  C
  H34      1.0000 0.13425  0.03516  0.88684  Biso   1.000  H
  H35      1.0000 0.31406  0.93209  0.86986  Biso   1.000  H
  C58      1.0000 0.43005  0.01272  0.90179  Biso   1.000  C
  H36      1.0000 0.31495  0.11589  0.77749  Biso   1.000  H
  C59      1.0000 0.43025  0.12400  0.84758  Biso   1.000  C
  H37      1.0000 0.32785  0.19205  0.38657  Biso   1.000  H
  C60      1.0000 0.25382  0.06931  0.33742  Biso   1.000  C
  C61      1.0000 0.11337  0.06569  0.26122  Biso   1.000  C
  H38      1.0000 0.09437  0.18540  0.25569  Biso   1.000  H
  O9       1.0000 0.99703  0.24900  0.84665  Biso   1.000  O
  C62      1.0000 0.99343  0.37119  0.78319  Biso   1.000  C
  O10      1.0000 0.04313  0.21317  0.73015  Biso   1.000  O
  C63      1.0000 0.46247  0.43813  0.57025  Biso   1.000  C
  C64      1.0000 0.04222  0.18310  0.83577  Biso   1.000  C
  H39      1.0000 0.05013  0.14989  0.92925  Biso   1.000  H
  H40      1.0000 0.45963  0.98497  0.93285  Biso   1.000  H
  C65      1.0000 0.47296  0.08482  0.89539  Biso   1.000  C
  C66      1.0000 0.47433  0.19639  0.83467  Biso   1.000  C
  H41      1.0000 0.29577  0.03918  0.35597  Biso   1.000  H
  C67      1.0000 0.16799  0.02135  0.28949  Biso   1.000  C
  H42      1.0000 0.05820  0.03377  0.22789  Biso   1.000  H
  C68      1.0000 0.92802  0.41619  0.77156  Biso   1.000  C
  C69      1.0000 0.07722  0.41685  0.80064  Biso   1.000  C
  C70      1.0000 0.39276  0.46151  0.52860  Biso   1.000  C
  C71      1.0000 0.49706  0.49330  0.64848  Biso   1.000  C
  H43      1.0000 0.53195  0.10826  0.92337  Biso   1.000  H
  N9       1.0000 0.55562  0.22646  0.85875  Biso   1.000  N
  H44      1.0000 0.43965  0.22348  0.80576  Biso   1.000  H
  H45      1.0000 0.15104  0.95958  0.27849  Biso   1.000  H
  H46      1.0000 0.87029  0.38540  0.75865  Biso   1.000  H
  C72      1.0000 0.93881  0.50542  0.77709  Biso   1.000  C
  C73      1.0000 0.09221  0.50807  0.80605  Biso   1.000  C
  H47      1.0000 0.12532  0.38789  0.80925  Biso   1.000  H
  H48      1.0000 0.36622  0.42349  0.47556  Biso   1.000  H
  C74      1.0000 0.36186  0.54103  0.56490  Biso   1.000  C
  C75      1.0000 0.46362  0.57139  0.68460  Biso   1.000  C
  H49      1.0000 0.54383  0.47799  0.67809  Biso   1.000  H
  C76      1.0000 0.59015  0.29201  0.83327  Biso   1.000  C
  H50      1.0000 0.89030  0.53410  0.76918  Biso   1.000  H
  C77      1.0000 0.01984  0.54758  0.79390  Biso   1.000  C
  C78      1.0000 0.18184  0.55245  0.82275  Biso   1.000  C
  H51      1.0000 0.31666  0.55793  0.53500  Biso   1.000  H
  C79      1.0000 0.39451  0.59422  0.64098  Biso   1.000  C
  H52      1.0000 0.48766  0.60860  0.73817  Biso   1.000  H
  C80      1.0000 0.56327  0.28351  0.75638  Biso   1.000  C
  C81      1.0000 0.65474  0.36026  0.88295  Biso   1.000  C
  H53      1.0000 0.02843  0.60777  0.79768  Biso   1.000  H
  N10      1.0000 0.20004  0.63010  0.82245  Biso   1.000  N
  H54      1.0000 0.22803  0.52242  0.83409  Biso   1.000  H
  H55      1.0000 0.37113  0.64652  0.66489  Biso   1.000  H
  H56      1.0000 0.51791  0.23591  0.72049  Biso   1.000  H
  C82      1.0000 0.60005  0.34141  0.73236  Biso   1.000  C
  C83      1.0000 0.69233  0.42259  0.85875  Biso   1.000  C
  H57      1.0000 0.67509  0.36629  0.93506  Biso   1.000  H
  C84      1.0000 0.28775  0.67090  0.84217  Biso   1.000  C
  H58      1.0000 0.58065  0.33387  0.67978  Biso   1.000  H
  C85      1.0000 0.66652  0.41227  0.78325  Biso   1.000  C
  H59      1.0000 0.73570  0.47190  0.89516  Biso   1.000  H
  C86      1.0000 0.31347  0.72296  0.80547  Biso   1.000  C
  C87      1.0000 0.34942  0.66920  0.90627  Biso   1.000  C
  H60      1.0000 0.69314  0.45261  0.76586  Biso   1.000  H
  H61      1.0000 0.27224  0.72920  0.76499  Biso   1.000  H
  C88      1.0000 0.39964  0.76698  0.82705  Biso   1.000  C
  C89      1.0000 0.43374  0.71399  0.92768  Biso   1.000  C
  H62      1.0000 0.33255  0.63674  0.93465  Biso   1.000  H
  H63      1.0000 0.41645  0.80037  0.79936  Biso   1.000  H
  C90      1.0000 0.45656  0.76336  0.88347  Biso   1.000  C
  H64      1.0000 0.47556  0.71235  0.97008  Biso   1.000  H
  H65      1.0000 0.51455  0.79359  0.89638  Biso   1.000  H
  C91      1.0000 0.23458  0.40413  0.62836  Biso   1.000  C
  N11      1.0000 0.21197  0.33573  0.64598  Biso   1.000  N
  H66      1.0000 0.29450  0.42874  0.64150  Biso   1.000  H
  C92      1.0000 0.17247  0.44254  0.59026  Biso   1.000  C
  B6       1.0000 0.28430  0.29442  0.68460  Biso   1.000  B
  C93      1.0000 0.12546  0.30224  0.63179  Biso   1.000  C
  C94      1.0000 0.08717  0.40745  0.57566  Biso   1.000  C
  H67      1.0000 0.18990  0.48993  0.57595  Biso   1.000  H
  O11      1.0000 0.35586  0.28922  0.64115  Biso   1.000  O
  O12      1.0000 0.24869  0.19652  0.66285  Biso   1.000  O
  C95      1.0000 0.31894  0.35073  0.77627  Biso   1.000  C
  C96      1.0000 0.06249  0.33562  0.59666  Biso   1.000  C
  H68      1.0000 0.10960  0.25505  0.64680  Biso   1.000  H
  O13      1.0000 0.01691  0.43112  0.54099  Biso   1.000  O
  C97      1.0000 0.35680  0.20476  0.60259  Biso   1.000  C
  C98      1.0000 0.29417  0.14784  0.61550  Biso   1.000  C
  C99      1.0000 0.38478  0.42760  0.80646  Biso   1.000  C
  C100     1.0000 0.29288  0.32183  0.82856  Biso   1.000  C
  O14      1.0000 0.97646  0.31176  0.57799  Biso   1.000  O
  B7       1.0000 0.93803  0.36442  0.53198  Biso   1.000  B
  C101     1.0000 0.41047  0.16825  0.55676  Biso   1.000  C
  C102     1.0000 0.28786  0.05665  0.58247  Biso   1.000  C
  H69      1.0000 0.40384  0.45001  0.77226  Biso   1.000  H
  C103     1.0000 0.42043  0.46897  0.88405  Biso   1.000  C
  C104     1.0000 0.32936  0.36079  0.90627  Biso   1.000  C
  H70      1.0000 0.24678  0.27202  0.80908  Biso   1.000  H
  N12      1.0000 0.90826  0.29677  0.44467  Biso   1.000  N
  C105     1.0000 0.86260  0.41504  0.56350  Biso   1.000  C
  C106     1.0000 0.39946  0.07186  0.52209  Biso   1.000  C
  H71      1.0000 0.45330  0.20485  0.54838  Biso   1.000  H
  N13      1.0000 0.33998  0.01936  0.53390  Biso   1.000  N
  H72      1.0000 0.24794  0.01916  0.59276  Biso   1.000  H
  H73      1.0000 0.46493  0.52032  0.90365  Biso   1.000  H
  C107     1.0000 0.39374  0.43861  0.93559  Biso   1.000  C
  C108     1.0000 0.30458  0.31858  0.95618  Biso   1.000  C
  C109     1.0000 0.87115  0.20959  0.42530  Biso   1.000  C
  C110     1.0000 0.91865  0.32353  0.38819  Biso   1.000  C
  C111     1.0000 0.78955  0.37096  0.57421  Biso   1.000  C
  C112     1.0000 0.86793  0.50754  0.58386  Biso   1.000  C
  H74      1.0000 0.43557  0.04433  0.48946  Biso   1.000  H
  B8       1.0000 0.33291  0.91216  0.49667  Biso   1.000  B
  H75      1.0000 0.41848  0.46961  0.98997  Biso   1.000  H
  H76      1.0000 0.25316  0.27469  0.93605  Biso   1.000  H
  N14      1.0000 0.34813  0.33774  0.02405  Biso   1.000  N
  C113     1.0000 0.84958  0.14982  0.35056  Biso   1.000  C
  H77      1.0000 0.86064  0.19114  0.46468  Biso   1.000  H
  H78      1.0000 0.94157  0.38494  0.40239  Biso   1.000  H
  C114     1.0000 0.89656  0.26363  0.30787  Biso   1.000  C
  H79      1.0000 0.78253  0.30774  0.56007  Biso   1.000  H
  C115     1.0000 0.72735  0.41826  0.60509  Biso   1.000  C
  C116     1.0000 0.80746  0.55464  0.61498  Biso   1.000  C
  H80      1.0000 0.91533  0.53911  0.57607  Biso   1.000  H
  O15      1.0000 0.35548  0.88744  0.41937  Biso   1.000  O
  O16      1.0000 0.23933  0.87188  0.47690  Biso   1.000  O
  C117     1.0000 0.39691  0.87957  0.55745  Biso   1.000  C
  C118     1.0000 0.32410  0.28279  0.06396  Biso   1.000  C
  O17      1.0000 0.81117  0.06279  0.32037  Biso   1.000  O
  C119     1.0000 0.86220  0.17637  0.28978  Biso   1.000  C
  H81      1.0000 0.90546  0.28345  0.26890  Biso   1.000  H
  H82      1.0000 0.67834  0.38703  0.61108  Biso   1.000  H
  C120     1.0000 0.73686  0.50991  0.62667  Biso   1.000  C
  C121     1.0000 0.82006  0.65310  0.63237  Biso   1.000  C
  C122     1.0000 0.28203  0.85309  0.36667  Biso   1.000  C
  C123     1.0000 0.21071  0.84398  0.39977  Biso   1.000  C
  C124     1.0000 0.42258  0.92595  0.63918  Biso   1.000  C
  C125     1.0000 0.42341  0.79742  0.52546  Biso   1.000  C
  C126     1.0000 0.33011  0.32627  0.14434  Biso   1.000  C
  C127     1.0000 0.30400  0.18779  0.02830  Biso   1.000  C
  B9       1.0000 0.79875  0.02786  0.23307  Biso   1.000  B
  O18      1.0000 0.83561  0.10886  0.22132  Biso   1.000  O
  H83      1.0000 0.69575  0.54254  0.64936  Biso   1.000  H
  N15      1.0000 0.76135  0.70081  0.65145  Biso   1.000  N
  H84      1.0000 0.87277  0.68125  0.62917  Biso   1.000  H
  C128     1.0000 0.26553  0.82338  0.28646  Biso   1.000  C
  C129     1.0000 0.12888  0.80634  0.35376  Biso   1.000  C
  H85      1.0000 0.40797  0.98374  0.66256  Biso   1.000  H
  C130     1.0000 0.46811  0.88913  0.68518  Biso   1.000  C
  C131     1.0000 0.47371  0.76014  0.56967  Biso   1.000  C
  H86      1.0000 0.40627  0.76526  0.47056  Biso   1.000  H
  H87      1.0000 0.34450  0.38995  0.16964  Biso   1.000  H
  C132     1.0000 0.31491  0.27537  0.18645  Biso   1.000  C
  H88      1.0000 0.30068  0.15641  0.97456  Biso   1.000  H
  C133     1.0000 0.28951  0.14189  0.07268  Biso   1.000  C
  N16      1.0000 0.86001  0.95408  0.21096  Biso   1.000  N
  C134     1.0000 0.70149  0.98480  0.18467  Biso   1.000  C
  C135     1.0000 0.78777  0.79551  0.67175  Biso   1.000  C
  C136     1.0000 0.17872  0.78671  0.24278  Biso   1.000  C
  H89      1.0000 0.31071  0.82745  0.26198  Biso   1.000  H
  N17      1.0000 0.11209  0.78115  0.27599  Biso   1.000  N
  H90      1.0000 0.08322  0.79770  0.37650  Biso   1.000  H
  H91      1.0000 0.48080  0.91922  0.74027  Biso   1.000  H
  C137     1.0000 0.49651  0.80584  0.65087  Biso   1.000  C
  C138     1.0000 0.50529  0.67494  0.53337  Biso   1.000  C
  H92      1.0000 0.31748  0.30425  0.24025  Biso   1.000  H
  C139     1.0000 0.29622  0.18317  0.14928  Biso   1.000  C
  H93      1.0000 0.27408  0.07818  0.04825  Biso   1.000  H
  C140     1.0000 0.88177  0.90619  0.25517  Biso   1.000  C
  C141     1.0000 0.88327  0.93267  0.14448  Biso   1.000  C
  C142     1.0000 0.65530  0.91070  0.19061  Biso   1.000  C
  C143     1.0000 0.65649  0.01935  0.13698  Biso   1.000  C
  C144     1.0000 0.72788  0.84055  0.64499  Biso   1.000  C
  C145     1.0000 0.86574  0.84344  0.72160  Biso   1.000  C
  H94      1.0000 0.16633  0.76500  0.18770  Biso   1.000  H
  B10      1.0000 0.01780  0.73351  0.22690  Biso   1.000  B
  H95      1.0000 0.53047  0.78146  0.68257  Biso   1.000  H
  N18      1.0000 0.50144  0.63965  0.46131  Biso   1.000  N
  H96      1.0000 0.52939  0.64568  0.56531  Biso   1.000  H
  H97      1.0000 0.28783  0.14813  0.17808  Biso   1.000  H
  C146     1.0000 0.93063  0.84091  0.23411  Biso   1.000  C
  H98      1.0000 0.86250  0.91887  0.30118  Biso   1.000  H
  C147     1.0000 0.93358  0.86342  0.11819  Biso   1.000  C
  H99      1.0000 0.86572  0.96471  0.11307  Biso   1.000  H
  H100     1.0000 0.68498  0.88400  0.22248  Biso   1.000  H
  C148     1.0000 0.56974  0.87589  0.15239  Biso   1.000  C
  C149     1.0000 0.56988  0.98717  0.09818  Biso   1.000  C
  H101     1.0000 0.68587  0.06781  0.13012  Biso   1.000  H
  H102     1.0000 0.67206  0.80782  0.61335  Biso   1.000  H
  C150     1.0000 0.74617  0.93059  0.66256  Biso   1.000  C
  C151     1.0000 0.88655  0.93421  0.73875  Biso   1.000  C
  H103     1.0000 0.90555  0.81450  0.74428  Biso   1.000  H
  O19      1.0000 0.95678  0.78670  0.26977  Biso   1.000  O
  O20      1.0000 0.00290  0.75090  0.15332  Biso   1.000  O
  C152     1.0000 0.00649  0.62871  0.21678  Biso   1.000  C
  C153     1.0000 0.53751  0.56174  0.42967  Biso   1.000  C
  C154     1.0000 0.95771  0.81680  0.16420  Biso   1.000  C
  H104     1.0000 0.94978  0.84998  0.07067  Biso   1.000  H
  C155     1.0000 0.52703  0.91508  0.10458  Biso   1.000  C
  C156     1.0000 0.52560  0.80351  0.16531  Biso   1.000  C
  H105     1.0000 0.54029  0.01493  0.06712  Biso   1.000  H
  H106     1.0000 0.70415  0.96072  0.64400  Biso   1.000  H
  C157     1.0000 0.83193  0.97855  0.71049  Biso   1.000  C
  H107     1.0000 0.94179  0.96612  0.77208  Biso   1.000  H
  C158     1.0000 0.92269  0.58302  0.19927  Biso   1.000  C
  C159     1.0000 0.07191  0.58370  0.22841  Biso   1.000  C
  C160     1.0000 0.60723  0.53839  0.47137  Biso   1.000  C
  C161     1.0000 0.50292  0.50660  0.35149  Biso   1.000  C
  H108     1.0000 0.46803  0.89163  0.07660  Biso   1.000  H
  N19      1.0000 0.44429  0.77341  0.14117  Biso   1.000  N
  H109     1.0000 0.56034  0.77641  0.19421  Biso   1.000  H
  H110     1.0000 0.84895  0.04031  0.72148  Biso   1.000  H
  C162     1.0000 0.90770  0.49180  0.19386  Biso   1.000  C
  H111     1.0000 0.87459  0.61198  0.19067  Biso   1.000  H
  H112     1.0000 0.12962  0.61447  0.24127  Biso   1.000  H
  C163     1.0000 0.06111  0.49447  0.22289  Biso   1.000  C
  H113     1.0000 0.63369  0.57638  0.52436  Biso   1.000  H
  C164     1.0000 0.63807  0.45886  0.43507  Biso   1.000  C
  C165     1.0000 0.53630  0.42845  0.31537  Biso   1.000  C
  H114     1.0000 0.45610  0.52190  0.32189  Biso   1.000  H
  C166     1.0000 0.40984  0.70788  0.16670  Biso   1.000  C
  C167     1.0000 0.98009  0.45231  0.20608  Biso   1.000  C
  C168     1.0000 0.81813  0.44742  0.17717  Biso   1.000  C
  H115     1.0000 0.10963  0.46580  0.23080  Biso   1.000  H
  H116     1.0000 0.68327  0.44197  0.46497  Biso   1.000  H
  C169     1.0000 0.60541  0.40568  0.35899  Biso   1.000  C
  H117     1.0000 0.51233  0.39129  0.26180  Biso   1.000  H
  C170     1.0000 0.43672  0.71639  0.24360  Biso   1.000  C
  C171     1.0000 0.34523  0.63960  0.11697  Biso   1.000  C
  H118     1.0000 0.97150  0.39212  0.20230  Biso   1.000  H
  N20      1.0000 0.79989  0.36980  0.17752  Biso   1.000  N
  H119     1.0000 0.77190  0.47748  0.16589  Biso   1.000  H
  H120     1.0000 0.62880  0.35337  0.33509  Biso   1.000  H
  H121     1.0000 0.48201  0.76398  0.27948  Biso   1.000  H
  C172     1.0000 0.39994  0.65848  0.26762  Biso   1.000  C
  C173     1.0000 0.30758  0.57728  0.14117  Biso   1.000  C
  H122     1.0000 0.32483  0.63361  0.06491  Biso   1.000  H
  C174     1.0000 0.71224  0.32899  0.15780  Biso   1.000  C
  H123     1.0000 0.41934  0.66596  0.32020  Biso   1.000  H
  C175     1.0000 0.33339  0.58760  0.21666  Biso   1.000  C
  H124     1.0000 0.26423  0.52799  0.10481  Biso   1.000  H
  C176     1.0000 0.68652  0.27693  0.19450  Biso   1.000  C
  C177     1.0000 0.65051  0.33070  0.09370  Biso   1.000  C
  H125     1.0000 0.30685  0.54728  0.23411  Biso   1.000  H
  H126     1.0000 0.72769  0.27070  0.23499  Biso   1.000  H
  C178     1.0000 0.60033  0.23289  0.17287  Biso   1.000  C
  C179     1.0000 0.56619  0.28591  0.07230  Biso   1.000  C
  H127     1.0000 0.66744  0.36309  0.06532  Biso   1.000  H
  H128     1.0000 0.58354  0.19953  0.20061  Biso   1.000  H
  C180     1.0000 0.54343  0.23654  0.11650  Biso   1.000  C
  H129     1.0000 0.52443  0.28749  0.02990  Biso   1.000  H
  H130     1.0000 0.48544  0.20630  0.10359  Biso   1.000  H
