data_image0
_cell_length_a       13.225
_cell_length_b       14.709
_cell_length_c       17.609
_cell_angle_alpha    71.84
_cell_angle_beta     81.37
_cell_angle_gamma    83.91

_symmetry_space_group_name_H-M    "P 1"
_symmetry_int_tables_number       1

loop_
  _symmetry_equiv_pos_as_xyz
  'x, y, z'

loop_
  _atom_site_label
  _atom_site_occupancy
  _atom_site_fract_x
  _atom_site_fract_y
  _atom_site_fract_z
  _atom_site_thermal_displace_type
  _atom_site_B_iso_or_equiv
  _atom_site_type_symbol
  C1       1.0000 0.88856  0.45105  0.46624  Biso   1.000  C
  C2       1.0000 0.89267  0.44577  0.39011  Biso   1.000  C
  C3       1.0000 0.95160  0.38498  0.51671  Biso   1.000  C
  H1       1.0000 0.84463  0.49764  0.48413  Biso   1.000  H
  N1       1.0000 0.95274  0.37968  0.36312  Biso   1.000  N
  H2       1.0000 0.85125  0.49085  0.35433  Biso   1.000  H
  C4       1.0000 0.01197  0.31514  0.48894  Biso   1.000  C
  O1       1.0000 0.96365  0.37778  0.59200  Biso   1.000  O
  B1       1.0000 0.95623  0.37958  0.27079  Biso   1.000  B
  C5       1.0000 0.01486  0.31469  0.41191  Biso   1.000  C
  O2       1.0000 0.06674  0.25814  0.54634  Biso   1.000  O
  B2       1.0000 0.03437  0.28817  0.61982  Biso   1.000  B
  O3       1.0000 0.97436  0.27706  0.27278  Biso   1.000  O
  O4       1.0000 0.84954  0.40705  0.25001  Biso   1.000  O
  C6       1.0000 0.04287  0.44310  0.21369  Biso   1.000  C
  H3       1.0000 0.05949  0.26989  0.39209  Biso   1.000  H
  N2       1.0000 0.96334  0.21126  0.68240  Biso   1.000  N
  C7       1.0000 0.13025  0.30396  0.65933  Biso   1.000  C
  C8       1.0000 0.88178  0.24832  0.27019  Biso   1.000  C
  C9       1.0000 0.80896  0.32500  0.25863  Biso   1.000  C
  C10      1.0000 0.10168  0.50208  0.23381  Biso   1.000  C
  C11      1.0000 0.06018  0.44172  0.13238  Biso   1.000  C
  C12      1.0000 0.98224  0.11724  0.68951  Biso   1.000  C
  C13      1.0000 0.88629  0.23883  0.73125  Biso   1.000  C
  C14      1.0000 0.22727  0.31006  0.61482  Biso   1.000  C
  C15      1.0000 0.12185  0.31676  0.73281  Biso   1.000  C
  C16      1.0000 0.85569  0.15898  0.27910  Biso   1.000  C
  C17      1.0000 0.70909  0.30937  0.25339  Biso   1.000  C
  H4       1.0000 0.09117  0.50665  0.28711  Biso   1.000  H
  C18      1.0000 0.17392  0.55346  0.17948  Biso   1.000  C
  C19      1.0000 0.13078  0.49473  0.07848  Biso   1.000  C
  H5       1.0000 0.02102  0.40239  0.11582  Biso   1.000  H
  C20      1.0000 0.92652  0.05194  0.74775  Biso   1.000  C
  H6       1.0000 0.03446  0.09703  0.65391  Biso   1.000  H
  C21      1.0000 0.82801  0.17653  0.79142  Biso   1.000  C
  H7       1.0000 0.87162  0.30556  0.72324  Biso   1.000  H
  H8       1.0000 0.23694  0.30435  0.56182  Biso   1.000  H
  C22      1.0000 0.30712  0.32419  0.64849  Biso   1.000  C
  C23      1.0000 0.20547  0.33410  0.76534  Biso   1.000  C
  H9       1.0000 0.05621  0.31376  0.76371  Biso   1.000  H
  N3       1.0000 0.75732  0.14490  0.27489  Biso   1.000  N
  H10      1.0000 0.90565  0.10656  0.28820  Biso   1.000  H
  C24      1.0000 0.68562  0.21861  0.26399  Biso   1.000  C
  H11      1.0000 0.65837  0.36110  0.24279  Biso   1.000  H
  F1       1.0000 0.23274  0.60951  0.20093  Biso   1.000  F
  C25      1.0000 0.19192  0.55306  0.10022  Biso   1.000  C
  H12      1.0000 0.13969  0.49273  0.02451  Biso   1.000  H
  O5       1.0000 0.93465  0.95667  0.76293  Biso   1.000  O
  C26      1.0000 0.84859  0.08187  0.79840  Biso   1.000  C
  H13      1.0000 0.77604  0.19801  0.82653  Biso   1.000  H
  F2       1.0000 0.40294  0.32752  0.60404  Biso   1.000  F
  C27      1.0000 0.30121  0.33680  0.72095  Biso   1.000  C
  H14      1.0000 0.19661  0.34383  0.81683  Biso   1.000  H
  B3       1.0000 0.73648  0.04021  0.27338  Biso   1.000  B
  H15      1.0000 0.61656  0.20648  0.26369  Biso   1.000  H
  H16      1.0000 0.24248  0.59013  0.06258  Biso   1.000  H
  B4       1.0000 0.84887  0.91836  0.82810  Biso   1.000  B
  O6       1.0000 0.80393  0.00470  0.85104  Biso   1.000  O
  H17      1.0000 0.36023  0.34733  0.74100  Biso   1.000  H
  O7       1.0000 0.62339  0.02718  0.30061  Biso   1.000  O
  C28      1.0000 0.77388  0.02878  0.18828  Biso   1.000  C
  O8       1.0000 0.78497  0.96980  0.34210  Biso   1.000  O
  N4       1.0000 0.76263  0.89321  0.78262  Biso   1.000  N
  C29      1.0000 0.87858  0.83371  0.89893  Biso   1.000  C
  C30      1.0000 0.61169  0.96870  0.37589  Biso   1.000  C
  C31      1.0000 0.75838  0.10158  0.11919  Biso   1.000  C
  C32      1.0000 0.82052  0.94336  0.18051  Biso   1.000  C
  C33      1.0000 0.71021  0.93384  0.40071  Biso   1.000  C
  C34      1.0000 0.79379  0.84172  0.72974  Biso   1.000  C
  C35      1.0000 0.66297  0.91500  0.79852  Biso   1.000  C
  C36      1.0000 0.81271  0.76573  0.94482  Biso   1.000  C
  C37      1.0000 0.97645  0.82255  0.92133  Biso   1.000  C
  C38      1.0000 0.52671  0.93756  0.42564  Biso   1.000  C
  H18      1.0000 0.72753  0.16175  0.12263  Biso   1.000  H
  C39      1.0000 0.78669  0.08781  0.04692  Biso   1.000  C
  C40      1.0000 0.85121  0.93406  0.10510  Biso   1.000  C
  H19      1.0000 0.83136  0.89118  0.22713  Biso   1.000  H
  C41      1.0000 0.71671  0.87113  0.47521  Biso   1.000  C
  C42      1.0000 0.72404  0.81777  0.69180  Biso   1.000  C
  H20      1.0000 0.86412  0.82285  0.71962  Biso   1.000  H
  C43      1.0000 0.58815  0.89062  0.76504  Biso   1.000  C
  H21      1.0000 0.64288  0.95015  0.83593  Biso   1.000  H
  H22      1.0000 0.74597  0.76946  0.93000  Biso   1.000  H
  C44      1.0000 0.83812  0.69273  0.01101  Biso   1.000  C
  C45      1.0000 0.00475  0.74622  0.98861  Biso   1.000  C
  H23      1.0000 0.02577  0.86680  0.89092  Biso   1.000  H
  C46      1.0000 0.53820  0.87544  0.50021  Biso   1.000  C
  H24      1.0000 0.46062  0.95817  0.40932  Biso   1.000  H
  C47      1.0000 0.83709  0.00319  0.03578  Biso   1.000  C
  F3       1.0000 0.77140  0.16432  0.97874  Biso   1.000  F
  H25      1.0000 0.88467  0.87487  0.10161  Biso   1.000  H
  N5       1.0000 0.63098  0.84227  0.52544  Biso   1.000  N
  H26      1.0000 0.78199  0.84754  0.49202  Biso   1.000  H
  O9       1.0000 0.73864  0.76922  0.63645  Biso   1.000  O
  C48      1.0000 0.62179  0.84023  0.71041  Biso   1.000  C
  H27      1.0000 0.51769  0.90695  0.77805  Biso   1.000  H
  F4       1.0000 0.77008  0.62784  0.05570  Biso   1.000  F
  C49      1.0000 0.93591  0.68105  0.03408  Biso   1.000  C
  H28      1.0000 0.07250  0.74037  0.00228  Biso   1.000  H
  H29      1.0000 0.47837  0.85434  0.53622  Biso   1.000  H
  H30      1.0000 0.85899  0.99526  0.98422  Biso   1.000  H
  B5       1.0000 0.63514  0.76562  0.61272  Biso   1.000  B
  O10      1.0000 0.56306  0.80716  0.66855  Biso   1.000  O
  H31      1.0000 0.95417  0.63030  0.07937  Biso   1.000  H
  C50      1.0000 0.61100  0.66473  0.61302  Biso   1.000  C
  C51      1.0000 0.51341  0.64132  0.60814  Biso   1.000  C
  C52      1.0000 0.68838  0.58885  0.61832  Biso   1.000  C
  H32      1.0000 0.45889  0.68936  0.60591  Biso   1.000  H
  C53      1.0000 0.49135  0.55374  0.60639  Biso   1.000  C
  C54      1.0000 0.66550  0.49984  0.61964  Biso   1.000  C
  H33      1.0000 0.75698  0.60012  0.62103  Biso   1.000  H
  F5       1.0000 0.39541  0.53795  0.60543  Biso   1.000  F
  C55      1.0000 0.56755  0.47984  0.61229  Biso   1.000  C
  F6       1.0000 0.73958  0.43065  0.62880  Biso   1.000  F
  H34      1.0000 0.55337  0.41829  0.61139  Biso   1.000  H
  C56      1.0000 0.11139  0.54883  0.53381  Biso   1.000  C
  C57      1.0000 0.04826  0.61497  0.48334  Biso   1.000  C
  C58      1.0000 0.10727  0.55411  0.60994  Biso   1.000  C
  H35      1.0000 0.15524  0.50225  0.51593  Biso   1.000  H
  O11      1.0000 0.03630  0.62219  0.40800  Biso   1.000  O
  C59      1.0000 0.98790  0.68475  0.51111  Biso   1.000  C
  N6       1.0000 0.04712  0.62027  0.63693  Biso   1.000  N
  H36      1.0000 0.14862  0.50903  0.64572  Biso   1.000  H
  B6       1.0000 0.96556  0.71179  0.38023  Biso   1.000  B
  O12      1.0000 0.93313  0.74174  0.45371  Biso   1.000  O
  C60      1.0000 0.98500  0.68526  0.58814  Biso   1.000  C
  B7       1.0000 0.04365  0.62032  0.72920  Biso   1.000  B
  N7       1.0000 0.03660  0.78871  0.31759  Biso   1.000  N
  C61      1.0000 0.86961  0.69599  0.34072  Biso   1.000  C
  H37      1.0000 0.94045  0.73008  0.60790  Biso   1.000  H
  O13      1.0000 0.15033  0.59283  0.75004  Biso   1.000  O
  O14      1.0000 0.02552  0.72284  0.72721  Biso   1.000  O
  C62      1.0000 0.95700  0.55687  0.78630  Biso   1.000  C
  C63      1.0000 0.01771  0.88267  0.31048  Biso   1.000  C
  C64      1.0000 0.11358  0.76105  0.26880  Biso   1.000  C
  C65      1.0000 0.77267  0.68989  0.38523  Biso   1.000  C
  C66      1.0000 0.87803  0.68321  0.26718  Biso   1.000  C
  C67      1.0000 0.19098  0.67495  0.74143  Biso   1.000  C
  C68      1.0000 0.11816  0.75165  0.72980  Biso   1.000  C
  C69      1.0000 0.89819  0.49780  0.76624  Biso   1.000  C
  C70      1.0000 0.93969  0.55825  0.86761  Biso   1.000  C
  C71      1.0000 0.07335  0.94801  0.25230  Biso   1.000  C
  H38      1.0000 0.96541  0.90285  0.34614  Biso   1.000  H
  H39      1.0000 0.12824  0.69439  0.27682  Biso   1.000  H
  C72      1.0000 0.17186  0.82335  0.20864  Biso   1.000  C
  H40      1.0000 0.76293  0.69553  0.43823  Biso   1.000  H
  C73      1.0000 0.69275  0.67579  0.35150  Biso   1.000  C
  C74      1.0000 0.79447  0.66578  0.23471  Biso   1.000  C
  H41      1.0000 0.94366  0.68621  0.23628  Biso   1.000  H
  C75      1.0000 0.29087  0.69053  0.74661  Biso   1.000  C
  C76      1.0000 0.14426  0.84090  0.72095  Biso   1.000  C
  H42      1.0000 0.90870  0.49323  0.71294  Biso   1.000  H
  C77      1.0000 0.82604  0.44644  0.82051  Biso   1.000  C
  C78      1.0000 0.86909  0.50524  0.92151  Biso   1.000  C
  H43      1.0000 0.97891  0.59756  0.88423  Biso   1.000  H
  C79      1.0000 0.15128  0.91810  0.20159  Biso   1.000  C
  O15      1.0000 0.06521  0.04328  0.23712  Biso   1.000  O
  H44      1.0000 0.22391  0.80187  0.17352  Biso   1.000  H
  F7       1.0000 0.59693  0.67236  0.39601  Biso   1.000  F
  C80      1.0000 0.69866  0.66308  0.27910  Biso   1.000  C
  H45      1.0000 0.80326  0.65605  0.18322  Biso   1.000  H
  C81      1.0000 0.31425  0.78136  0.73601  Biso   1.000  C
  H46      1.0000 0.34157  0.63887  0.75721  Biso   1.000  H
  N8       1.0000 0.24255  0.85507  0.72510  Biso   1.000  N
  H47      1.0000 0.09423  0.89334  0.71179  Biso   1.000  H
  F8       1.0000 0.76712  0.39044  0.79913  Biso   1.000  F
  C82      1.0000 0.80803  0.44682  0.89983  Biso   1.000  C
  H48      1.0000 0.86018  0.50722  0.97554  Biso   1.000  H
  O16      1.0000 0.19602  0.99519  0.14901  Biso   1.000  O
  B8       1.0000 0.15107  0.08162  0.17190  Biso   1.000  B
  H49      1.0000 0.63965  0.65258  0.25899  Biso   1.000  H
  H50      1.0000 0.38332  0.79342  0.73631  Biso   1.000  H
  B9       1.0000 0.26347  0.95976  0.72661  Biso   1.000  B
  H51      1.0000 0.75739  0.40984  0.93741  Biso   1.000  H
  N9       1.0000 0.23724  0.10668  0.21743  Biso   1.000  N
  C83      1.0000 0.12136  0.16617  0.10113  Biso   1.000  C
  O17      1.0000 0.37656  0.97270  0.69945  Biso   1.000  O
  C84      1.0000 0.22607  0.97113  0.81171  Biso   1.000  C
  O18      1.0000 0.21489  0.03015  0.65795  Biso   1.000  O
  C85      1.0000 0.20616  0.15816  0.27031  Biso   1.000  C
  C86      1.0000 0.33690  0.08488  0.20153  Biso   1.000  C
  C87      1.0000 0.18716  0.23415  0.05523  Biso   1.000  C
  C88      1.0000 0.02342  0.17740  0.07872  Biso   1.000  C
  C89      1.0000 0.38818  0.03127  0.62410  Biso   1.000  C
  C90      1.0000 0.24158  0.89832  0.88080  Biso   1.000  C
  C91      1.0000 0.17942  0.05652  0.81954  Biso   1.000  C
  C92      1.0000 0.28974  0.06604  0.59934  Biso   1.000  C
  C93      1.0000 0.27583  0.18220  0.30819  Biso   1.000  C
  H52      1.0000 0.13574  0.17710  0.28043  Biso   1.000  H
  H53      1.0000 0.35706  0.04980  0.16413  Biso   1.000  H
  C94      1.0000 0.41172  0.10927  0.23502  Biso   1.000  C
  C95      1.0000 0.16183  0.30715  0.98904  Biso   1.000  C
  H54      1.0000 0.25398  0.23051  0.06999  Biso   1.000  H
  C96      1.0000 0.99513  0.25368  0.01138  Biso   1.000  C
  H55      1.0000 0.97411  0.13310  0.10908  Biso   1.000  H
  C97      1.0000 0.47323  0.06232  0.57441  Biso   1.000  C
  H56      1.0000 0.27234  0.83813  0.87742  Biso   1.000  H
  C98      1.0000 0.21324  0.91214  0.95313  Biso   1.000  C
  C99      1.0000 0.14866  0.06582  0.89495  Biso   1.000  C
  H57      1.0000 0.16851  0.10877  0.77293  Biso   1.000  H
  C100     1.0000 0.28324  0.12876  0.52484  Biso   1.000  C
  O19      1.0000 0.26123  0.23066  0.36361  Biso   1.000  O
  C101     1.0000 0.37816  0.15967  0.28958  Biso   1.000  C
  H58      1.0000 0.48225  0.09300  0.22201  Biso   1.000  H
  F9       1.0000 0.22979  0.37204  0.94435  Biso   1.000  F
  C102     1.0000 0.06405  0.31885  0.96591  Biso   1.000  C
  H59      1.0000 0.92738  0.25954  0.99771  Biso   1.000  H
  C103     1.0000 0.46176  0.12446  0.49979  Biso   1.000  C
  H60      1.0000 0.53932  0.04171  0.59073  Biso   1.000  H
  C104     1.0000 0.16287  0.99672  0.96422  Biso   1.000  C
  F10      1.0000 0.22847  0.83556  0.02131  Biso   1.000  F
  H61      1.0000 0.11520  0.12501  0.89844  Biso   1.000  H
  N10      1.0000 0.36895  0.15768  0.47461  Biso   1.000  N
  H62      1.0000 0.21795  0.15234  0.50804  Biso   1.000  H
  B10      1.0000 0.36473  0.23426  0.38734  Biso   1.000  B
  O20      1.0000 0.43680  0.19279  0.33150  Biso   1.000  O
  H63      1.0000 0.04570  0.36967  0.92062  Biso   1.000  H
  H64      1.0000 0.52150  0.14554  0.46383  Biso   1.000  H
  H65      1.0000 0.14089  0.00465  0.01577  Biso   1.000  H
  C105     1.0000 0.38895  0.33515  0.38704  Biso   1.000  C
  C106     1.0000 0.48654  0.35857  0.39191  Biso   1.000  C
  C107     1.0000 0.31149  0.41103  0.38174  Biso   1.000  C
  H66      1.0000 0.54099  0.31054  0.39408  Biso   1.000  H
  C108     1.0000 0.50853  0.44616  0.39360  Biso   1.000  C
  C109     1.0000 0.33445  0.50004  0.38041  Biso   1.000  C
  H67      1.0000 0.24296  0.39976  0.37902  Biso   1.000  H
  F11      1.0000 0.60453  0.46193  0.39462  Biso   1.000  F
  C110     1.0000 0.43233  0.52006  0.38770  Biso   1.000  C
  F12      1.0000 0.26037  0.56925  0.37119  Biso   1.000  F
  H68      1.0000 0.44650  0.58169  0.38860  Biso   1.000  H
  Ne1      1.0000 0.85664  0.06058  0.51831  Biso   1.000  Ne
  He1      1.0000 0.83543  0.08543  0.51846  Biso   1.000  He
  He2      1.0000 0.88809  0.05496  0.51019  Biso   1.000  He
  Ar1      1.0000 0.86089  0.07071  0.51446  Biso   1.000  Ar
  Ne2      1.0000 0.14326  0.93934  0.48172  Biso   1.000  Ne
  He3      1.0000 0.11477  0.94322  0.48939  Biso   1.000  He
  He4      1.0000 0.16943  0.91159  0.48080  Biso   1.000  He
  Ar2      1.0000 0.13903  0.92918  0.48558  Biso   1.000  Ar
