data_image0
_cell_length_a       14.865
_cell_length_b       15.086
_cell_length_c       15.349
_cell_angle_alpha    100.49
_cell_angle_beta     98.18
_cell_angle_gamma    111.9

_symmetry_space_group_name_H-M    "P 1"
_symmetry_int_tables_number       1

loop_
  _symmetry_equiv_pos_as_xyz
  'x, y, z'

loop_
  _atom_site_label
  _atom_site_occupancy
  _atom_site_fract_x
  _atom_site_fract_y
  _atom_site_fract_z
  _atom_site_thermal_displace_type
  _atom_site_B_iso_or_equiv
  _atom_site_type_symbol
  C1       1.0000 0.51059  0.40662  0.58013  Biso   1.000  C
  N1       1.0000 0.44628  0.38859  0.63480  Biso   1.000  N
  H1       1.0000 0.49566  0.43020  0.52899  Biso   1.000  H
  C2       1.0000 0.59704  0.39208  0.59517  Biso   1.000  C
  B1       1.0000 0.34489  0.40188  0.61192  Biso   1.000  B
  C3       1.0000 0.46536  0.35269  0.70793  Biso   1.000  C
  C4       1.0000 0.61545  0.35502  0.66851  Biso   1.000  C
  H2       1.0000 0.64238  0.40718  0.55670  Biso   1.000  H
  C5       1.0000 0.25527  0.30577  0.54629  Biso   1.000  C
  O1       1.0000 0.37536  0.49647  0.57747  Biso   1.000  O
  O2       1.0000 0.32198  0.43750  0.70310  Biso   1.000  O
  C6       1.0000 0.54957  0.33825  0.72489  Biso   1.000  C
  H3       1.0000 0.41963  0.33808  0.74613  Biso   1.000  H
  O3       1.0000 0.69067  0.33321  0.69363  Biso   1.000  O
  C7       1.0000 0.26627  0.23390  0.48950  Biso   1.000  C
  C8       1.0000 0.16056  0.29369  0.54860  Biso   1.000  C
  C9       1.0000 0.38018  0.56642  0.64434  Biso   1.000  C
  C10      1.0000 0.34874  0.53297  0.71937  Biso   1.000  C
  O4       1.0000 0.57997  0.30526  0.79332  Biso   1.000  O
  B2       1.0000 0.67987  0.30687  0.78419  Biso   1.000  B
  C11      1.0000 0.18485  0.15391  0.43353  Biso   1.000  C
  H4       1.0000 0.33128  0.23820  0.48773  Biso   1.000  H
  C12      1.0000 0.08045  0.21395  0.49638  Biso   1.000  C
  H5       1.0000 0.15024  0.34317  0.58857  Biso   1.000  H
  C13      1.0000 0.41369  0.66899  0.64890  Biso   1.000  C
  C14      1.0000 0.34348  0.59577  0.79189  Biso   1.000  C
  N2       1.0000 0.76439  0.39748  0.86038  Biso   1.000  N
  C15      1.0000 0.68976  0.20468  0.78923  Biso   1.000  C
  H6       1.0000 0.19473  0.10608  0.39097  Biso   1.000  H
  C16      1.0000 0.09213  0.14232  0.43809  Biso   1.000  C
  H7       1.0000 0.01540  0.20805  0.50060  Biso   1.000  H
  C17      1.0000 0.41040  0.73123  0.72761  Biso   1.000  C
  H8       1.0000 0.43736  0.69469  0.60049  Biso   1.000  H
  N3       1.0000 0.37567  0.69540  0.79509  Biso   1.000  N
  H9       1.0000 0.31792  0.57170  0.84023  Biso   1.000  H
  C18      1.0000 0.74486  0.41769  0.94468  Biso   1.000  C
  C19      1.0000 0.85029  0.45019  0.84411  Biso   1.000  C
  C20      1.0000 0.77545  0.19270  0.80578  Biso   1.000  C
  C21      1.0000 0.60135  0.11716  0.77098  Biso   1.000  C
  C22      1.0000 0.00014  0.04497  0.38008  Biso   1.000  C
  H10      1.0000 0.43330  0.80023  0.73272  Biso   1.000  H
  B3       1.0000 0.36704  0.76833  0.88040  Biso   1.000  B
  H11      1.0000 0.68305  0.37816  0.95591  Biso   1.000  H
  C23      1.0000 0.81411  0.49427  0.01175  Biso   1.000  C
  H12      1.0000 0.86248  0.43519  0.78528  Biso   1.000  H
  C24      1.0000 0.92280  0.52749  0.91227  Biso   1.000  C
  H13      1.0000 0.83667  0.24960  0.82130  Biso   1.000  H
  C25      1.0000 0.77870  0.10078  0.80149  Biso   1.000  C
  C26      1.0000 0.60322  0.02688  0.76540  Biso   1.000  C
  H14      1.0000 0.53873  0.12178  0.76240  Biso   1.000  H
  H15      1.0000 0.02344  0.00340  0.34079  Biso   1.000  H
  H16      1.0000 0.95361  0.06246  0.34249  Biso   1.000  H
  H17      1.0000 0.96618  0.00860  0.42120  Biso   1.000  H
  O5       1.0000 0.44671  0.86782  0.88748  Biso   1.000  O
  O6       1.0000 0.40250  0.74083  0.96552  Biso   1.000  O
  C27      1.0000 0.25783  0.76319  0.87012  Biso   1.000  C
  C28      1.0000 0.90442  0.55020  0.99193  Biso   1.000  C
  O7       1.0000 0.81135  0.52732  0.09829  Biso   1.000  O
  H18      1.0000 0.98567  0.56390  0.90110  Biso   1.000  H
  H19      1.0000 0.84125  0.09635  0.81231  Biso   1.000  H
  C29      1.0000 0.69235  0.01666  0.78160  Biso   1.000  C
  H20      1.0000 0.54230  0.96983  0.75008  Biso   1.000  H
  C30      1.0000 0.51941  0.88717  0.96020  Biso   1.000  C
  C31      1.0000 0.49184  0.81271  0.00746  Biso   1.000  C
  C32      1.0000 0.19872  0.75352  0.78623  Biso   1.000  C
  C33      1.0000 0.22043  0.77907  0.94373  Biso   1.000  C
  O8       1.0000 0.96595  0.62040  0.06867  Biso   1.000  O
  B4       1.0000 0.90286  0.61411  0.13989  Biso   1.000  B
  C34      1.0000 0.69695  0.91763  0.77459  Biso   1.000  C
  C35      1.0000 0.60792  0.96781  0.99227  Biso   1.000  C
  C36      1.0000 0.55296  0.81672  0.08617  Biso   1.000  C
  H21      1.0000 0.22058  0.73889  0.73231  Biso   1.000  H
  C37      1.0000 0.10799  0.76433  0.77861  Biso   1.000  C
  C38      1.0000 0.13161  0.79062  0.94032  Biso   1.000  C
  H22      1.0000 0.25686  0.78261  0.00119  Biso   1.000  H
  N4       1.0000 0.88025  0.71223  0.14718  Biso   1.000  N
  C39      1.0000 0.95973  0.61485  0.23665  Biso   1.000  C
  H23      1.0000 0.67653  0.89272  0.82661  Biso   1.000  H
  H24      1.0000 0.76525  0.92465  0.77493  Biso   1.000  H
  H25      1.0000 0.65204  0.87093  0.71787  Biso   1.000  H
  C40      1.0000 0.67014  0.97022  0.07344  Biso   1.000  C
  H26      1.0000 0.62710  0.01942  0.96232  Biso   1.000  H
  N5       1.0000 0.64224  0.89749  0.11715  Biso   1.000  N
  H27      1.0000 0.53399  0.76596  0.11715  Biso   1.000  H
  H28      1.0000 0.06890  0.75672  0.72087  Biso   1.000  H
  C41      1.0000 0.07679  0.78701  0.85998  Biso   1.000  C
  H29      1.0000 0.10899  0.80119  0.99452  Biso   1.000  H
  C42      1.0000 0.80013  0.71217  0.17707  Biso   1.000  C
  C43      1.0000 0.94373  0.79427  0.13159  Biso   1.000  C
  C44      1.0000 0.94761  0.52407  0.25755  Biso   1.000  C
  C45      1.0000 0.02935  0.69768  0.30617  Biso   1.000  C
  H30      1.0000 0.73289  0.02464  0.09754  Biso   1.000  H
  B5       1.0000 0.71574  0.90978  0.20894  Biso   1.000  B
  C46      1.0000 0.97998  0.80261  0.85541  Biso   1.000  C
  C47      1.0000 0.77882  0.79187  0.18749  Biso   1.000  C
  H31      1.0000 0.75743  0.65462  0.19130  Biso   1.000  H
  C48      1.0000 0.92986  0.88102  0.14425  Biso   1.000  C
  H32      1.0000 0.00067  0.79311  0.11096  Biso   1.000  H
  H33      1.0000 0.90050  0.46411  0.21636  Biso   1.000  H
  C49      1.0000 0.00315  0.52058  0.33729  Biso   1.000  C
  H34      1.0000 0.03958  0.76087  0.29677  Biso   1.000  H
  C50      1.0000 0.08377  0.69608  0.38577  Biso   1.000  C
  O9       1.0000 0.81908  0.95290  0.19314  Biso   1.000  O
  O10      1.0000 0.70232  0.80469  0.21255  Biso   1.000  O
  C51      1.0000 0.69258  0.96452  0.29487  Biso   1.000  C
  H35      1.0000 0.99619  0.87317  0.87693  Biso   1.000  H
  H36      1.0000 0.94121  0.76661  0.89402  Biso   1.000  H
  H37      1.0000 0.94087  0.77799  0.79229  Biso   1.000  H
  C52      1.0000 0.84825  0.87911  0.17339  Biso   1.000  C
  H38      1.0000 0.97565  0.93887  0.13288  Biso   1.000  H
  H39      1.0000 0.99472  0.45781  0.34689  Biso   1.000  H
  C53      1.0000 0.06776  0.60199  0.40068  Biso   1.000  C
  H40      1.0000 0.12998  0.75527  0.42880  Biso   1.000  H
  C54      1.0000 0.70257  0.93606  0.37576  Biso   1.000  C
  C55      1.0000 0.66830  0.04510  0.30025  Biso   1.000  C
  C56      1.0000 0.13334  0.59717  0.48307  Biso   1.000  C
  C57      1.0000 0.68564  0.98340  0.45638  Biso   1.000  C
  H41      1.0000 0.72142  0.88268  0.37698  Biso   1.000  H
  H42      1.0000 0.66182  0.06900  0.24768  Biso   1.000  H
  C58      1.0000 0.65288  0.09291  0.38025  Biso   1.000  C
  H43      1.0000 0.14700  0.65339  0.53420  Biso   1.000  H
  H44      1.0000 0.19625  0.59955  0.46877  Biso   1.000  H
  H45      1.0000 0.09925  0.53538  0.49954  Biso   1.000  H
  H46      1.0000 0.69044  0.96028  0.50969  Biso   1.000  H
  C59      1.0000 0.66182  0.06441  0.45638  Biso   1.000  C
  H47      1.0000 0.63550  0.14738  0.37984  Biso   1.000  H
  C60      1.0000 0.63960  0.11481  0.53979  Biso   1.000  C
  H48      1.0000 0.68731  0.18418  0.56035  Biso   1.000  H
  H49      1.0000 0.64529  0.08170  0.58827  Biso   1.000  H
  H50      1.0000 0.57181  0.11127  0.52474  Biso   1.000  H
  C61      1.0000 0.48955  0.59342  0.41991  Biso   1.000  C
  N6       1.0000 0.55387  0.61145  0.36523  Biso   1.000  N
  H51      1.0000 0.50447  0.56982  0.47098  Biso   1.000  H
  C62      1.0000 0.40306  0.60787  0.40479  Biso   1.000  C
  B6       1.0000 0.65523  0.59809  0.38811  Biso   1.000  B
  C63      1.0000 0.53475  0.64728  0.29211  Biso   1.000  C
  C64      1.0000 0.38470  0.64502  0.33153  Biso   1.000  C
  H52      1.0000 0.35774  0.59279  0.44333  Biso   1.000  H
  O11      1.0000 0.62474  0.50348  0.42250  Biso   1.000  O
  O12      1.0000 0.67814  0.56252  0.29687  Biso   1.000  O
  C65      1.0000 0.74483  0.69418  0.45368  Biso   1.000  C
  C66      1.0000 0.45053  0.66170  0.27508  Biso   1.000  C
  H53      1.0000 0.58042  0.66189  0.25391  Biso   1.000  H
  O13      1.0000 0.30947  0.66683  0.30640  Biso   1.000  O
  C67      1.0000 0.61997  0.43363  0.35570  Biso   1.000  C
  C68      1.0000 0.65136  0.46698  0.28060  Biso   1.000  C
  C69      1.0000 0.73385  0.76612  0.51047  Biso   1.000  C
  C70      1.0000 0.83957  0.70633  0.45137  Biso   1.000  C
  O14      1.0000 0.42015  0.69471  0.20672  Biso   1.000  O
  B7       1.0000 0.32022  0.69308  0.21578  Biso   1.000  B
  C71      1.0000 0.58641  0.33096  0.35107  Biso   1.000  C
  C72      1.0000 0.65662  0.40418  0.20808  Biso   1.000  C
  H54      1.0000 0.66886  0.76184  0.51231  Biso   1.000  H
  C73      1.0000 0.81529  0.84613  0.56651  Biso   1.000  C
  C74      1.0000 0.91964  0.78600  0.50359  Biso   1.000  C
  H55      1.0000 0.84986  0.65679  0.41140  Biso   1.000  H
  N7       1.0000 0.23574  0.60254  0.13958  Biso   1.000  N
  C75      1.0000 0.31035  0.79529  0.21081  Biso   1.000  C
  C76      1.0000 0.58974  0.26881  0.27243  Biso   1.000  C
  H56      1.0000 0.56274  0.30527  0.39948  Biso   1.000  H
  N8       1.0000 0.62446  0.30463  0.20488  Biso   1.000  N
  H57      1.0000 0.68222  0.42834  0.15981  Biso   1.000  H
  H58      1.0000 0.80536  0.89387  0.60900  Biso   1.000  H
  C77      1.0000 0.90799  0.85770  0.56188  Biso   1.000  C
  H59      1.0000 0.98470  0.79190  0.49937  Biso   1.000  H
  C78      1.0000 0.25526  0.58233  0.05529  Biso   1.000  C
  C79      1.0000 0.14982  0.54978  0.15593  Biso   1.000  C
  C80      1.0000 0.22468  0.80732  0.19419  Biso   1.000  C
  C81      1.0000 0.39875  0.88279  0.22899  Biso   1.000  C
  H60      1.0000 0.56684  0.19981  0.26732  Biso   1.000  H
  B8       1.0000 0.63310  0.23171  0.11963  Biso   1.000  B
  C82      1.0000 0.99996  0.95498  0.61989  Biso   1.000  C
  H61      1.0000 0.31707  0.62181  0.04412  Biso   1.000  H
  C83      1.0000 0.18599  0.50568  0.98822  Biso   1.000  C
  H62      1.0000 0.13764  0.56483  0.21469  Biso   1.000  H
  C84      1.0000 0.07732  0.47253  0.08770  Biso   1.000  C
  H63      1.0000 0.16346  0.75043  0.17867  Biso   1.000  H
  C85      1.0000 0.22135  0.89925  0.19848  Biso   1.000  C
  C86      1.0000 0.39691  0.97314  0.23457  Biso   1.000  C
  H64      1.0000 0.46138  0.87819  0.23763  Biso   1.000  H
  O15      1.0000 0.55342  0.13221  0.11248  Biso   1.000  O
  O16      1.0000 0.59764  0.25921  0.03452  Biso   1.000  O
  C87      1.0000 0.74229  0.23678  0.12992  Biso   1.000  C
  H65      1.0000 0.97669  0.99662  0.65918  Biso   1.000  H
  H66      1.0000 0.04649  0.93749  0.65748  Biso   1.000  H
  H67      1.0000 0.03389  0.99144  0.57883  Biso   1.000  H
  C88      1.0000 0.09572  0.44984  0.00810  Biso   1.000  C
  O17      1.0000 0.18879  0.47272  0.90175  Biso   1.000  O
  H68      1.0000 0.01446  0.43612  0.09887  Biso   1.000  H
  H69      1.0000 0.15886  0.90361  0.18772  Biso   1.000  H
  C89      1.0000 0.30777  0.98331  0.21843  Biso   1.000  C
  H70      1.0000 0.45782  0.03020  0.24989  Biso   1.000  H
  C90      1.0000 0.48071  0.11280  0.03983  Biso   1.000  C
  C91      1.0000 0.50828  0.18731  0.99251  Biso   1.000  C
  C92      1.0000 0.80142  0.24652  0.21380  Biso   1.000  C
  C93      1.0000 0.77968  0.22090  0.05631  Biso   1.000  C
  O18      1.0000 0.03420  0.37965  0.93137  Biso   1.000  O
  B9       1.0000 0.09729  0.38593  0.86014  Biso   1.000  B
  C94      1.0000 0.30318  0.08240  0.22538  Biso   1.000  C
  C95      1.0000 0.39220  0.03222  0.00769  Biso   1.000  C
  C96      1.0000 0.44718  0.18332  0.91387  Biso   1.000  C
  H71      1.0000 0.77953  0.26108  0.26773  Biso   1.000  H
  C97      1.0000 0.89209  0.23571  0.22143  Biso   1.000  C
  C98      1.0000 0.86854  0.20942  0.05971  Biso   1.000  C
  H72      1.0000 0.74329  0.21743  0.99884  Biso   1.000  H
  N9       1.0000 0.11989  0.28782  0.85286  Biso   1.000  N
  C99      1.0000 0.04036  0.38510  0.76332  Biso   1.000  C
  H73      1.0000 0.32359  0.10725  0.17343  Biso   1.000  H
  H74      1.0000 0.23490  0.07539  0.22511  Biso   1.000  H
  H75      1.0000 0.34809  0.12909  0.28210  Biso   1.000  H
  H76      1.0000 0.37302  0.98055  0.03772  Biso   1.000  H
  C100     1.0000 0.32999  0.02981  0.92653  Biso   1.000  C
  N10      1.0000 0.35786  0.10246  0.88282  Biso   1.000  N
  H77      1.0000 0.46604  0.23399  0.88282  Biso   1.000  H
  H78      1.0000 0.93122  0.24331  0.27910  Biso   1.000  H
  C101     1.0000 0.92333  0.21301  0.13999  Biso   1.000  C
  H79      1.0000 0.89106  0.19878  0.00552  Biso   1.000  H
  C102     1.0000 0.19998  0.28780  0.82297  Biso   1.000  C
  C103     1.0000 0.05639  0.20570  0.86845  Biso   1.000  C
  C104     1.0000 0.97074  0.30227  0.69380  Biso   1.000  C
  C105     1.0000 0.05248  0.47588  0.74242  Biso   1.000  C
  H80      1.0000 0.26723  0.97539  0.90243  Biso   1.000  H
  B10      1.0000 0.28436  0.09017  0.79103  Biso   1.000  B
  C106     1.0000 0.02017  0.19743  0.14462  Biso   1.000  C
  C107     1.0000 0.22130  0.20810  0.81255  Biso   1.000  C
  H81      1.0000 0.24272  0.34542  0.80874  Biso   1.000  H
  C108     1.0000 0.07027  0.11901  0.85572  Biso   1.000  C
  H82      1.0000 0.99946  0.20692  0.88901  Biso   1.000  H
  H83      1.0000 0.96053  0.23910  0.70326  Biso   1.000  H
  C109     1.0000 0.91636  0.30394  0.61420  Biso   1.000  C
  C110     1.0000 0.99697  0.47939  0.66275  Biso   1.000  C
  H84      1.0000 0.09962  0.53591  0.78361  Biso   1.000  H
  O19      1.0000 0.18105  0.04712  0.80683  Biso   1.000  O
  O20      1.0000 0.29780  0.19533  0.78742  Biso   1.000  O
  C111     1.0000 0.30755  0.03550  0.70510  Biso   1.000  C
  H85      1.0000 0.00392  0.12680  0.12311  Biso   1.000  H
  H86      1.0000 0.05893  0.23343  0.10602  Biso   1.000  H
  H87      1.0000 0.05923  0.22196  0.20767  Biso   1.000  H
  C112     1.0000 0.15189  0.12093  0.82664  Biso   1.000  C
  H88      1.0000 0.02447  0.06110  0.86716  Biso   1.000  H
  H89      1.0000 0.87013  0.24470  0.57124  Biso   1.000  H
  C113     1.0000 0.93238  0.39805  0.59936  Biso   1.000  C
  H90      1.0000 0.00542  0.54223  0.65315  Biso   1.000  H
  C114     1.0000 0.33180  0.95485  0.69972  Biso   1.000  C
  C115     1.0000 0.29753  0.06389  0.62421  Biso   1.000  C
  C116     1.0000 0.86676  0.40278  0.51690  Biso   1.000  C
  H91      1.0000 0.33829  0.93097  0.75236  Biso   1.000  H
  C117     1.0000 0.34725  0.90711  0.61972  Biso   1.000  C
  C118     1.0000 0.31443  0.01664  0.54366  Biso   1.000  C
  H92      1.0000 0.27863  0.11729  0.62305  Biso   1.000  H
  H93      1.0000 0.85315  0.34665  0.46583  Biso   1.000  H
  H94      1.0000 0.80385  0.40040  0.53120  Biso   1.000  H
  H95      1.0000 0.90087  0.46464  0.50042  Biso   1.000  H
  H96      1.0000 0.36460  0.85257  0.62013  Biso   1.000  H
  C119     1.0000 0.33832  0.93563  0.54366  Biso   1.000  C
  H97      1.0000 0.30967  0.03969  0.49035  Biso   1.000  H
  C120     1.0000 0.36054  0.88523  0.46025  Biso   1.000  C
  H98      1.0000 0.31278  0.81577  0.43962  Biso   1.000  H
  H99      1.0000 0.35483  0.91832  0.41170  Biso   1.000  H
  H100     1.0000 0.42829  0.88868  0.47523  Biso   1.000  H
