data_image0
_cell_length_a       9.34
_cell_length_b       27.574
_cell_length_c       17.783
_cell_angle_alpha    90
_cell_angle_beta     102.76
_cell_angle_gamma    90

_symmetry_space_group_name_H-M    "P 1"
_symmetry_int_tables_number       1

loop_
  _symmetry_equiv_pos_as_xyz
  'x, y, z'

loop_
  _atom_site_label
  _atom_site_occupancy
  _atom_site_fract_x
  _atom_site_fract_y
  _atom_site_fract_z
  _atom_site_thermal_displace_type
  _atom_site_B_iso_or_equiv
  _atom_site_type_symbol
  C1       1.0000 0.29259  0.51084  0.42972  Biso   1.000  C
  O1       1.0000 0.26770  0.45964  0.41611  Biso   1.000  O
  H1       1.0000 0.25851  0.52020  0.47469  Biso   1.000  H
  H2       1.0000 0.24017  0.52880  0.38602  Biso   1.000  H
  H3       1.0000 0.39570  0.51759  0.43762  Biso   1.000  H
  C2       1.0000 0.30818  0.44078  0.35603  Biso   1.000  C
  C3       1.0000 0.27451  0.38852  0.34675  Biso   1.000  C
  O2       1.0000 0.36692  0.46355  0.31469  Biso   1.000  O
  C4       1.0000 0.31325  0.36447  0.28587  Biso   1.000  C
  C5       1.0000 0.20658  0.36335  0.39755  Biso   1.000  C
  C6       1.0000 0.28485  0.31591  0.27612  Biso   1.000  C
  H4       1.0000 0.35797  0.38119  0.25191  Biso   1.000  H
  C7       1.0000 0.17922  0.31490  0.38596  Biso   1.000  C
  H5       1.0000 0.18032  0.37931  0.43848  Biso   1.000  H
  O3       1.0000 0.33520  0.29002  0.21916  Biso   1.000  O
  C8       1.0000 0.21685  0.28998  0.32548  Biso   1.000  C
  O4       1.0000 0.12238  0.28810  0.43970  Biso   1.000  O
  C9       1.0000 0.23288  0.27040  0.16144  Biso   1.000  C
  O5       1.0000 0.18494  0.24197  0.31400  Biso   1.000  O
  C10      1.0000 0.98560  0.26986  0.41513  Biso   1.000  C
  N1       1.0000 0.10029  0.29045  0.14530  Biso   1.000  N
  N2       1.0000 0.28186  0.23395  0.12592  Biso   1.000  N
  C11      1.0000 0.30519  0.21096  0.34917  Biso   1.000  C
  N3       1.0000 0.89970  0.29045  0.35471  Biso   1.000  N
  N4       1.0000 0.95497  0.23373  0.45815  Biso   1.000  N
  C12      1.0000 0.01438  0.26986  0.08487  Biso   1.000  C
  C13      1.0000 0.18163  0.21625  0.06631  Biso   1.000  C
  H6       1.0000 0.33761  0.21890  0.40337  Biso   1.000  H
  H7       1.0000 0.38704  0.21571  0.32461  Biso   1.000  H
  C14      1.0000 0.25549  0.15975  0.34047  Biso   1.000  C
  C15      1.0000 0.76711  0.27040  0.33856  Biso   1.000  C
  C16      1.0000 0.81846  0.21625  0.43370  Biso   1.000  C
  N5       1.0000 0.04512  0.23373  0.04186  Biso   1.000  N
  O6       1.0000 0.87761  0.28810  0.06031  Biso   1.000  O
  C17      1.0000 0.22539  0.17437  0.02474  Biso   1.000  C
  C18      1.0000 0.17229  0.14198  0.38832  Biso   1.000  C
  C19      1.0000 0.29182  0.13038  0.28633  Biso   1.000  C
  O7       1.0000 0.66478  0.29002  0.28085  Biso   1.000  O
  N6       1.0000 0.71823  0.23395  0.37408  Biso   1.000  N
  C20      1.0000 0.77459  0.17437  0.47527  Biso   1.000  C
  C21      1.0000 0.82087  0.31490  0.11405  Biso   1.000  C
  C22      1.0000 0.36225  0.15315  0.04976  Biso   1.000  C
  C23      1.0000 0.13175  0.15525  0.96016  Biso   1.000  C
  H8       1.0000 0.14853  0.16229  0.42551  Biso   1.000  H
  C24      1.0000 0.12318  0.09549  0.38331  Biso   1.000  C
  C25      1.0000 0.24337  0.07960  0.27958  Biso   1.000  C
  H9       1.0000 0.34758  0.14249  0.25317  Biso   1.000  H
  C26      1.0000 0.71524  0.31591  0.22388  Biso   1.000  C
  C27      1.0000 0.63784  0.15315  0.45025  Biso   1.000  C
  C28      1.0000 0.86835  0.15525  0.53985  Biso   1.000  C
  C29      1.0000 0.78324  0.28998  0.17453  Biso   1.000  C
  C30      1.0000 0.79341  0.36335  0.10246  Biso   1.000  C
  H10      1.0000 0.42564  0.16490  0.09381  Biso   1.000  H
  C31      1.0000 0.40555  0.11482  0.01015  Biso   1.000  C
  C32      1.0000 0.17509  0.11641  0.92141  Biso   1.000  C
  H11      1.0000 0.03890  0.16871  0.94280  Biso   1.000  H
  H12      1.0000 0.06550  0.08381  0.41571  Biso   1.000  H
  C33      1.0000 0.16049  0.06760  0.33072  Biso   1.000  C
  H13      1.0000 0.26701  0.05792  0.24412  Biso   1.000  H
  C34      1.0000 0.68681  0.36447  0.21408  Biso   1.000  C
  H14      1.0000 0.57446  0.16490  0.40620  Biso   1.000  H
  C35      1.0000 0.59454  0.11482  0.48986  Biso   1.000  C
  C36      1.0000 0.82500  0.11641  0.57859  Biso   1.000  C
  H15      1.0000 0.96119  0.16871  0.55720  Biso   1.000  H
  O8       1.0000 0.81516  0.24197  0.18600  Biso   1.000  O
  C37      1.0000 0.72558  0.38852  0.15325  Biso   1.000  C
  H16      1.0000 0.81977  0.37931  0.06152  Biso   1.000  H
  H17      1.0000 0.49798  0.10129  0.02779  Biso   1.000  H
  C38      1.0000 0.31348  0.09618  0.94448  Biso   1.000  C
  H18      1.0000 0.10977  0.10361  0.87886  Biso   1.000  H
  H19      1.0000 0.12613  0.03579  0.32819  Biso   1.000  H
  H20      1.0000 0.64202  0.38119  0.24810  Biso   1.000  H
  H21      1.0000 0.50200  0.10129  0.47221  Biso   1.000  H
  C39      1.0000 0.68661  0.09618  0.55553  Biso   1.000  C
  H22      1.0000 0.89030  0.10361  0.62109  Biso   1.000  H
  C40      1.0000 0.69477  0.21096  0.15077  Biso   1.000  C
  C41      1.0000 0.69181  0.44078  0.14397  Biso   1.000  C
  C42      1.0000 0.36190  0.05520  0.89921  Biso   1.000  C
  C43      1.0000 0.63819  0.05520  0.60079  Biso   1.000  C
  H23      1.0000 0.66245  0.21890  0.09658  Biso   1.000  H
  H24      1.0000 0.61305  0.21571  0.17539  Biso   1.000  H
  C44      1.0000 0.74450  0.15975  0.15954  Biso   1.000  C
  O9       1.0000 0.63317  0.46355  0.18531  Biso   1.000  O
  O10      1.0000 0.73239  0.45964  0.08389  Biso   1.000  O
  H25      1.0000 0.46053  0.04591  0.92320  Biso   1.000  H
  H26      1.0000 0.35820  0.06571  0.84738  Biso   1.000  H
  H27      1.0000 0.29767  0.02789  0.89847  Biso   1.000  H
  H28      1.0000 0.53956  0.04591  0.57680  Biso   1.000  H
  H29      1.0000 0.64179  0.06571  0.65262  Biso   1.000  H
  H30      1.0000 0.70240  0.02789  0.60148  Biso   1.000  H
  C45      1.0000 0.82769  0.14198  0.11168  Biso   1.000  C
  C46      1.0000 0.70827  0.13038  0.21368  Biso   1.000  C
  C47      1.0000 0.70739  0.51084  0.07028  Biso   1.000  C
  H31      1.0000 0.85156  0.16229  0.07449  Biso   1.000  H
  C48      1.0000 0.87680  0.09549  0.11670  Biso   1.000  C
  C49      1.0000 0.75661  0.07960  0.22042  Biso   1.000  C
  H32      1.0000 0.65238  0.14249  0.24677  Biso   1.000  H
  H33      1.0000 0.74159  0.52020  0.02531  Biso   1.000  H
  H34      1.0000 0.75982  0.52880  0.11399  Biso   1.000  H
  H35      1.0000 0.60429  0.51759  0.06239  Biso   1.000  H
  H36      1.0000 0.93448  0.08381  0.08430  Biso   1.000  H
  C50      1.0000 0.83950  0.06760  0.16928  Biso   1.000  C
  H37      1.0000 0.73298  0.05792  0.25588  Biso   1.000  H
  H38      1.0000 0.87397  0.03579  0.17182  Biso   1.000  H
  C51      1.0000 0.13819  0.55520  0.60079  Biso   1.000  C
  C52      1.0000 0.18661  0.59618  0.55553  Biso   1.000  C
  H39      1.0000 0.03945  0.54591  0.57680  Biso   1.000  H
  H40      1.0000 0.14179  0.56571  0.65262  Biso   1.000  H
  H41      1.0000 0.20240  0.52789  0.60148  Biso   1.000  H
  C53      1.0000 0.09454  0.61482  0.48986  Biso   1.000  C
  C54      1.0000 0.32500  0.61641  0.57859  Biso   1.000  C
  C55      1.0000 0.13784  0.65315  0.45025  Biso   1.000  C
  H42      1.0000 0.00200  0.60129  0.47221  Biso   1.000  H
  C56      1.0000 0.36835  0.65525  0.53985  Biso   1.000  C
  H43      1.0000 0.39030  0.60361  0.62109  Biso   1.000  H
  C57      1.0000 0.27459  0.67437  0.47527  Biso   1.000  C
  H44      1.0000 0.07435  0.66490  0.40620  Biso   1.000  H
  H45      1.0000 0.46108  0.66871  0.55720  Biso   1.000  H
  C58      1.0000 0.31846  0.71625  0.43370  Biso   1.000  C
  N7       1.0000 0.21823  0.73395  0.37408  Biso   1.000  N
  N8       1.0000 0.45497  0.73373  0.45815  Biso   1.000  N
  C59      1.0000 0.26711  0.77040  0.33856  Biso   1.000  C
  C60      1.0000 0.48560  0.76986  0.41513  Biso   1.000  C
  O11      1.0000 0.16478  0.79002  0.28085  Biso   1.000  O
  N9       1.0000 0.39970  0.79045  0.35471  Biso   1.000  N
  O12      1.0000 0.62238  0.78810  0.43970  Biso   1.000  O
  C61      1.0000 0.21524  0.81591  0.22388  Biso   1.000  C
  C62      1.0000 0.67922  0.81490  0.38596  Biso   1.000  C
  C63      1.0000 0.28324  0.78998  0.17453  Biso   1.000  C
  C64      1.0000 0.18681  0.86447  0.21408  Biso   1.000  C
  C65      1.0000 0.71685  0.78998  0.32548  Biso   1.000  C
  C66      1.0000 0.70669  0.86335  0.39755  Biso   1.000  C
  O13      1.0000 0.31516  0.74197  0.18600  Biso   1.000  O
  C67      1.0000 0.32076  0.81490  0.11405  Biso   1.000  C
  H46      1.0000 0.14202  0.88119  0.24810  Biso   1.000  H
  C68      1.0000 0.22547  0.88852  0.15325  Biso   1.000  C
  C69      1.0000 0.78485  0.81591  0.27612  Biso   1.000  C
  O14      1.0000 0.68494  0.74197  0.31400  Biso   1.000  O
  C70      1.0000 0.77451  0.88852  0.34675  Biso   1.000  C
  H47      1.0000 0.68032  0.87931  0.43848  Biso   1.000  H
  C71      1.0000 0.19477  0.71096  0.15077  Biso   1.000  C
  O15      1.0000 0.37761  0.78810  0.06031  Biso   1.000  O
  C72      1.0000 0.29341  0.86335  0.10246  Biso   1.000  C
  C73      1.0000 0.19181  0.94078  0.14397  Biso   1.000  C
  O16      1.0000 0.83520  0.79002  0.21916  Biso   1.000  O
  C74      1.0000 0.81325  0.86447  0.28587  Biso   1.000  C
  C75      1.0000 0.80519  0.71096  0.34917  Biso   1.000  C
  C76      1.0000 0.80818  0.94078  0.35603  Biso   1.000  C
  C77      1.0000 0.24450  0.65975  0.15954  Biso   1.000  C
  H48      1.0000 0.16235  0.71890  0.09658  Biso   1.000  H
  H49      1.0000 0.11305  0.71571  0.17539  Biso   1.000  H
  C78      1.0000 0.51438  0.76986  0.08487  Biso   1.000  C
  H50      1.0000 0.31977  0.87931  0.06152  Biso   1.000  H
  O17      1.0000 0.13307  0.96355  0.18531  Biso   1.000  O
  O18      1.0000 0.23228  0.95964  0.08389  Biso   1.000  O
  C79      1.0000 0.73288  0.77040  0.16144  Biso   1.000  C
  H51      1.0000 0.85807  0.88119  0.25191  Biso   1.000  H
  H52      1.0000 0.83761  0.71890  0.40337  Biso   1.000  H
  H53      1.0000 0.88704  0.71571  0.32461  Biso   1.000  H
  C80      1.0000 0.75549  0.65975  0.34047  Biso   1.000  C
  O19      1.0000 0.86692  0.96355  0.31469  Biso   1.000  O
  O20      1.0000 0.76770  0.95964  0.41611  Biso   1.000  O
  C81      1.0000 0.32769  0.64198  0.11168  Biso   1.000  C
  C82      1.0000 0.20817  0.63038  0.21368  Biso   1.000  C
  N10      1.0000 0.60029  0.79045  0.14530  Biso   1.000  N
  N11      1.0000 0.54512  0.73373  0.04186  Biso   1.000  N
  C83      1.0000 0.20739  0.01084  0.07028  Biso   1.000  C
  N12      1.0000 0.78186  0.73395  0.12592  Biso   1.000  N
  C84      1.0000 0.67229  0.64198  0.38832  Biso   1.000  C
  C85      1.0000 0.79182  0.63038  0.28633  Biso   1.000  C
  C86      1.0000 0.79259  0.01084  0.42972  Biso   1.000  C
  C87      1.0000 0.37680  0.59549  0.11670  Biso   1.000  C
  H54      1.0000 0.35156  0.66229  0.07449  Biso   1.000  H
  C88      1.0000 0.25661  0.57960  0.22042  Biso   1.000  C
  H55      1.0000 0.15238  0.64249  0.24677  Biso   1.000  H
  C89      1.0000 0.68163  0.71625  0.06631  Biso   1.000  C
  H56      1.0000 0.24148  0.02020  0.02531  Biso   1.000  H
  H57      1.0000 0.25982  0.02880  0.11399  Biso   1.000  H
  H58      1.0000 0.10429  0.01759  0.06239  Biso   1.000  H
  H59      1.0000 0.64853  0.66229  0.42551  Biso   1.000  H
  C90      1.0000 0.62318  0.59549  0.38331  Biso   1.000  C
  C91      1.0000 0.74337  0.57960  0.27958  Biso   1.000  C
  H60      1.0000 0.84758  0.64249  0.25317  Biso   1.000  H
  H61      1.0000 0.75851  0.02020  0.47469  Biso   1.000  H
  H62      1.0000 0.74027  0.02880  0.38602  Biso   1.000  H
  H63      1.0000 0.89570  0.01759  0.43762  Biso   1.000  H
  C92      1.0000 0.33950  0.56760  0.16928  Biso   1.000  C
  H64      1.0000 0.43448  0.58381  0.08430  Biso   1.000  H
  H65      1.0000 0.23298  0.55792  0.25588  Biso   1.000  H
  C93      1.0000 0.72539  0.67437  0.02474  Biso   1.000  C
  H66      1.0000 0.56550  0.58381  0.41571  Biso   1.000  H
  C94      1.0000 0.66049  0.56760  0.33072  Biso   1.000  C
  H67      1.0000 0.76701  0.55792  0.24412  Biso   1.000  H
  H68      1.0000 0.37397  0.53579  0.17182  Biso   1.000  H
  C95      1.0000 0.86225  0.65315  0.04976  Biso   1.000  C
  C96      1.0000 0.63175  0.65525  0.96016  Biso   1.000  C
  H69      1.0000 0.62613  0.53579  0.32819  Biso   1.000  H
  H70      1.0000 0.92564  0.66490  0.09381  Biso   1.000  H
  C97      1.0000 0.90555  0.61482  0.01015  Biso   1.000  C
  C98      1.0000 0.67509  0.61641  0.92141  Biso   1.000  C
  H71      1.0000 0.53901  0.66871  0.94280  Biso   1.000  H
  H72      1.0000 0.99809  0.60129  0.02779  Biso   1.000  H
  C99      1.0000 0.81348  0.59618  0.94448  Biso   1.000  C
  H73      1.0000 0.60977  0.60361  0.87886  Biso   1.000  H
  C100     1.0000 0.86190  0.55520  0.89921  Biso   1.000  C
  H74      1.0000 0.96053  0.54591  0.92320  Biso   1.000  H
  H75      1.0000 0.85830  0.56571  0.84738  Biso   1.000  H
  H76      1.0000 0.79767  0.52789  0.89847  Biso   1.000  H
  C101     1.0000 0.37679  0.40451  0.61670  Biso   1.000  C
  C102     1.0000 0.32768  0.35802  0.61169  Biso   1.000  C
  H77      1.0000 0.43447  0.41619  0.58430  Biso   1.000  H
  C103     1.0000 0.33948  0.43240  0.66929  Biso   1.000  C
  C104     1.0000 0.24448  0.34025  0.65954  Biso   1.000  C
  H78      1.0000 0.35155  0.33771  0.57450  Biso   1.000  H
  C105     1.0000 0.25657  0.42040  0.72037  Biso   1.000  C
  H79      1.0000 0.37395  0.46421  0.67182  Biso   1.000  H
  C106     1.0000 0.19476  0.28904  0.65078  Biso   1.000  C
  C107     1.0000 0.20815  0.36962  0.71368  Biso   1.000  C
  H80      1.0000 0.23297  0.44208  0.75589  Biso   1.000  H
  O21      1.0000 0.31514  0.25803  0.68601  Biso   1.000  O
  H81      1.0000 0.16244  0.28110  0.59658  Biso   1.000  H
  H82      1.0000 0.11304  0.28429  0.67540  Biso   1.000  H
  H83      1.0000 0.15237  0.35751  0.74678  Biso   1.000  H
  C108     1.0000 0.28323  0.21002  0.67453  Biso   1.000  C
  C109     1.0000 0.32086  0.18510  0.61405  Biso   1.000  C
  C110     1.0000 0.21523  0.18409  0.72389  Biso   1.000  C
  O22      1.0000 0.37760  0.21190  0.56031  Biso   1.000  O
  C111     1.0000 0.29339  0.13665  0.60246  Biso   1.000  C
  O23      1.0000 0.16477  0.20998  0.78085  Biso   1.000  O
  C112     1.0000 0.18680  0.13553  0.71409  Biso   1.000  C
  C113     1.0000 0.51448  0.23014  0.58488  Biso   1.000  C
  C114     1.0000 0.22557  0.11148  0.65326  Biso   1.000  C
  H84      1.0000 0.31975  0.12069  0.56153  Biso   1.000  H
  C115     1.0000 0.26709  0.22960  0.83857  Biso   1.000  C
  H85      1.0000 0.14200  0.11881  0.74810  Biso   1.000  H
  N13      1.0000 0.54510  0.26627  0.54186  Biso   1.000  N
  N14      1.0000 0.60027  0.20955  0.64530  Biso   1.000  N
  C116     1.0000 0.19179  0.05922  0.64398  Biso   1.000  C
  N15      1.0000 0.39966  0.20955  0.85466  Biso   1.000  N
  N16      1.0000 0.21822  0.26605  0.87409  Biso   1.000  N
  C117     1.0000 0.68162  0.28375  0.56631  Biso   1.000  C
  C118     1.0000 0.73297  0.22960  0.66145  Biso   1.000  C
  O24      1.0000 0.13316  0.03645  0.68532  Biso   1.000  O
  O25      1.0000 0.23227  0.04036  0.58390  Biso   1.000  O
  C119     1.0000 0.48559  0.23014  0.91514  Biso   1.000  C
  C120     1.0000 0.31845  0.28375  0.93370  Biso   1.000  C
  C121     1.0000 0.72548  0.32563  0.52474  Biso   1.000  C
  N17      1.0000 0.78185  0.26605  0.62593  Biso   1.000  N
  O26      1.0000 0.83529  0.20998  0.71916  Biso   1.000  O
  C122     1.0000 0.20738  0.98916  0.57029  Biso   1.000  C
  O27      1.0000 0.62234  0.21190  0.93964  Biso   1.000  O
  N18      1.0000 0.45493  0.26627  0.95809  Biso   1.000  N
  C123     1.0000 0.27458  0.32563  0.97527  Biso   1.000  C
  C124     1.0000 0.63173  0.34475  0.46016  Biso   1.000  C
  C125     1.0000 0.86221  0.34685  0.54971  Biso   1.000  C
  C126     1.0000 0.78484  0.18409  0.77613  Biso   1.000  C
  H86      1.0000 0.24146  0.97980  0.52532  Biso   1.000  H
  H87      1.0000 0.25980  0.97120  0.61399  Biso   1.000  H
  H88      1.0000 0.10427  0.98241  0.56239  Biso   1.000  H
  C127     1.0000 0.67921  0.18510  0.88596  Biso   1.000  C
  C128     1.0000 0.13783  0.34685  0.95025  Biso   1.000  C
  C129     1.0000 0.36833  0.34475  0.03985  Biso   1.000  C
  C130     1.0000 0.67507  0.38359  0.42142  Biso   1.000  C
  H89      1.0000 0.53889  0.33129  0.44281  Biso   1.000  H
  H90      1.0000 0.92562  0.33510  0.59381  Biso   1.000  H
  C131     1.0000 0.90554  0.38518  0.51015  Biso   1.000  C
  C132     1.0000 0.71683  0.21002  0.82548  Biso   1.000  C
  C133     1.0000 0.81324  0.13553  0.78587  Biso   1.000  C
  C134     1.0000 0.70665  0.13665  0.89750  Biso   1.000  C
  H91      1.0000 0.07444  0.33510  0.90620  Biso   1.000  H
  C135     1.0000 0.09453  0.38518  0.98986  Biso   1.000  C
  C136     1.0000 0.32499  0.38359  0.07860  Biso   1.000  C
  H92      1.0000 0.46107  0.33129  0.05721  Biso   1.000  H
  C137     1.0000 0.81347  0.40382  0.44448  Biso   1.000  C
  H93      1.0000 0.60977  0.39639  0.37892  Biso   1.000  H
  H94      1.0000 0.99807  0.39871  0.52780  Biso   1.000  H
  O28      1.0000 0.68492  0.25803  0.81401  Biso   1.000  O
  H95      1.0000 0.85806  0.11881  0.75191  Biso   1.000  H
  C138     1.0000 0.77450  0.11148  0.84676  Biso   1.000  C
  H96      1.0000 0.68031  0.12069  0.93849  Biso   1.000  H
  H97      1.0000 0.00199  0.39871  0.97222  Biso   1.000  H
  C139     1.0000 0.18660  0.40382  0.05553  Biso   1.000  C
  H98      1.0000 0.39029  0.39639  0.12109  Biso   1.000  H
  C140     1.0000 0.86189  0.44480  0.39922  Biso   1.000  C
  C141     1.0000 0.80517  0.28904  0.84918  Biso   1.000  C
  C142     1.0000 0.80827  0.05922  0.85604  Biso   1.000  C
  C143     1.0000 0.13818  0.44480  0.10080  Biso   1.000  C
  H99      1.0000 0.96052  0.45409  0.42321  Biso   1.000  H
  H100     1.0000 0.85818  0.43429  0.34739  Biso   1.000  H
  H101     1.0000 0.79768  0.47211  0.39853  Biso   1.000  H
  H102     1.0000 0.83760  0.28110  0.90338  Biso   1.000  H
  H103     1.0000 0.88703  0.28429  0.82462  Biso   1.000  H
  C144     1.0000 0.75558  0.34025  0.84047  Biso   1.000  C
  O29      1.0000 0.86690  0.03645  0.81470  Biso   1.000  O
  O30      1.0000 0.76769  0.04036  0.91612  Biso   1.000  O
  H104     1.0000 0.03944  0.45409  0.07681  Biso   1.000  H
  H105     1.0000 0.14177  0.43429  0.15263  Biso   1.000  H
  H106     1.0000 0.20239  0.47211  0.10149  Biso   1.000  H
  C145     1.0000 0.67238  0.35802  0.88833  Biso   1.000  C
  C146     1.0000 0.79178  0.36962  0.78627  Biso   1.000  C
  C147     1.0000 0.79268  0.98916  0.92973  Biso   1.000  C
  H107     1.0000 0.64852  0.33771  0.92552  Biso   1.000  H
  C148     1.0000 0.62327  0.40451  0.88331  Biso   1.000  C
  C149     1.0000 0.74347  0.42040  0.77959  Biso   1.000  C
  H108     1.0000 0.84767  0.35751  0.75318  Biso   1.000  H
  H109     1.0000 0.75849  0.97980  0.97470  Biso   1.000  H
  H110     1.0000 0.74026  0.97120  0.88602  Biso   1.000  H
  H111     1.0000 0.89579  0.98241  0.93762  Biso   1.000  H
  H112     1.0000 0.56549  0.41619  0.91571  Biso   1.000  H
  C150     1.0000 0.66058  0.43240  0.83073  Biso   1.000  C
  H113     1.0000 0.76699  0.44208  0.74413  Biso   1.000  H
  H114     1.0000 0.62611  0.46421  0.82819  Biso   1.000  H
  O31      1.0000 0.73237  0.54036  0.58390  Biso   1.000  O
  C151     1.0000 0.69179  0.55922  0.64398  Biso   1.000  C
  C152     1.0000 0.70738  0.48916  0.57029  Biso   1.000  C
  C153     1.0000 0.72557  0.61148  0.65326  Biso   1.000  C
  O32      1.0000 0.63316  0.53645  0.68532  Biso   1.000  O
  H115     1.0000 0.74157  0.47980  0.52532  Biso   1.000  H
  H116     1.0000 0.75980  0.47120  0.61399  Biso   1.000  H
  H117     1.0000 0.60427  0.48241  0.56239  Biso   1.000  H
  C154     1.0000 0.79339  0.63665  0.60246  Biso   1.000  C
  C155     1.0000 0.68680  0.63553  0.71409  Biso   1.000  C
  C156     1.0000 0.82086  0.68510  0.61405  Biso   1.000  C
  H118     1.0000 0.81975  0.62069  0.56153  Biso   1.000  H
  C157     1.0000 0.71523  0.68409  0.72389  Biso   1.000  C
  H119     1.0000 0.64200  0.61881  0.74810  Biso   1.000  H
  O33      1.0000 0.87770  0.71190  0.56031  Biso   1.000  O
  C158     1.0000 0.78323  0.71002  0.67453  Biso   1.000  C
  O34      1.0000 0.66477  0.70998  0.78085  Biso   1.000  O
  C159     1.0000 0.01437  0.73014  0.58488  Biso   1.000  C
  O35      1.0000 0.81514  0.75803  0.68601  Biso   1.000  O
  C160     1.0000 0.76709  0.72960  0.83857  Biso   1.000  C
  N19      1.0000 0.10027  0.70955  0.64530  Biso   1.000  N
  N20      1.0000 0.04510  0.76627  0.54186  Biso   1.000  N
  C161     1.0000 0.69487  0.78904  0.65078  Biso   1.000  C
  N21      1.0000 0.89977  0.70955  0.85466  Biso   1.000  N
  N22      1.0000 0.71822  0.76605  0.87409  Biso   1.000  N
  C162     1.0000 0.23286  0.72960  0.66145  Biso   1.000  C
  C163     1.0000 0.18162  0.78375  0.56631  Biso   1.000  C
  H120     1.0000 0.66244  0.78110  0.59658  Biso   1.000  H
  H121     1.0000 0.61304  0.78429  0.67540  Biso   1.000  H
  C164     1.0000 0.74448  0.84025  0.65954  Biso   1.000  C
  C165     1.0000 0.98559  0.73014  0.91514  Biso   1.000  C
  C166     1.0000 0.81845  0.78375  0.93370  Biso   1.000  C
  O36      1.0000 0.33519  0.70998  0.71916  Biso   1.000  O
  N23      1.0000 0.28185  0.76605  0.62593  Biso   1.000  N
  C167     1.0000 0.22538  0.82563  0.52474  Biso   1.000  C
  C168     1.0000 0.82768  0.85802  0.61169  Biso   1.000  C
  C169     1.0000 0.70826  0.86962  0.71368  Biso   1.000  C
  O37      1.0000 0.12234  0.71190  0.93964  Biso   1.000  O
  N24      1.0000 0.95493  0.76627  0.95809  Biso   1.000  N
  C170     1.0000 0.77458  0.82563  0.97527  Biso   1.000  C
  C171     1.0000 0.28484  0.68409  0.77613  Biso   1.000  C
  C172     1.0000 0.36221  0.84685  0.54971  Biso   1.000  C
  C173     1.0000 0.13173  0.84475  0.46016  Biso   1.000  C
  H122     1.0000 0.85155  0.83771  0.57450  Biso   1.000  H
  C174     1.0000 0.87679  0.90451  0.61670  Biso   1.000  C
  C175     1.0000 0.75657  0.92040  0.72037  Biso   1.000  C
  H123     1.0000 0.65237  0.85751  0.74678  Biso   1.000  H
  C176     1.0000 0.17921  0.68510  0.88596  Biso   1.000  C
  C177     1.0000 0.63783  0.84685  0.95025  Biso   1.000  C
  C178     1.0000 0.86833  0.84475  0.03985  Biso   1.000  C
  C179     1.0000 0.31324  0.63553  0.78587  Biso   1.000  C
  C180     1.0000 0.21683  0.71002  0.82548  Biso   1.000  C
  H124     1.0000 0.42562  0.83510  0.59381  Biso   1.000  H
  C181     1.0000 0.40554  0.88518  0.51015  Biso   1.000  C
  C182     1.0000 0.17497  0.88359  0.42142  Biso   1.000  C
  H125     1.0000 0.03889  0.83129  0.44281  Biso   1.000  H
  H126     1.0000 0.93458  0.91619  0.58430  Biso   1.000  H
  C183     1.0000 0.83948  0.93240  0.66929  Biso   1.000  C
  H127     1.0000 0.73307  0.94208  0.75589  Biso   1.000  H
  C184     1.0000 0.20665  0.63665  0.89750  Biso   1.000  C
  H128     1.0000 0.57444  0.83510  0.90620  Biso   1.000  H
  C185     1.0000 0.59453  0.88518  0.98986  Biso   1.000  C
  C186     1.0000 0.82499  0.88359  0.07860  Biso   1.000  C
  H129     1.0000 0.96107  0.83129  0.05721  Biso   1.000  H
  C187     1.0000 0.27450  0.61148  0.84676  Biso   1.000  C
  H130     1.0000 0.35806  0.61881  0.75191  Biso   1.000  H
  O38      1.0000 0.18492  0.75803  0.81401  Biso   1.000  O
  H131     1.0000 0.49797  0.89871  0.52780  Biso   1.000  H
  C188     1.0000 0.31347  0.90382  0.44448  Biso   1.000  C
  H132     1.0000 0.10967  0.89639  0.37892  Biso   1.000  H
  H133     1.0000 0.87395  0.96421  0.67182  Biso   1.000  H
  H134     1.0000 0.18031  0.62069  0.93849  Biso   1.000  H
  H135     1.0000 0.50199  0.89871  0.97222  Biso   1.000  H
  C189     1.0000 0.68660  0.90382  0.05553  Biso   1.000  C
  H136     1.0000 0.89029  0.89639  0.12109  Biso   1.000  H
  C190     1.0000 0.30816  0.55922  0.85604  Biso   1.000  C
  C191     1.0000 0.30517  0.78904  0.84918  Biso   1.000  C
  C192     1.0000 0.36178  0.94480  0.39922  Biso   1.000  C
  C193     1.0000 0.63818  0.94480  0.10080  Biso   1.000  C
  O39      1.0000 0.36690  0.53645  0.81470  Biso   1.000  O
  O40      1.0000 0.26769  0.54036  0.91612  Biso   1.000  O
  H137     1.0000 0.33760  0.78110  0.90338  Biso   1.000  H
  H138     1.0000 0.38703  0.78429  0.82462  Biso   1.000  H
  C194     1.0000 0.25547  0.84025  0.84047  Biso   1.000  C
  H139     1.0000 0.46052  0.95409  0.42321  Biso   1.000  H
  H140     1.0000 0.35818  0.93429  0.34739  Biso   1.000  H
  H141     1.0000 0.29768  0.97211  0.39853  Biso   1.000  H
  H142     1.0000 0.53944  0.95409  0.07681  Biso   1.000  H
  H143     1.0000 0.64177  0.93429  0.15263  Biso   1.000  H
  H144     1.0000 0.70239  0.97211  0.10149  Biso   1.000  H
  C195     1.0000 0.29258  0.48916  0.92973  Biso   1.000  C
  C196     1.0000 0.17228  0.85802  0.88833  Biso   1.000  C
  C197     1.0000 0.29178  0.86962  0.78627  Biso   1.000  C
  H145     1.0000 0.25849  0.47980  0.97470  Biso   1.000  H
  H146     1.0000 0.24026  0.47120  0.88602  Biso   1.000  H
  H147     1.0000 0.39569  0.48241  0.93762  Biso   1.000  H
  H148     1.0000 0.14852  0.83771  0.92552  Biso   1.000  H
  C198     1.0000 0.12317  0.90451  0.88331  Biso   1.000  C
  C199     1.0000 0.24336  0.92040  0.77959  Biso   1.000  C
  H149     1.0000 0.34756  0.85751  0.75318  Biso   1.000  H
  H150     1.0000 0.06549  0.91619  0.91571  Biso   1.000  H
  C200     1.0000 0.16048  0.93240  0.83073  Biso   1.000  C
  H151     1.0000 0.26699  0.94208  0.74413  Biso   1.000  H
  H152     1.0000 0.12611  0.96421  0.82819  Biso   1.000  H
