data_image0
_cell_length_a       9.383
_cell_length_b       13.585
_cell_length_c       15.427
_cell_angle_alpha    109.12
_cell_angle_beta     94.12
_cell_angle_gamma    106.63

_symmetry_space_group_name_H-M    "P 1"
_symmetry_int_tables_number       1

loop_
  _symmetry_equiv_pos_as_xyz
  'x, y, z'

loop_
  _atom_site_label
  _atom_site_occupancy
  _atom_site_fract_x
  _atom_site_fract_y
  _atom_site_fract_z
  _atom_site_thermal_displace_type
  _atom_site_B_iso_or_equiv
  _atom_site_type_symbol
  C1       1.0000 0.54699  0.43209  0.56978  Biso   1.000  C
  C2       1.0000 0.43612  0.38419  0.61214  Biso   1.000  C
  H1       1.0000 0.56012  0.39177  0.51109  Biso   1.000  H
  C3       1.0000 0.63716  0.53969  0.61556  Biso   1.000  C
  C4       1.0000 0.34039  0.26779  0.56092  Biso   1.000  C
  C5       1.0000 0.41805  0.44361  0.70090  Biso   1.000  C
  C6       1.0000 0.62198  0.60159  0.70383  Biso   1.000  C
  O1       1.0000 0.74329  0.59123  0.57076  Biso   1.000  O
  O2       1.0000 0.36322  0.20939  0.48988  Biso   1.000  O
  O3       1.0000 0.22515  0.23594  0.60202  Biso   1.000  O
  C7       1.0000 0.51266  0.55078  0.74515  Biso   1.000  C
  H2       1.0000 0.34403  0.41163  0.72958  Biso   1.000  H
  O4       1.0000 0.71589  0.70729  0.74912  Biso   1.000  O
  C8       1.0000 0.88778  0.59983  0.59448  Biso   1.000  C
  C9       1.0000 0.12268  0.12455  0.55387  Biso   1.000  C
  O5       1.0000 0.49556  0.61260  0.83468  Biso   1.000  O
  C10      1.0000 0.65126  0.78703  0.73342  Biso   1.000  C
  N1       1.0000 0.91956  0.54702  0.64738  Biso   1.000  N
  N2       1.0000 0.98489  0.66241  0.55924  Biso   1.000  N
  H3       1.0000 0.04452  0.10900  0.58911  Biso   1.000  H
  H4       1.0000 0.17751  0.07350  0.54752  Biso   1.000  H
  H5       1.0000 0.07821  0.11734  0.49323  Biso   1.000  H
  C11      1.0000 0.57910  0.60951  0.90760  Biso   1.000  C
  H6       1.0000 0.55365  0.77747  0.75261  Biso   1.000  H
  H7       1.0000 0.63728  0.77640  0.66769  Biso   1.000  H
  C12      1.0000 0.75823  0.90008  0.78953  Biso   1.000  C
  C13      1.0000 0.06579  0.56083  0.66483  Biso   1.000  C
  C14      1.0000 0.12566  0.66843  0.58395  Biso   1.000  C
  N3       1.0000 0.66516  0.54591  0.89120  Biso   1.000  N
  N4       1.0000 0.56212  0.67239  0.98995  Biso   1.000  N
  C15      1.0000 0.78874  0.93700  0.88492  Biso   1.000  C
  C16      1.0000 0.82672  0.96889  0.74452  Biso   1.000  C
  O6       1.0000 0.11301  0.51414  0.72037  Biso   1.000  O
  N5       1.0000 0.17684  0.61955  0.63475  Biso   1.000  N
  Cl1      1.0000 0.26062  0.75104  0.54529  Biso   1.000  Cl
  C17      1.0000 0.73665  0.54651  0.96915  Biso   1.000  C
  C18      1.0000 0.64195  0.66406  0.05980  Biso   1.000  C
  H8       1.0000 0.74348  0.89061  0.91528  Biso   1.000  H
  C19      1.0000 0.88323  0.03969  0.93572  Biso   1.000  C
  H9       1.0000 0.80765  0.94443  0.67969  Biso   1.000  H
  C20      1.0000 0.92467  0.07520  0.79658  Biso   1.000  C
  C21      1.0000 0.00096  0.45139  0.75519  Biso   1.000  C
  O7       1.0000 0.82399  0.48247  0.96154  Biso   1.000  O
  N6       1.0000 0.72943  0.60218  0.05652  Biso   1.000  N
  Cl2      1.0000 0.63042  0.74416  0.17020  Biso   1.000  Cl
  C22      1.0000 0.94925  0.10851  0.89232  Biso   1.000  C
  H10      1.0000 0.90321  0.06328  0.00048  Biso   1.000  H
  H11      1.0000 0.97226  0.12225  0.76741  Biso   1.000  H
  C23      1.0000 0.96715  0.50117  0.84208  Biso   1.000  C
  C24      1.0000 0.92776  0.34203  0.70139  Biso   1.000  C
  C25      1.0000 0.85546  0.43501  0.87201  Biso   1.000  C
  H12      1.0000 0.01217  0.17970  0.92812  Biso   1.000  H
  O8       1.0000 0.02201  0.60958  0.89546  Biso   1.000  O
  C26      1.0000 0.81251  0.27979  0.73259  Biso   1.000  C
  H13      1.0000 0.95502  0.31002  0.64473  Biso   1.000  H
  C27      1.0000 0.77733  0.32655  0.81926  Biso   1.000  C
  C28      1.0000 0.18190  0.66851  0.91367  Biso   1.000  C
  C29      1.0000 0.72432  0.16538  0.66797  Biso   1.000  C
  H14      1.0000 0.70186  0.28506  0.84117  Biso   1.000  H
  H15      1.0000 0.23387  0.61881  0.88192  Biso   1.000  H
  H16      1.0000 0.22057  0.69558  0.98011  Biso   1.000  H
  C30      1.0000 0.21294  0.76444  0.88060  Biso   1.000  C
  O9       1.0000 0.76117  0.11601  0.59825  Biso   1.000  O
  O10      1.0000 0.59670  0.12525  0.69644  Biso   1.000  O
  C31      1.0000 0.35899  0.83712  0.90293  Biso   1.000  C
  C32      1.0000 0.10025  0.78332  0.83203  Biso   1.000  C
  C33      1.0000 0.50025  0.01591  0.63698  Biso   1.000  C
  H17      1.0000 0.43532  0.82560  0.93628  Biso   1.000  H
  C34      1.0000 0.39121  0.92686  0.87529  Biso   1.000  C
  C35      1.0000 0.13408  0.87330  0.80460  Biso   1.000  C
  H18      1.0000 0.00134  0.73540  0.81779  Biso   1.000  H
  H19      1.0000 0.46829  0.01621  0.57648  Biso   1.000  H
  H20      1.0000 0.41303  0.99397  0.66399  Biso   1.000  H
  H21      1.0000 0.55498  0.96484  0.63077  Biso   1.000  H
  H22      1.0000 0.48961  0.97578  0.88988  Biso   1.000  H
  C36      1.0000 0.27877  0.94418  0.82630  Biso   1.000  C
  H23      1.0000 0.05838  0.88549  0.77152  Biso   1.000  H
  H24      1.0000 0.30150  0.00482  0.80781  Biso   1.000  H
  C37      1.0000 0.45303  0.56790  0.43021  Biso   1.000  C
  C38      1.0000 0.36286  0.46030  0.38444  Biso   1.000  C
  C39      1.0000 0.56390  0.61581  0.38786  Biso   1.000  C
  H25      1.0000 0.43990  0.60823  0.48890  Biso   1.000  H
  C40      1.0000 0.37804  0.39840  0.29616  Biso   1.000  C
  O11      1.0000 0.25674  0.40876  0.42924  Biso   1.000  O
  C41      1.0000 0.58197  0.55638  0.29909  Biso   1.000  C
  C42      1.0000 0.65964  0.73220  0.43908  Biso   1.000  C
  O12      1.0000 0.28416  0.29273  0.25094  Biso   1.000  O
  C43      1.0000 0.48737  0.44922  0.25485  Biso   1.000  C
  C44      1.0000 0.11225  0.40016  0.40551  Biso   1.000  C
  H26      1.0000 0.65603  0.58844  0.27041  Biso   1.000  H
  O13      1.0000 0.63681  0.79060  0.51012  Biso   1.000  O
  O14      1.0000 0.77488  0.76405  0.39797  Biso   1.000  O
  C45      1.0000 0.34876  0.21296  0.26657  Biso   1.000  C
  O15      1.0000 0.50446  0.38739  0.16532  Biso   1.000  O
  N7       1.0000 0.08048  0.45301  0.35268  Biso   1.000  N
  N8       1.0000 0.01513  0.33759  0.44075  Biso   1.000  N
  C46      1.0000 0.87734  0.87544  0.44612  Biso   1.000  C
  H27      1.0000 0.44637  0.22252  0.24738  Biso   1.000  H
  H28      1.0000 0.36274  0.22360  0.33231  Biso   1.000  H
  C47      1.0000 0.24179  0.09992  0.21047  Biso   1.000  C
  C48      1.0000 0.42093  0.39048  0.09239  Biso   1.000  C
  C49      1.0000 0.93423  0.43917  0.33517  Biso   1.000  C
  C50      1.0000 0.87440  0.33164  0.41605  Biso   1.000  C
  H29      1.0000 0.95550  0.89100  0.41088  Biso   1.000  H
  H30      1.0000 0.82251  0.92650  0.45247  Biso   1.000  H
  H31      1.0000 0.92181  0.88265  0.50677  Biso   1.000  H
  C51      1.0000 0.21128  0.06299  0.11507  Biso   1.000  C
  C52      1.0000 0.17330  0.03110  0.25548  Biso   1.000  C
  N9       1.0000 0.33476  0.45409  0.10879  Biso   1.000  N
  N10      1.0000 0.43790  0.32760  0.01005  Biso   1.000  N
  O16      1.0000 0.88703  0.48588  0.27969  Biso   1.000  O
  N11      1.0000 0.82318  0.38044  0.36525  Biso   1.000  N
  Cl3      1.0000 0.73941  0.24895  0.45471  Biso   1.000  Cl
  H32      1.0000 0.25655  0.10938  0.08472  Biso   1.000  H
  C53      1.0000 0.11679  0.96030  0.06427  Biso   1.000  C
  H33      1.0000 0.19240  0.05564  0.32031  Biso   1.000  H
  C54      1.0000 0.07536  0.92480  0.20342  Biso   1.000  C
  C55      1.0000 0.26338  0.45348  0.03084  Biso   1.000  C
  C56      1.0000 0.35807  0.33594  0.94020  Biso   1.000  C
  C57      1.0000 0.99909  0.54863  0.24487  Biso   1.000  C
  H34      1.0000 0.09682  0.93672  0.99951  Biso   1.000  H
  C58      1.0000 0.05078  0.89149  0.10768  Biso   1.000  C
  H35      1.0000 0.02776  0.87774  0.23259  Biso   1.000  H
  O17      1.0000 0.17603  0.51752  0.03845  Biso   1.000  O
  N12      1.0000 0.27059  0.39781  0.94348  Biso   1.000  N
  Cl4      1.0000 0.36960  0.25583  0.82980  Biso   1.000  Cl
  C59      1.0000 0.03287  0.49882  0.15792  Biso   1.000  C
  C60      1.0000 0.07226  0.65796  0.29860  Biso   1.000  C
  H36      1.0000 0.98785  0.82030  0.07188  Biso   1.000  H
  C61      1.0000 0.14457  0.56499  0.12798  Biso   1.000  C
  O18      1.0000 0.97802  0.39041  0.10454  Biso   1.000  O
  C62      1.0000 0.18752  0.72021  0.26741  Biso   1.000  C
  H37      1.0000 0.04501  0.68997  0.35527  Biso   1.000  H
  C63      1.0000 0.22270  0.67344  0.18074  Biso   1.000  C
  C64      1.0000 0.81812  0.33148  0.08632  Biso   1.000  C
  C65      1.0000 0.27570  0.83461  0.33203  Biso   1.000  C
  H38      1.0000 0.29816  0.71494  0.15883  Biso   1.000  H
  H39      1.0000 0.76616  0.38118  0.11807  Biso   1.000  H
  H40      1.0000 0.77945  0.30441  0.01989  Biso   1.000  H
  C66      1.0000 0.78708  0.23556  0.11940  Biso   1.000  C
  O19      1.0000 0.23874  0.88399  0.40174  Biso   1.000  O
  O20      1.0000 0.40332  0.87474  0.30356  Biso   1.000  O
  C67      1.0000 0.64103  0.16287  0.09707  Biso   1.000  C
  C68      1.0000 0.89977  0.21668  0.16797  Biso   1.000  C
  C69      1.0000 0.49977  0.98408  0.36301  Biso   1.000  C
  H41      1.0000 0.56471  0.17440  0.06371  Biso   1.000  H
  C70      1.0000 0.60882  0.07313  0.12470  Biso   1.000  C
  C71      1.0000 0.86594  0.12669  0.19539  Biso   1.000  C
  H42      1.0000 0.99869  0.26460  0.18220  Biso   1.000  H
  H43      1.0000 0.53173  0.98378  0.42351  Biso   1.000  H
  H44      1.0000 0.58699  0.00603  0.33601  Biso   1.000  H
  H45      1.0000 0.44504  0.03516  0.36922  Biso   1.000  H
  H46      1.0000 0.51041  0.02421  0.11012  Biso   1.000  H
  C72      1.0000 0.72125  0.05581  0.17369  Biso   1.000  C
  H47      1.0000 0.94164  0.11451  0.22847  Biso   1.000  H
  H48      1.0000 0.69852  0.99517  0.19218  Biso   1.000  H
