data_image0
_cell_length_a       11.812
_cell_length_b       12.254
_cell_length_c       16.871
_cell_angle_alpha    86.2
_cell_angle_beta     72.15
_cell_angle_gamma    63.84

_symmetry_space_group_name_H-M    "P 1"
_symmetry_int_tables_number       1

loop_
  _symmetry_equiv_pos_as_xyz
  'x, y, z'

loop_
  _atom_site_label
  _atom_site_occupancy
  _atom_site_fract_x
  _atom_site_fract_y
  _atom_site_fract_z
  _atom_site_thermal_displace_type
  _atom_site_B_iso_or_equiv
  _atom_site_type_symbol
  C1       1.0000 0.14820  0.52712  0.97576  Biso   1.000  C
  C2       1.0000 0.18669  0.49788  0.04873  Biso   1.000  C
  C3       1.0000 0.14256  0.63658  0.94796  Biso   1.000  C
  H1       1.0000 0.12855  0.47679  0.94908  Biso   1.000  H
  C4       1.0000 0.21201  0.58434  0.07653  Biso   1.000  C
  H2       1.0000 0.19406  0.42715  0.07503  Biso   1.000  H
  S1       1.0000 0.19049  0.70064  0.01175  Biso   1.000  S
  C5       1.0000 0.09384  0.69434  0.87399  Biso   1.000  C
  C6       1.0000 0.23822  0.59285  0.15881  Biso   1.000  C
  C7       1.0000 0.17386  0.58833  0.80758  Biso   1.000  C
  C8       1.0000 0.94317  0.73985  0.89679  Biso   1.000  C
  C9       1.0000 0.12077  0.80426  0.84306  Biso   1.000  C
  C10      1.0000 0.10454  0.64294  0.22753  Biso   1.000  C
  C11      1.0000 0.29896  0.68391  0.15312  Biso   1.000  C
  C12      1.0000 0.33093  0.46620  0.17818  Biso   1.000  C
  N1       1.0000 0.12550  0.52122  0.78665  Biso   1.000  N
  C13      1.0000 0.31645  0.54172  0.76766  Biso   1.000  C
  C14      1.0000 0.86360  0.77405  0.97957  Biso   1.000  C
  C15      1.0000 0.88282  0.75844  0.83538  Biso   1.000  C
  C16      1.0000 0.16111  0.81893  0.75841  Biso   1.000  C
  C17      1.0000 0.09340  0.89853  0.89779  Biso   1.000  C
  N2       1.0000 0.00897  0.61030  0.22834  Biso   1.000  N
  C18      1.0000 0.05476  0.72548  0.29619  Biso   1.000  C
  C19      1.0000 0.43248  0.64429  0.14169  Biso   1.000  C
  C20      1.0000 0.22056  0.80817  0.15519  Biso   1.000  C
  C21      1.0000 0.43609  0.38349  0.11508  Biso   1.000  C
  C22      1.0000 0.31698  0.43396  0.25958  Biso   1.000  C
  C23      1.0000 0.23620  0.42586  0.73030  Biso   1.000  C
  C24      1.0000 0.35309  0.44198  0.72049  Biso   1.000  C
  H3       1.0000 0.37065  0.57493  0.77409  Biso   1.000  H
  H4       1.0000 0.90234  0.76238  0.02180  Biso   1.000  H
  C25      1.0000 0.72667  0.82531  0.99956  Biso   1.000  C
  H5       1.0000 0.93448  0.73887  0.77959  Biso   1.000  H
  C26      1.0000 0.74636  0.80587  0.85600  Biso   1.000  C
  H6       1.0000 0.17624  0.75913  0.71999  Biso   1.000  H
  C27      1.0000 0.17938  0.92021  0.72980  Biso   1.000  C
  H7       1.0000 0.05936  0.89497  0.95489  Biso   1.000  H
  C28      1.0000 0.11572  0.99781  0.86918  Biso   1.000  C
  C29      1.0000 0.89624  0.67190  0.29288  Biso   1.000  C
  H8       1.0000 0.01801  0.55757  0.19280  Biso   1.000  H
  C30      1.0000 0.92437  0.74442  0.33580  Biso   1.000  C
  H9       1.0000 0.09976  0.76143  0.31268  Biso   1.000  H
  H10      1.0000 0.48754  0.56134  0.13913  Biso   1.000  H
  C31      1.0000 0.48518  0.72756  0.13388  Biso   1.000  C
  H11      1.0000 0.13064  0.83619  0.16231  Biso   1.000  H
  C32      1.0000 0.27149  0.89069  0.14719  Biso   1.000  C
  C33      1.0000 0.52334  0.27160  0.13382  Biso   1.000  C
  H12      1.0000 0.44835  0.40300  0.05991  Biso   1.000  H
  C34      1.0000 0.40367  0.32213  0.27739  Biso   1.000  C
  H13      1.0000 0.24814  0.48836  0.30312  Biso   1.000  H
  C35      1.0000 0.22311  0.33867  0.69406  Biso   1.000  C
  H14      1.0000 0.43865  0.39185  0.68707  Biso   1.000  H
  H15      1.0000 0.67401  0.85002  0.05498  Biso   1.000  H
  C36      1.0000 0.66840  0.83999  0.93809  Biso   1.000  C
  H16      1.0000 0.70724  0.81461  0.81439  Biso   1.000  H
  H17      1.0000 0.20520  0.92822  0.67270  Biso   1.000  H
  C37      1.0000 0.15988  0.00794  0.78459  Biso   1.000  C
  H18      1.0000 0.10087  0.05800  0.90710  Biso   1.000  H
  C38      1.0000 0.77690  0.66125  0.30587  Biso   1.000  C
  H19      1.0000 0.86604  0.79690  0.38309  Biso   1.000  H
  H20      1.0000 0.57486  0.70021  0.12701  Biso   1.000  H
  C39      1.0000 0.40422  0.85134  0.13651  Biso   1.000  C
  H21      1.0000 0.21625  0.97364  0.14900  Biso   1.000  H
  H22      1.0000 0.59350  0.21692  0.09102  Biso   1.000  H
  C40      1.0000 0.50658  0.24150  0.21572  Biso   1.000  C
  H23      1.0000 0.39117  0.30179  0.33243  Biso   1.000  H
  C41      1.0000 0.10377  0.32802  0.70706  Biso   1.000  C
  C42      1.0000 0.34650  0.23877  0.63940  Biso   1.000  C
  H24      1.0000 0.57655  0.87297  0.95177  Biso   1.000  H
  H25      1.0000 0.17613  0.07412  0.76516  Biso   1.000  H
  C43      1.0000 0.76378  0.57407  0.26970  Biso   1.000  C
  C44      1.0000 0.65349  0.76116  0.36060  Biso   1.000  C
  H26      1.0000 0.43926  0.90715  0.13101  Biso   1.000  H
  H27      1.0000 0.56509  0.16688  0.22828  Biso   1.000  H
  N3       1.0000 0.99102  0.38963  0.77166  Biso   1.000  N
  C45      1.0000 0.07561  0.25551  0.66420  Biso   1.000  C
  C46      1.0000 0.42431  0.14110  0.67470  Biso   1.000  C
  C47      1.0000 0.39100  0.23832  0.55368  Biso   1.000  C
  N4       1.0000 0.87449  0.47871  0.21335  Biso   1.000  N
  C48      1.0000 0.64690  0.55795  0.27951  Biso   1.000  C
  C49      1.0000 0.57567  0.85883  0.32530  Biso   1.000  C
  C50      1.0000 0.60898  0.76161  0.44632  Biso   1.000  C
  C51      1.0000 0.89544  0.35699  0.77247  Biso   1.000  C
  H28      1.0000 0.98198  0.44236  0.80720  Biso   1.000  H
  C52      1.0000 0.94523  0.27445  0.70381  Biso   1.000  C
  H29      1.0000 0.13395  0.20303  0.61691  Biso   1.000  H
  F1       1.0000 0.38754  0.13547  0.75741  Biso   1.000  F
  C53      1.0000 0.54045  0.04955  0.62765  Biso   1.000  C
  F2       1.0000 0.31926  0.32870  0.51583  Biso   1.000  F
  C54      1.0000 0.50567  0.14763  0.50620  Biso   1.000  C
  C55      1.0000 0.82613  0.41160  0.19242  Biso   1.000  C
  C56      1.0000 0.68357  0.45820  0.23228  Biso   1.000  C
  H30      1.0000 0.56134  0.60807  0.31293  Biso   1.000  H
  F3       1.0000 0.61245  0.86446  0.24259  Biso   1.000  F
  C57      1.0000 0.45956  0.95037  0.37228  Biso   1.000  C
  F4       1.0000 0.68073  0.67123  0.48417  Biso   1.000  F
  C58      1.0000 0.49431  0.85229  0.49380  Biso   1.000  C
  C59      1.0000 0.76177  0.40708  0.84119  Biso   1.000  C
  H31      1.0000 0.90026  0.23850  0.68725  Biso   1.000  H
  F5       1.0000 0.61558  0.95679  0.66376  Biso   1.000  F
  C60      1.0000 0.58085  0.05470  0.54238  Biso   1.000  C
  F6       1.0000 0.54594  0.14917  0.42268  Biso   1.000  F
  C61      1.0000 0.90615  0.30559  0.12601  Biso   1.000  C
  H32      1.0000 0.62933  0.42499  0.22591  Biso   1.000  H
  C62      1.0000 0.41913  0.94523  0.45762  Biso   1.000  C
  F7       1.0000 0.38439  0.04322  0.33617  Biso   1.000  F
  F8       1.0000 0.45404  0.85076  0.57732  Biso   1.000  F
  C63      1.0000 0.78797  0.41559  0.92347  Biso   1.000  C
  C64      1.0000 0.70103  0.31602  0.84688  Biso   1.000  C
  C65      1.0000 0.66909  0.53372  0.82176  Biso   1.000  C
  F9       1.0000 0.69646  0.96446  0.49558  Biso   1.000  F
  C66      1.0000 0.87925  0.19566  0.15687  Biso   1.000  C
  C67      1.0000 0.85745  0.36334  0.05198  Biso   1.000  C
  C68      1.0000 0.05682  0.26008  0.10321  Biso   1.000  C
  F10      1.0000 0.30349  0.03556  0.50442  Biso   1.000  F
  S2       1.0000 0.80950  0.29929  0.98825  Biso   1.000  S
  C69      1.0000 0.81330  0.50205  0.95127  Biso   1.000  C
  C70      1.0000 0.56751  0.35564  0.85831  Biso   1.000  C
  C71      1.0000 0.77942  0.19176  0.84481  Biso   1.000  C
  C72      1.0000 0.56393  0.61643  0.88486  Biso   1.000  C
  C73      1.0000 0.68304  0.56596  0.74036  Biso   1.000  C
  C74      1.0000 0.83888  0.18099  0.24159  Biso   1.000  C
  C75      1.0000 0.90659  0.10140  0.10221  Biso   1.000  C
  C76      1.0000 0.85181  0.47281  0.02418  Biso   1.000  C
  C77      1.0000 0.13639  0.22588  0.02043  Biso   1.000  C
  C78      1.0000 0.11717  0.24149  0.16462  Biso   1.000  C
  H33      1.0000 0.80592  0.57278  0.92497  Biso   1.000  H
  H34      1.0000 0.51245  0.43859  0.86087  Biso   1.000  H
  C79      1.0000 0.51484  0.27236  0.86606  Biso   1.000  C
  H35      1.0000 0.86935  0.16374  0.83769  Biso   1.000  H
  C80      1.0000 0.72850  0.10924  0.85281  Biso   1.000  C
  C81      1.0000 0.47665  0.72833  0.86618  Biso   1.000  C
  H36      1.0000 0.55164  0.59692  0.94009  Biso   1.000  H
  C82      1.0000 0.59634  0.67779  0.72255  Biso   1.000  C
  H37      1.0000 0.75185  0.51157  0.69688  Biso   1.000  H
  C83      1.0000 0.82061  0.07971  0.27020  Biso   1.000  C
  H38      1.0000 0.82374  0.24080  0.28001  Biso   1.000  H
  C84      1.0000 0.88427  0.00212  0.13082  Biso   1.000  C
  H39      1.0000 0.94063  0.10496  0.04511  Biso   1.000  H
  H40      1.0000 0.87144  0.52314  0.05092  Biso   1.000  H
  H41      1.0000 0.09764  0.23755  0.97820  Biso   1.000  H
  C85      1.0000 0.27334  0.17461  0.00037  Biso   1.000  C
  H42      1.0000 0.06551  0.26106  0.22041  Biso   1.000  H
  C86      1.0000 0.25363  0.19406  0.14400  Biso   1.000  C
  H43      1.0000 0.42512  0.29972  0.87299  Biso   1.000  H
  C87      1.0000 0.59576  0.14859  0.86349  Biso   1.000  C
  H44      1.0000 0.78374  0.02629  0.85100  Biso   1.000  H
  H45      1.0000 0.40649  0.78301  0.90898  Biso   1.000  H
  C88      1.0000 0.49341  0.75843  0.78428  Biso   1.000  C
  H46      1.0000 0.60882  0.69814  0.66757  Biso   1.000  H
  H47      1.0000 0.79478  0.07171  0.32730  Biso   1.000  H
  C89      1.0000 0.84002  0.99198  0.21541  Biso   1.000  C
  H48      1.0000 0.89903  0.94193  0.09290  Biso   1.000  H
  H49      1.0000 0.32601  0.14990  0.94496  Biso   1.000  H
  C90      1.0000 0.33159  0.15994  0.06191  Biso   1.000  C
  H50      1.0000 0.29275  0.18532  0.18561  Biso   1.000  H
  H51      1.0000 0.56072  0.09278  0.86899  Biso   1.000  H
  H52      1.0000 0.43492  0.83304  0.77166  Biso   1.000  H
  H53      1.0000 0.82380  0.92580  0.23478  Biso   1.000  H
  H54      1.0000 0.42344  0.12696  0.04823  Biso   1.000  H
