data_image0
_cell_length_a       13.183
_cell_length_b       13.482
_cell_length_c       19.386
_cell_angle_alpha    80.28
_cell_angle_beta     84.61
_cell_angle_gamma    84.72

_symmetry_space_group_name_H-M    "P 1"
_symmetry_int_tables_number       1

loop_
  _symmetry_equiv_pos_as_xyz
  'x, y, z'

loop_
  _atom_site_label
  _atom_site_occupancy
  _atom_site_fract_x
  _atom_site_fract_y
  _atom_site_fract_z
  _atom_site_thermal_displace_type
  _atom_site_B_iso_or_equiv
  _atom_site_type_symbol
  C1       1.0000 0.60749  0.57685  0.48481  Biso   1.000  C
  C2       1.0000 0.59078  0.67151  0.44349  Biso   1.000  C
  C3       1.0000 0.63223  0.49022  0.45368  Biso   1.000  C
  N1       1.0000 0.60152  0.55941  0.55632  Biso   1.000  N
  C4       1.0000 0.59439  0.67526  0.37251  Biso   1.000  C
  H1       1.0000 0.57765  0.72976  0.46370  Biso   1.000  H
  C5       1.0000 0.63830  0.49561  0.38080  Biso   1.000  C
  N2       1.0000 0.64419  0.40499  0.50151  Biso   1.000  N
  S1       1.0000 0.62507  0.43971  0.57779  Biso   1.000  S
  C6       1.0000 0.61738  0.58751  0.34111  Biso   1.000  C
  O1       1.0000 0.57989  0.76691  0.32720  Biso   1.000  O
  H2       1.0000 0.65610  0.43845  0.36006  Biso   1.000  H
  O2       1.0000 0.61926  0.59732  0.26808  Biso   1.000  O
  C7       1.0000 0.47811  0.80724  0.31937  Biso   1.000  C
  C8       1.0000 0.52935  0.57899  0.24120  Biso   1.000  C
  C9       1.0000 0.44171  0.81393  0.25432  Biso   1.000  C
  C10      1.0000 0.42372  0.84666  0.37382  Biso   1.000  C
  C11      1.0000 0.50205  0.48018  0.24808  Biso   1.000  C
  C12      1.0000 0.47349  0.65796  0.20298  Biso   1.000  C
  C13      1.0000 0.50255  0.76603  0.19631  Biso   1.000  C
  C14      1.0000 0.34467  0.86417  0.24550  Biso   1.000  C
  C15      1.0000 0.32740  0.89383  0.36348  Biso   1.000  C
  H3       1.0000 0.45118  0.84158  0.41682  Biso   1.000  H
  C16      1.0000 0.41866  0.46005  0.21642  Biso   1.000  C
  H4       1.0000 0.54010  0.42780  0.27412  Biso   1.000  H
  C17      1.0000 0.38971  0.63366  0.17258  Biso   1.000  C
  C18      1.0000 0.49402  0.82769  0.12328  Biso   1.000  C
  H5       1.0000 0.57471  0.76207  0.20597  Biso   1.000  H
  C19      1.0000 0.28630  0.90582  0.29869  Biso   1.000  C
  H6       1.0000 0.31797  0.86977  0.20219  Biso   1.000  H
  O3       1.0000 0.27411  0.94262  0.41509  Biso   1.000  O
  O4       1.0000 0.39777  0.35947  0.21810  Biso   1.000  O
  C20      1.0000 0.36134  0.53653  0.17672  Biso   1.000  C
  H7       1.0000 0.35009  0.68615  0.14801  Biso   1.000  H
  C21      1.0000 0.56309  0.78667  0.06579  Biso   1.000  C
  H8       1.0000 0.42373  0.83077  0.11162  Biso   1.000  H
  H9       1.0000 0.51025  0.89617  0.12443  Biso   1.000  H
  C22      1.0000 0.18228  0.96536  0.28740  Biso   1.000  C
  C23      1.0000 0.22910  0.88763  0.47478  Biso   1.000  C
  C24      1.0000 0.35307  0.30775  0.28042  Biso   1.000  C
  C25      1.0000 0.27339  0.51448  0.13761  Biso   1.000  C
  H10      1.0000 0.55600  0.71472  0.07056  Biso   1.000  H
  H11      1.0000 0.63334  0.79509  0.07314  Biso   1.000  H
  H12      1.0000 0.53275  0.73229  0.05009  Biso   1.000  H
  H13      1.0000 0.62932  0.76153  0.08227  Biso   1.000  H
  C26      1.0000 0.57341  0.87890  0.00509  Biso   1.000  C
  C27      1.0000 0.54293  0.83527  0.99029  Biso   1.000  C
  C28      1.0000 0.09576  0.89585  0.30761  Biso   1.000  C
  C29      1.0000 0.17812  0.02856  0.21510  Biso   1.000  C
  H14      1.0000 0.17392  0.01315  0.32084  Biso   1.000  H
  C30      1.0000 0.11788  0.89534  0.48008  Biso   1.000  C
  C31      1.0000 0.28160  0.83929  0.52739  Biso   1.000  C
  C32      1.0000 0.24346  0.30208  0.28430  Biso   1.000  C
  C33      1.0000 0.41048  0.25936  0.33161  Biso   1.000  C
  C34      1.0000 0.17163  0.52365  0.18218  Biso   1.000  C
  C35      1.0000 0.27179  0.57498  0.06348  Biso   1.000  C
  H15      1.0000 0.28519  0.44340  0.13194  Biso   1.000  H
  H16      1.0000 0.59785  0.93418  0.02336  Biso   1.000  H
  H17      1.0000 0.55477  0.90621  0.98472  Biso   1.000  H
  H18      1.0000 0.50648  0.90090  0.98866  Biso   1.000  H
  C36      1.0000 0.64558  0.85412  0.94377  Biso   1.000  C
  C37      1.0000 0.60567  0.79067  0.93217  Biso   1.000  C
  H19      1.0000 0.47132  0.83123  0.98425  Biso   1.000  H
  C38      1.0000 0.06482  0.84104  0.25978  Biso   1.000  C
  C39      1.0000 0.04420  0.88690  0.37340  Biso   1.000  C
  H20      1.0000 0.18357  0.98372  0.18045  Biso   1.000  H
  C40      1.0000 0.08107  0.09885  0.20592  Biso   1.000  C
  H21      1.0000 0.23676  0.06877  0.20586  Biso   1.000  H
  O5       1.0000 0.06952  0.94531  0.42212  Biso   1.000  O
  C41      1.0000 0.06425  0.86050  0.54062  Biso   1.000  C
  C42      1.0000 0.22765  0.79769  0.59102  Biso   1.000  C
  H22      1.0000 0.35266  0.83280  0.52261  Biso   1.000  H
  O6       1.0000 0.19385  0.34633  0.22560  Biso   1.000  O
  C43      1.0000 0.19466  0.24796  0.34058  Biso   1.000  C
  C44      1.0000 0.36025  0.20415  0.39130  Biso   1.000  C
  H23      1.0000 0.48099  0.26220  0.32772  Biso   1.000  H
  C45      1.0000 0.13753  0.44053  0.22702  Biso   1.000  C
  C46      1.0000 0.10956  0.61336  0.18108  Biso   1.000  C
  C47      1.0000 0.36912  0.55347  0.01822  Biso   1.000  C
  H24      1.0000 0.21372  0.55838  0.04163  Biso   1.000  H
  H25      1.0000 0.26322  0.64641  0.06642  Biso   1.000  H
  H26      1.0000 0.67747  0.78695  0.94046  Biso   1.000  H
  H27      1.0000 0.70620  0.81578  0.96162  Biso   1.000  H
  H28      1.0000 0.66670  0.91663  0.91579  Biso   1.000  H
  C48      1.0000 0.59822  0.79387  0.89720  Biso   1.000  C
  C49      1.0000 0.58918  0.85374  0.85977  Biso   1.000  C
  H29      1.0000 0.58712  0.72260  0.93274  Biso   1.000  H
  H30      1.0000 0.57021  0.73613  0.92676  Biso   1.000  H
  C50      1.0000 0.98318  0.77841  0.27511  Biso   1.000  C
  H31      1.0000 0.09968  0.84589  0.21552  Biso   1.000  H
  C51      1.0000 0.96322  0.82612  0.39041  Biso   1.000  C
  C52      1.0000 0.08665  0.16839  0.13519  Biso   1.000  C
  H32      1.0000 0.02268  0.05894  0.20938  Biso   1.000  H
  H33      1.0000 0.07127  0.13927  0.24324  Biso   1.000  H
  C53      1.0000 0.11890  0.81114  0.59759  Biso   1.000  C
  H34      1.0000 0.99328  0.86872  0.54466  Biso   1.000  H
  N3       1.0000 0.26844  0.74764  0.64998  Biso   1.000  N
  C54      1.0000 0.25299  0.19997  0.39582  Biso   1.000  C
  H35      1.0000 0.12455  0.24246  0.34279  Biso   1.000  H
  N4       1.0000 0.40378  0.15223  0.44869  Biso   1.000  N
  C55      1.0000 0.04674  0.44537  0.26871  Biso   1.000  C
  H36      1.0000 0.13071  0.67038  0.15110  Biso   1.000  H
  C56      1.0000 0.01754  0.62236  0.22219  Biso   1.000  C
  H37      1.0000 0.42650  0.56980  0.04090  Biso   1.000  H
  H38      1.0000 0.37733  0.48168  0.01654  Biso   1.000  H
  C57      1.0000 0.37488  0.60953  0.94330  Biso   1.000  C
  H39      1.0000 0.65247  0.76893  0.86575  Biso   1.000  H
  C58      1.0000 0.51417  0.84988  0.85299  Biso   1.000  C
  C59      1.0000 0.48272  0.85285  0.83540  Biso   1.000  C
  H40      1.0000 0.60237  0.92295  0.86103  Biso   1.000  H
  H41      1.0000 0.63885  0.82857  0.82543  Biso   1.000  H
  H42      1.0000 0.54448  0.88854  0.81099  Biso   1.000  H
  C60      1.0000 0.95061  0.72084  0.22119  Biso   1.000  C
  C61      1.0000 0.93512  0.77344  0.34142  Biso   1.000  C
  H43      1.0000 0.92816  0.82106  0.43462  Biso   1.000  H
  C62      1.0000 0.99399  0.24208  0.12259  Biso   1.000  C
  H44      1.0000 0.14653  0.20631  0.13162  Biso   1.000  H
  H45      1.0000 0.09570  0.12722  0.09823  Biso   1.000  H
  N5       1.0000 0.07883  0.77233  0.66201  Biso   1.000  N
  S2       1.0000 0.17356  0.72363  0.70684  Biso   1.000  S
  N6       1.0000 0.21540  0.14723  0.45677  Biso   1.000  N
  S3       1.0000 0.31191  0.10573  0.50135  Biso   1.000  S
  H46      1.0000 0.02492  0.38789  0.29780  Biso   1.000  H
  C63      1.0000 0.98942  0.53572  0.26682  Biso   1.000  C
  C64      1.0000 0.29097  0.59354  0.89830  Biso   1.000  C
  H47      1.0000 0.44016  0.58989  0.92009  Biso   1.000  H
  H48      1.0000 0.37345  0.68118  0.94492  Biso   1.000  H
  H49      1.0000 0.43263  0.87645  0.86943  Biso   1.000  H
  H50      1.0000 0.47071  0.78558  0.83031  Biso   1.000  H
  H51      1.0000 0.47173  0.89399  0.87924  Biso   1.000  H
  H52      1.0000 0.47307  0.80148  0.83976  Biso   1.000  H
  H53      1.0000 0.47775  0.89660  0.79104  Biso   1.000  H
  C65      1.0000 0.94541  0.78229  0.14780  Biso   1.000  C
  H54      1.0000 0.88106  0.70226  0.23705  Biso   1.000  H
  O7       1.0000 0.84910  0.71526  0.35907  Biso   1.000  O
  H55      1.0000 0.98544  0.28463  0.15877  Biso   1.000  H
  H56      1.0000 0.93369  0.20481  0.12653  Biso   1.000  H
  C66      1.0000 0.00245  0.30953  0.04998  Biso   1.000  C
  O8       1.0000 0.89298  0.54033  0.30562  Biso   1.000  O
  C67      1.0000 0.28121  0.48417  0.89520  Biso   1.000  C
  H57      1.0000 0.22618  0.62257  0.91699  Biso   1.000  H
  H58      1.0000 0.30509  0.62905  0.85094  Biso   1.000  H
  H59      1.0000 0.01115  0.80853  0.13231  Biso   1.000  H
  C68      1.0000 0.86257  0.87025  0.14559  Biso   1.000  C
  H60      1.0000 0.93131  0.73838  0.11556  Biso   1.000  H
  C69      1.0000 0.86373  0.62572  0.40590  Biso   1.000  C
  H61      1.0000 0.93642  0.34521  0.04132  Biso   1.000  H
  C70      1.0000 0.08058  0.38460  0.04331  Biso   1.000  C
  H62      1.0000 0.01958  0.26693  0.01433  Biso   1.000  H
  C71      1.0000 0.88816  0.53402  0.37770  Biso   1.000  C
  C72      1.0000 0.20081  0.47040  0.84737  Biso   1.000  C
  H63      1.0000 0.26355  0.44906  0.94209  Biso   1.000  H
  H64      1.0000 0.34666  0.45410  0.87840  Biso   1.000  H
  C73      1.0000 0.87459  0.95303  0.07849  Biso   1.000  C
  H65      1.0000 0.86422  0.90171  0.18686  Biso   1.000  H
  H66      1.0000 0.79621  0.84372  0.14759  Biso   1.000  H
  H67      1.0000 0.88547  0.92318  0.16722  Biso   1.000  H
  H68      1.0000 0.80076  0.84717  0.17216  Biso   1.000  H
  C74      1.0000 0.83912  0.91318  0.06920  Biso   1.000  C
  C75      1.0000 0.84821  0.62621  0.47562  Biso   1.000  C
  H69      1.0000 0.08499  0.42129  0.99632  Biso   1.000  H
  H70      1.0000 0.14578  0.35007  0.05340  Biso   1.000  H
  H71      1.0000 0.06121  0.43058  0.07592  Biso   1.000  H
  C76      1.0000 0.89788  0.44388  0.42039  Biso   1.000  C
  H72      1.0000 0.21897  0.50340  0.80054  Biso   1.000  H
  H73      1.0000 0.13570  0.49937  0.86407  Biso   1.000  H
  H74      1.0000 0.19664  0.39974  0.84722  Biso   1.000  H
  H75      1.0000 0.94235  0.97711  0.07455  Biso   1.000  H
  H76      1.0000 0.86786  0.92332  0.03707  Biso   1.000  H
  H77      1.0000 0.90031  0.93735  0.04242  Biso   1.000  H
  C77      1.0000 0.75620  0.99957  0.07020  Biso   1.000  C
  C78      1.0000 0.79425  0.04270  0.08112  Biso   1.000  C
  H78      1.0000 0.81600  0.86064  0.04715  Biso   1.000  H
  C79      1.0000 0.85858  0.53219  0.52119  Biso   1.000  C
  H79      1.0000 0.83134  0.68618  0.49321  Biso   1.000  H
  C80      1.0000 0.88301  0.44192  0.49421  Biso   1.000  C
  H80      1.0000 0.91392  0.38449  0.40186  Biso   1.000  H
  H81      1.0000 0.69288  0.97267  0.09172  Biso   1.000  H
  C81      1.0000 0.73801  0.05689  0.99758  Biso   1.000  C
  H82      1.0000 0.72690  0.01834  0.08337  Biso   1.000  H
  H83      1.0000 0.77548  0.04601  0.09892  Biso   1.000  H
  C82      1.0000 0.80436  0.12849  0.01869  Biso   1.000  C
  H84      1.0000 0.79916  0.06963  0.12391  Biso   1.000  H
  N7       1.0000 0.84622  0.51853  0.59249  Biso   1.000  N
  N8       1.0000 0.88757  0.35915  0.54398  Biso   1.000  N
  C83      1.0000 0.78916  0.09479  0.95180  Biso   1.000  C
  H85      1.0000 0.72597  0.06310  0.95642  Biso   1.000  H
  H86      1.0000 0.72546  0.00888  0.96792  Biso   1.000  H
  C84      1.0000 0.82414  0.11886  0.96167  Biso   1.000  C
  H87      1.0000 0.67653  0.10193  0.00121  Biso   1.000  H
  H88      1.0000 0.83657  0.16797  0.98981  Biso   1.000  H
  H89      1.0000 0.75427  0.18380  0.02620  Biso   1.000  H
  H90      1.0000 0.87177  0.15323  0.01575  Biso   1.000  H
  S4       1.0000 0.86413  0.39805  0.61796  Biso   1.000  S
  H91      1.0000 0.84470  0.04749  0.94057  Biso   1.000  H
  H92      1.0000 0.78667  0.15208  0.91489  Biso   1.000  H
  H93      1.0000 0.80592  0.15240  0.91642  Biso   1.000  H
  H94      1.0000 0.88531  0.07499  0.95621  Biso   1.000  H
  C85      1.0000 0.39270  0.42304  0.51521  Biso   1.000  C
  N9       1.0000 0.39866  0.44047  0.44370  Biso   1.000  N
  C86      1.0000 0.36797  0.50960  0.54629  Biso   1.000  C
  C87      1.0000 0.40942  0.32831  0.55648  Biso   1.000  C
  S5       1.0000 0.37513  0.56011  0.42217  Biso   1.000  S
  N10      1.0000 0.35601  0.59482  0.49851  Biso   1.000  N
  C88      1.0000 0.36189  0.50421  0.61922  Biso   1.000  C
  C89      1.0000 0.40579  0.32462  0.62751  Biso   1.000  C
  H95      1.0000 0.42254  0.27005  0.53631  Biso   1.000  H
  C90      1.0000 0.38281  0.41230  0.65891  Biso   1.000  C
  H96      1.0000 0.34409  0.56145  0.63990  Biso   1.000  H
  O9       1.0000 0.42030  0.23290  0.67282  Biso   1.000  O
  O10      1.0000 0.38093  0.40250  0.73189  Biso   1.000  O
  C91      1.0000 0.52209  0.19259  0.68059  Biso   1.000  C
  C92      1.0000 0.47083  0.42090  0.75882  Biso   1.000  C
  C93      1.0000 0.55848  0.18588  0.74570  Biso   1.000  C
  C94      1.0000 0.57647  0.15323  0.62620  Biso   1.000  C
  C95      1.0000 0.52670  0.34186  0.79699  Biso   1.000  C
  C96      1.0000 0.49814  0.51972  0.75189  Biso   1.000  C
  C97      1.0000 0.49756  0.23378  0.80371  Biso   1.000  C
  C98      1.0000 0.65551  0.13571  0.75452  Biso   1.000  C
  C99      1.0000 0.67279  0.10600  0.63649  Biso   1.000  C
  H97      1.0000 0.54902  0.15823  0.58320  Biso   1.000  H
  C100     1.0000 0.61049  0.36616  0.82739  Biso   1.000  C
  C101     1.0000 0.58154  0.53976  0.78360  Biso   1.000  C
  H98      1.0000 0.46009  0.57209  0.72590  Biso   1.000  H
  C102     1.0000 0.50617  0.17221  0.87669  Biso   1.000  C
  H99      1.0000 0.42548  0.23775  0.79400  Biso   1.000  H
  C103     1.0000 0.71390  0.09400  0.70128  Biso   1.000  C
  H100     1.0000 0.68223  0.13005  0.79783  Biso   1.000  H
  O11      1.0000 0.72608  0.05720  0.58488  Biso   1.000  O
  H101     1.0000 0.65010  0.31375  0.85196  Biso   1.000  H
  C104     1.0000 0.63885  0.46328  0.82329  Biso   1.000  C
  O12      1.0000 0.60241  0.64042  0.78192  Biso   1.000  O
  C105     1.0000 0.43711  0.21316  0.93418  Biso   1.000  C
  H102     1.0000 0.57645  0.16912  0.88840  Biso   1.000  H
  H103     1.0000 0.48995  0.10373  0.87553  Biso   1.000  H
  C106     1.0000 0.81791  0.03453  0.71262  Biso   1.000  C
  C107     1.0000 0.77110  0.11226  0.52518  Biso   1.000  C
  C108     1.0000 0.72679  0.48540  0.86241  Biso   1.000  C
  C109     1.0000 0.64712  0.69206  0.71960  Biso   1.000  C
  H104     1.0000 0.44420  0.28511  0.92940  Biso   1.000  H
  H105     1.0000 0.36685  0.20472  0.92688  Biso   1.000  H
  H106     1.0000 0.46745  0.26754  0.94988  Biso   1.000  H
  H107     1.0000 0.37087  0.23828  0.91775  Biso   1.000  H
  C110     1.0000 0.42678  0.12099  0.99487  Biso   1.000  C
  C111     1.0000 0.45718  0.16462  0.00973  Biso   1.000  C
  C112     1.0000 0.90443  0.10403  0.69241  Biso   1.000  C
  C113     1.0000 0.82207  0.97126  0.78491  Biso   1.000  C
  H108     1.0000 0.82627  0.98666  0.67917  Biso   1.000  H
  C114     1.0000 0.88232  0.10456  0.51988  Biso   1.000  C
  C115     1.0000 0.71860  0.16054  0.47258  Biso   1.000  C
  C116     1.0000 0.72840  0.42492  0.93649  Biso   1.000  C
  C117     1.0000 0.82857  0.47618  0.81778  Biso   1.000  C
  H109     1.0000 0.71500  0.55649  0.86808  Biso   1.000  H
  C118     1.0000 0.75673  0.69781  0.71572  Biso   1.000  C
  C119     1.0000 0.58970  0.74053  0.66841  Biso   1.000  C
  H110     1.0000 0.40234  0.06564  0.97665  Biso   1.000  H
  H111     1.0000 0.44541  0.09368  0.01530  Biso   1.000  H
  H112     1.0000 0.49371  0.09900  0.01131  Biso   1.000  H
  C120     1.0000 0.35461  0.14571  0.05620  Biso   1.000  C
  C121     1.0000 0.39452  0.20923  0.06780  Biso   1.000  C
  H113     1.0000 0.52886  0.16865  0.01577  Biso   1.000  H
  C122     1.0000 0.95599  0.11291  0.62662  Biso   1.000  C
  C123     1.0000 0.93538  0.15878  0.74018  Biso   1.000  C
  H114     1.0000 0.81662  0.01617  0.81957  Biso   1.000  H
  C124     1.0000 0.91912  0.90096  0.79410  Biso   1.000  C
  H115     1.0000 0.76344  0.93105  0.79416  Biso   1.000  H
  O13      1.0000 0.93067  0.05451  0.57790  Biso   1.000  O
  C125     1.0000 0.93595  0.13932  0.45940  Biso   1.000  C
  C126     1.0000 0.77254  0.20212  0.40900  Biso   1.000  C
  H116     1.0000 0.64753  0.16709  0.47741  Biso   1.000  H
  C127     1.0000 0.63107  0.44635  0.98180  Biso   1.000  C
  H117     1.0000 0.78647  0.44151  0.95838  Biso   1.000  H
  H118     1.0000 0.73696  0.35348  0.93360  Biso   1.000  H
  C128     1.0000 0.89064  0.38646  0.81888  Biso   1.000  C
  C129     1.0000 0.86266  0.55928  0.77300  Biso   1.000  C
  O14      1.0000 0.80634  0.65348  0.77441  Biso   1.000  O
  C130     1.0000 0.80553  0.75194  0.65938  Biso   1.000  C
  C131     1.0000 0.63994  0.79574  0.60872  Biso   1.000  C
  H119     1.0000 0.51920  0.73762  0.67230  Biso   1.000  H
  H120     1.0000 0.32272  0.21295  0.05950  Biso   1.000  H
  H121     1.0000 0.29400  0.18403  0.03840  Biso   1.000  H
  H122     1.0000 0.33349  0.08326  0.08418  Biso   1.000  H
  C132     1.0000 0.40189  0.20601  0.10282  Biso   1.000  C
  C133     1.0000 0.41102  0.14608  0.14020  Biso   1.000  C
  H123     1.0000 0.41307  0.27730  0.06722  Biso   1.000  H
  H124     1.0000 0.42997  0.26376  0.07326  Biso   1.000  H
  C134     1.0000 0.03697  0.17370  0.60961  Biso   1.000  C
  H125     1.0000 0.90052  0.15394  0.78444  Biso   1.000  H
  C135     1.0000 0.01701  0.22140  0.72490  Biso   1.000  C
  C136     1.0000 0.91355  0.83142  0.86482  Biso   1.000  C
  H126     1.0000 0.97751  0.94095  0.79064  Biso   1.000  H
  H127     1.0000 0.92892  0.86063  0.75672  Biso   1.000  H
  C137     1.0000 0.88129  0.18876  0.40238  Biso   1.000  C
  H128     1.0000 0.00692  0.13111  0.45530  Biso   1.000  H
  N11      1.0000 0.73175  0.25226  0.34998  Biso   1.000  N
  H129     1.0000 0.57369  0.43010  0.95907  Biso   1.000  H
  H130     1.0000 0.62286  0.51821  0.98348  Biso   1.000  H
  C138     1.0000 0.62531  0.39028  0.05672  Biso   1.000  C
  H131     1.0000 0.86949  0.32944  0.84886  Biso   1.000  H
  C139     1.0000 0.98265  0.37754  0.77777  Biso   1.000  C
  C140     1.0000 0.95345  0.55452  0.73131  Biso   1.000  C
  C141     1.0000 0.74720  0.79992  0.60420  Biso   1.000  C
  H132     1.0000 0.87563  0.75743  0.65723  Biso   1.000  H
  N12      1.0000 0.59642  0.84759  0.55128  Biso   1.000  N
  H133     1.0000 0.34772  0.23089  0.13427  Biso   1.000  H
  C142     1.0000 0.48602  0.15001  0.14703  Biso   1.000  C
  C143     1.0000 0.51748  0.14696  0.16461  Biso   1.000  C
  H134     1.0000 0.39782  0.07686  0.13899  Biso   1.000  H
  H135     1.0000 0.36134  0.17131  0.17459  Biso   1.000  H
  H136     1.0000 0.45571  0.11135  0.18903  Biso   1.000  H
  H137     1.0000 0.07204  0.17876  0.56535  Biso   1.000  H
  C144     1.0000 0.06506  0.22645  0.65859  Biso   1.000  C
  C145     1.0000 0.04959  0.27898  0.77877  Biso   1.000  C
  H138     1.0000 0.85366  0.79357  0.86839  Biso   1.000  H
  H139     1.0000 0.90449  0.87260  0.90179  Biso   1.000  H
  C146     1.0000 0.00621  0.75774  0.87737  Biso   1.000  C
  N13      1.0000 0.92135  0.22755  0.33801  Biso   1.000  N
  S6       1.0000 0.82662  0.27626  0.29317  Biso   1.000  S
  C147     1.0000 0.70923  0.40627  0.10172  Biso   1.000  C
  H140     1.0000 0.56002  0.40999  0.07993  Biso   1.000  H
  H141     1.0000 0.62675  0.31864  0.05504  Biso   1.000  H
  C148     1.0000 0.01078  0.46410  0.73320  Biso   1.000  C
  H142     1.0000 0.97528  0.61194  0.70217  Biso   1.000  H
  N14      1.0000 0.78480  0.85260  0.54319  Biso   1.000  N
  S7       1.0000 0.68829  0.89408  0.49867  Biso   1.000  S
  H143     1.0000 0.56756  0.12337  0.13054  Biso   1.000  H
  H144     1.0000 0.52948  0.21432  0.16965  Biso   1.000  H
  H145     1.0000 0.52846  0.10590  0.12077  Biso   1.000  H
  H146     1.0000 0.52712  0.19841  0.16026  Biso   1.000  H
  H147     1.0000 0.52244  0.10321  0.20898  Biso   1.000  H
  O15      1.0000 0.15108  0.28463  0.64095  Biso   1.000  O
  C149     1.0000 0.05478  0.21760  0.85222  Biso   1.000  C
  H148     1.0000 0.11912  0.29763  0.76297  Biso   1.000  H
  C150     1.0000 0.99774  0.69037  0.94998  Biso   1.000  C
  H149     1.0000 0.01475  0.71519  0.84125  Biso   1.000  H
  H150     1.0000 0.06650  0.79507  0.87349  Biso   1.000  H
  C151     1.0000 0.71898  0.51572  0.10481  Biso   1.000  C
  H151     1.0000 0.77400  0.37732  0.08303  Biso   1.000  H
  H152     1.0000 0.69511  0.37078  0.14902  Biso   1.000  H
  O16      1.0000 0.10722  0.45948  0.69440  Biso   1.000  O
  C152     1.0000 0.13646  0.37409  0.59412  Biso   1.000  C
  H153     1.0000 0.98904  0.19128  0.86771  Biso   1.000  H
  C153     1.0000 0.13756  0.12957  0.85438  Biso   1.000  C
  H154     1.0000 0.06889  0.26144  0.88441  Biso   1.000  H
  C154     1.0000 0.91960  0.61529  0.95670  Biso   1.000  C
  H155     1.0000 0.98061  0.73297  0.98563  Biso   1.000  H
  H156     1.0000 0.06377  0.65468  0.95870  Biso   1.000  H
  C155     1.0000 0.79937  0.52949  0.15264  Biso   1.000  C
  H157     1.0000 0.73664  0.55082  0.05793  Biso   1.000  H
  H158     1.0000 0.65353  0.54571  0.12161  Biso   1.000  H
  C156     1.0000 0.11203  0.46580  0.62231  Biso   1.000  C
  C157     1.0000 0.15198  0.37361  0.52440  Biso   1.000  C
  C158     1.0000 0.12561  0.04680  0.92147  Biso   1.000  C
  H159     1.0000 0.13597  0.09819  0.81311  Biso   1.000  H
  H160     1.0000 0.20398  0.15610  0.85243  Biso   1.000  H
  H161     1.0000 0.11473  0.07665  0.83274  Biso   1.000  H
  H162     1.0000 0.19943  0.15273  0.82781  Biso   1.000  H
  C159     1.0000 0.16107  0.08671  0.93082  Biso   1.000  C
  H163     1.0000 0.85442  0.64975  0.94657  Biso   1.000  H
  H164     1.0000 0.93898  0.56923  0.92410  Biso   1.000  H
  H165     1.0000 0.91521  0.57861  0.00364  Biso   1.000  H
  H166     1.0000 0.78122  0.49649  0.19948  Biso   1.000  H
  H167     1.0000 0.86449  0.50044  0.13595  Biso   1.000  H
  H168     1.0000 0.80355  0.60016  0.15275  Biso   1.000  H
  C160     1.0000 0.10231  0.55602  0.57958  Biso   1.000  C
  C161     1.0000 0.14161  0.46762  0.47882  Biso   1.000  C
  H169     1.0000 0.16885  0.31372  0.50676  Biso   1.000  H
  C162     1.0000 0.20594  0.95711  0.91890  Biso   1.000  C
  H170     1.0000 0.05784  0.02278  0.92546  Biso   1.000  H
  H171     1.0000 0.13233  0.07658  0.96290  Biso   1.000  H
  H172     1.0000 0.09988  0.06247  0.95760  Biso   1.000  H
  C163     1.0000 0.24398  0.00031  0.92982  Biso   1.000  C
  H173     1.0000 0.18419  0.13918  0.95282  Biso   1.000  H
  C164     1.0000 0.11718  0.55789  0.50581  Biso   1.000  C
  H174     1.0000 0.08627  0.61532  0.59816  Biso   1.000  H
  N15      1.0000 0.15397  0.48137  0.40747  Biso   1.000  N
  C165     1.0000 0.19584  0.87134  0.98127  Biso   1.000  C
  H175     1.0000 0.27328  0.98155  0.91664  Biso   1.000  H
  H176     1.0000 0.20104  0.93019  0.87606  Biso   1.000  H
  H177     1.0000 0.22471  0.95380  0.90110  Biso   1.000  H
  C166     1.0000 0.26218  0.94300  0.00243  Biso   1.000  C
  H178     1.0000 0.30731  0.02721  0.90830  Biso   1.000  H
  N16      1.0000 0.11262  0.64075  0.45599  Biso   1.000  N
  S8       1.0000 0.13607  0.60177  0.38201  Biso   1.000  S
  H179     1.0000 0.24592  0.81602  0.97377  Biso   1.000  H
  H180     1.0000 0.12841  0.84666  0.98427  Biso   1.000  H
  C167     1.0000 0.21102  0.90510  0.04822  Biso   1.000  C
  C168     1.0000 0.17606  0.88096  0.03829  Biso   1.000  C
  H181     1.0000 0.16363  0.83185  0.01015  Biso   1.000  H
  H182     1.0000 0.32366  0.89797  0.99876  Biso   1.000  H
  H183     1.0000 0.27422  0.93679  0.04360  Biso   1.000  H
  H184     1.0000 0.27472  0.99100  0.03210  Biso   1.000  H
  H185     1.0000 0.15549  0.95241  0.05940  Biso   1.000  H
  H186     1.0000 0.21352  0.84781  0.08513  Biso   1.000  H
  H187     1.0000 0.19427  0.84743  0.08355  Biso   1.000  H
  H188     1.0000 0.11488  0.92482  0.04381  Biso   1.000  H
