data_image0
_cell_length_a       12.909
_cell_length_b       10.422
_cell_length_c       11.052
_cell_angle_alpha    108.35
_cell_angle_beta     100.07
_cell_angle_gamma    70.06

_symmetry_space_group_name_H-M    "P 1"
_symmetry_int_tables_number       1

loop_
  _symmetry_equiv_pos_as_xyz
  'x, y, z'

loop_
  _atom_site_label
  _atom_site_occupancy
  _atom_site_fract_x
  _atom_site_fract_y
  _atom_site_fract_z
  _atom_site_thermal_displace_type
  _atom_site_B_iso_or_equiv
  _atom_site_type_symbol
  C1       1.0000 0.63561  0.27340  0.57381  Biso   1.000  C
  C2       1.0000 0.72346  0.25735  0.68404  Biso   1.000  C
  C3       1.0000 0.79323  0.10471  0.67323  Biso   1.000  C
  C4       1.0000 0.66327  0.33085  0.81042  Biso   1.000  C
  C5       1.0000 0.80131  0.34137  0.68843  Biso   1.000  C
  O1       1.0000 0.72708  0.01035  0.64876  Biso   1.000  O
  C6       1.0000 0.87057  0.03474  0.56539  Biso   1.000  C
  O2       1.0000 0.74165  0.31206  0.91702  Biso   1.000  O
  C7       1.0000 0.57472  0.27249  0.82983  Biso   1.000  C
  C8       1.0000 0.80420  0.87000  0.61807  Biso   1.000  C
  C9       1.0000 0.88045  0.87650  0.53031  Biso   1.000  C
  C10      1.0000 0.68080  0.34425  0.02515  Biso   1.000  C
  C11      1.0000 0.58179  0.29249  0.97180  Biso   1.000  C
  C12      1.0000 0.74602  0.75422  0.56396  Biso   1.000  C
  C13      1.0000 0.76031  0.28170  0.13021  Biso   1.000  C
  C14      1.0000 0.68235  0.74231  0.66472  Biso   1.000  C
  C15      1.0000 0.66682  0.78082  0.45019  Biso   1.000  C
  C16      1.0000 0.83493  0.61133  0.52199  Biso   1.000  C
  C17      1.0000 0.82412  0.12222  0.07840  Biso   1.000  C
  C18      1.0000 0.69446  0.30475  0.23882  Biso   1.000  C
  C19      1.0000 0.84744  0.36099  0.17448  Biso   1.000  C
  O3       1.0000 0.75731  0.72399  0.77524  Biso   1.000  O
  C20      1.0000 0.58340  0.86622  0.71807  Biso   1.000  C
  O4       1.0000 0.75526  0.03379  0.04360  Biso   1.000  O
  C21      1.0000 0.91741  0.05619  0.16874  Biso   1.000  C
  C22      1.0000 0.69438  0.76401  0.88126  Biso   1.000  C
  C23      1.0000 0.59673  0.88691  0.85861  Biso   1.000  C
  C24      1.0000 0.82871  0.89133  0.01970  Biso   1.000  C
  C25      1.0000 0.91946  0.90000  0.12801  Biso   1.000  C
  C26      1.0000 0.76943  0.78194  0.00679  Biso   1.000  C
  C27      1.0000 0.85797  0.63486  0.00115  Biso   1.000  C
  C28      1.0000 0.69839  0.82227  0.11817  Biso   1.000  C
  C29      1.0000 0.36440  0.72660  0.42620  Biso   1.000  C
  C30      1.0000 0.27647  0.74266  0.31597  Biso   1.000  C
  C31      1.0000 0.19871  0.65863  0.31157  Biso   1.000  C
  C32      1.0000 0.20678  0.89529  0.32677  Biso   1.000  C
  C33      1.0000 0.33674  0.66915  0.18958  Biso   1.000  C
  O5       1.0000 0.27285  0.98965  0.35124  Biso   1.000  O
  C34      1.0000 0.12945  0.96527  0.43461  Biso   1.000  C
  O6       1.0000 0.25829  0.68795  0.08298  Biso   1.000  O
  C35      1.0000 0.42529  0.72751  0.17017  Biso   1.000  C
  C36      1.0000 0.19581  0.13000  0.38193  Biso   1.000  C
  C37      1.0000 0.11956  0.12350  0.46970  Biso   1.000  C
  C38      1.0000 0.31913  0.65575  0.97486  Biso   1.000  C
  C39      1.0000 0.41822  0.70751  0.02820  Biso   1.000  C
  C40      1.0000 0.25399  0.24579  0.43604  Biso   1.000  C
  C41      1.0000 0.23963  0.71830  0.86979  Biso   1.000  C
  C42      1.0000 0.31766  0.25770  0.33528  Biso   1.000  C
  C43      1.0000 0.33319  0.21918  0.54981  Biso   1.000  C
  C44      1.0000 0.16508  0.38868  0.47801  Biso   1.000  C
  C45      1.0000 0.17590  0.87778  0.92161  Biso   1.000  C
  C46      1.0000 0.30555  0.69525  0.76118  Biso   1.000  C
  C47      1.0000 0.15258  0.63901  0.82553  Biso   1.000  C
  O7       1.0000 0.24270  0.27601  0.22476  Biso   1.000  O
  C48      1.0000 0.41661  0.13378  0.28193  Biso   1.000  C
  O8       1.0000 0.24476  0.96622  0.95641  Biso   1.000  O
  C49      1.0000 0.08253  0.94381  0.83126  Biso   1.000  C
  C50      1.0000 0.30555  0.23599  0.11874  Biso   1.000  C
  C51      1.0000 0.40328  0.11310  0.14140  Biso   1.000  C
  C52      1.0000 0.17131  0.10867  0.98031  Biso   1.000  C
  C53      1.0000 0.08056  0.10000  0.87199  Biso   1.000  C
  C54      1.0000 0.23050  0.21807  0.99321  Biso   1.000  C
  C55      1.0000 0.14205  0.36514  0.99885  Biso   1.000  C
  C56      1.0000 0.30162  0.17773  0.88184  Biso   1.000  C
