data_image0
_cell_length_a       12.627
_cell_length_b       12.892
_cell_length_c       23.531
_cell_angle_alpha    85.93
_cell_angle_beta     86.37
_cell_angle_gamma    86.77

_symmetry_space_group_name_H-M    "P 1"
_symmetry_int_tables_number       1

loop_
  _symmetry_equiv_pos_as_xyz
  'x, y, z'

loop_
  _atom_site_label
  _atom_site_occupancy
  _atom_site_fract_x
  _atom_site_fract_y
  _atom_site_fract_z
  _atom_site_thermal_displace_type
  _atom_site_B_iso_or_equiv
  _atom_site_type_symbol
  C1       1.0000 0.56491  0.35106  0.48050  Biso   1.000  C
  C2       1.0000 0.59466  0.31842  0.42010  Biso   1.000  C
  C3       1.0000 0.61732  0.28034  0.52659  Biso   1.000  C
  H1       1.0000 0.48681  0.35066  0.48749  Biso   1.000  H
  H2       1.0000 0.58601  0.42319  0.48335  Biso   1.000  H
  C4       1.0000 0.53263  0.38044  0.37465  Biso   1.000  C
  H3       1.0000 0.58188  0.24364  0.41861  Biso   1.000  H
  H4       1.0000 0.67153  0.32719  0.41140  Biso   1.000  H
  C5       1.0000 0.59320  0.31200  0.58737  Biso   1.000  C
  H5       1.0000 0.69521  0.27856  0.51835  Biso   1.000  H
  H6       1.0000 0.59407  0.20876  0.52429  Biso   1.000  H
  C6       1.0000 0.55560  0.34281  0.31443  Biso   1.000  C
  H7       1.0000 0.45569  0.37627  0.38510  Biso   1.000  H
  H8       1.0000 0.54988  0.45453  0.37418  Biso   1.000  H
  C7       1.0000 0.47898  0.31230  0.60815  Biso   1.000  C
  H9       1.0000 0.61852  0.38277  0.58993  Biso   1.000  H
  H10      1.0000 0.63455  0.26404  0.61336  Biso   1.000  H
  C8       1.0000 0.53294  0.22863  0.31110  Biso   1.000  C
  C9       1.0000 0.49673  0.40927  0.26880  Biso   1.000  C
  H11      1.0000 0.63335  0.34921  0.30474  Biso   1.000  H
  H12      1.0000 0.47141  0.33491  0.64720  Biso   1.000  H
  H13      1.0000 0.43703  0.36037  0.58318  Biso   1.000  H
  H14      1.0000 0.45362  0.24197  0.60773  Biso   1.000  H
  C10      1.0000 0.44097  0.18812  0.33841  Biso   1.000  C
  C11      1.0000 0.60056  0.15886  0.28148  Biso   1.000  C
  C12      1.0000 0.39778  0.46077  0.27960  Biso   1.000  C
  C13      1.0000 0.54256  0.41900  0.21327  Biso   1.000  C
  C14      1.0000 0.41528  0.08458  0.33884  Biso   1.000  C
  H15      1.0000 0.39276  0.23450  0.35792  Biso   1.000  H
  C15      1.0000 0.57839  0.05472  0.28050  Biso   1.000  C
  O1       1.0000 0.69674  0.19156  0.25510  Biso   1.000  O
  C16      1.0000 0.34429  0.51995  0.23692  Biso   1.000  C
  H16      1.0000 0.36568  0.45550  0.31724  Biso   1.000  H
  C17      1.0000 0.49268  0.47758  0.16983  Biso   1.000  C
  O2       1.0000 0.64575  0.37725  0.20410  Biso   1.000  O
  C18      1.0000 0.31330  0.04762  0.37012  Biso   1.000  C
  C19      1.0000 0.48662  0.01795  0.30901  Biso   1.000  C
  H17      1.0000 0.62588  0.00858  0.26031  Biso   1.000  H
  C20      1.0000 0.69953  0.19857  0.19586  Biso   1.000  C
  C21      1.0000 0.23696  0.57848  0.24746  Biso   1.000  C
  C22      1.0000 0.39355  0.52484  0.18220  Biso   1.000  C
  H18      1.0000 0.52581  0.48491  0.13248  Biso   1.000  H
  C23      1.0000 0.66583  0.29714  0.16829  Biso   1.000  C
  C24      1.0000 0.22163  0.07047  0.33107  Biso   1.000  C
  C25      1.0000 0.29235  0.09181  0.42881  Biso   1.000  C
  H19      1.0000 0.32228  0.97021  0.37670  Biso   1.000  H
  O3       1.0000 0.47027  0.91087  0.30986  Biso   1.000  O
  C26      1.0000 0.73769  0.11687  0.16534  Biso   1.000  C
  C27      1.0000 0.14861  0.51251  0.23175  Biso   1.000  C
  C28      1.0000 0.21974  0.61706  0.30747  Biso   1.000  C
  H20      1.0000 0.23630  0.64165  0.22027  Biso   1.000  H
  O4       1.0000 0.34375  0.58992  0.14089  Biso   1.000  O
  C29      1.0000 0.66366  0.31149  0.11058  Biso   1.000  C
  C30      1.0000 0.15481  0.16030  0.33278  Biso   1.000  C
  C31      1.0000 0.20250  0.00010  0.29129  Biso   1.000  C
  C32      1.0000 0.38097  0.06152  0.46901  Biso   1.000  C
  H21      1.0000 0.22457  0.06632  0.44648  Biso   1.000  H
  H22      1.0000 0.28441  0.16865  0.42373  Biso   1.000  H
  C33      1.0000 0.44355  0.87792  0.25770  Biso   1.000  C
  C34      1.0000 0.73922  0.13024  0.10487  Biso   1.000  C
  H23      1.0000 0.76244  0.05312  0.18399  Biso   1.000  H
  C35      1.0000 0.11188  0.43096  0.26931  Biso   1.000  C
  C36      1.0000 0.10185  0.52682  0.17943  Biso   1.000  C
  C37      1.0000 0.11868  0.68623  0.31613  Biso   1.000  C
  H24      1.0000 0.28155  0.65656  0.31541  Biso   1.000  H
  H25      1.0000 0.21670  0.55604  0.33547  Biso   1.000  H
  C38      1.0000 0.30183  0.55108  0.09428  Biso   1.000  C
  H26      1.0000 0.63914  0.37614  0.09287  Biso   1.000  H
  C39      1.0000 0.69902  0.22674  0.07772  Biso   1.000  C
  C40      1.0000 0.07180  0.18191  0.29620  Biso   1.000  C
  H27      1.0000 0.16614  0.20900  0.35997  Biso   1.000  H
  C41      1.0000 0.12069  0.01727  0.25472  Biso   1.000  C
  O5       1.0000 0.26336  0.90585  0.29262  Biso   1.000  O
  C42      1.0000 0.35402  0.09122  0.52924  Biso   1.000  C
  H28      1.0000 0.44619  0.09577  0.45403  Biso   1.000  H
  H29      1.0000 0.39631  0.98525  0.46948  Biso   1.000  H
  C43      1.0000 0.33265  0.88324  0.24665  Biso   1.000  C
  C44      1.0000 0.51967  0.83978  0.21985  Biso   1.000  C
  N1       1.0000 0.77686  0.06149  0.06709  Biso   1.000  N
  C45      1.0000 0.03341  0.36553  0.25685  Biso   1.000  C
  H30      1.0000 0.14234  0.41969  0.30525  Biso   1.000  H
  C46      1.0000 0.02288  0.46460  0.16551  Biso   1.000  C
  O6       1.0000 0.13339  0.60712  0.13939  Biso   1.000  O
  C47      1.0000 0.11073  0.72994  0.37490  Biso   1.000  C
  H31      1.0000 0.05595  0.64517  0.31199  Biso   1.000  H
  H32      1.0000 0.11837  0.74444  0.28634  Biso   1.000  H
  C48      1.0000 0.18884  0.56817  0.09181  Biso   1.000  C
  C49      1.0000 0.36330  0.50763  0.05160  Biso   1.000  C
  N2       1.0000 0.70473  0.22829  0.02049  Biso   1.000  N
  C50      1.0000 0.05823  0.10925  0.25668  Biso   1.000  C
  C51      1.0000 0.99666  0.27872  0.29987  Biso   1.000  C
  H33      1.0000 0.10765  0.96695  0.22872  Biso   1.000  H
  H34      1.0000 0.35325  0.16825  0.52646  Biso   1.000  H
  H35      1.0000 0.41779  0.06768  0.55002  Biso   1.000  H
  C52      1.0000 0.26407  0.06604  0.56961  Biso   1.000  C
  H36      1.0000 0.41856  0.08890  0.55122  Biso   1.000  H
  H37      1.0000 0.31919  0.16196  0.52958  Biso   1.000  H
  C53      1.0000 0.27512  0.00561  0.55442  Biso   1.000  C
  C54      1.0000 0.29908  0.85963  0.19565  Biso   1.000  C
  C55      1.0000 0.48606  0.81219  0.16645  Biso   1.000  C
  H38      1.0000 0.59217  0.83201  0.22868  Biso   1.000  H
  S1       1.0000 0.75918  0.11665  0.00410  Biso   1.000  S
  C56      1.0000 0.99056  0.38367  0.20371  Biso   1.000  C
  H39      1.0000 0.99103  0.47706  0.13000  Biso   1.000  H
  H40      1.0000 0.09167  0.67325  0.40367  Biso   1.000  H
  H41      1.0000 0.18185  0.75177  0.38306  Biso   1.000  H
  C57      1.0000 0.02982  0.82327  0.38289  Biso   1.000  C
  H42      1.0000 0.12283  0.67253  0.40440  Biso   1.000  H
  H43      1.0000 0.16679  0.78005  0.37678  Biso   1.000  H
  C58      1.0000 0.00220  0.78455  0.38749  Biso   1.000  C
  C59      1.0000 0.13664  0.54663  0.04537  Biso   1.000  C
  C60      1.0000 0.30996  0.47776  0.00410  Biso   1.000  C
  H44      1.0000 0.43819  0.49762  0.05339  Biso   1.000  H
  O7       1.0000 0.97211  0.12481  0.22185  Biso   1.000  O
  C61      1.0000 0.98133  0.31540  0.36086  Biso   1.000  C
  H45      1.0000 0.92568  0.25912  0.28878  Biso   1.000  H
  H46      1.0000 0.26649  0.10302  0.60491  Biso   1.000  H
  H47      1.0000 0.19544  0.08441  0.55233  Biso   1.000  H
  C62      1.0000 0.23486  0.01611  0.61601  Biso   1.000  C
  C63      1.0000 0.28006  0.94910  0.58169  Biso   1.000  C
  H48      1.0000 0.21322  0.00888  0.53043  Biso   1.000  H
  H49      1.0000 0.27721  0.91423  0.54571  Biso   1.000  H
  H50      1.0000 0.31179  0.93614  0.55139  Biso   1.000  H
  C64      1.0000 0.37749  0.82721  0.15365  Biso   1.000  C
  H51      1.0000 0.22577  0.86457  0.18831  Biso   1.000  H
  N3       1.0000 0.54924  0.77474  0.12305  Biso   1.000  N
  O8       1.0000 0.91285  0.31988  0.18732  Biso   1.000  O
  C65      1.0000 0.04462  0.89226  0.43261  Biso   1.000  C
  H52      1.0000 0.03186  0.86833  0.34699  Biso   1.000  H
  H53      1.0000 0.95791  0.79588  0.38822  Biso   1.000  H
  C66      1.0000 0.99164  0.81456  0.44900  Biso   1.000  C
  H54      1.0000 0.99388  0.84775  0.36142  Biso   1.000  H
  H55      1.0000 0.94550  0.73759  0.38088  Biso   1.000  H
  C67      1.0000 0.19841  0.49932  0.00064  Biso   1.000  C
  H56      1.0000 0.06259  0.56253  0.04302  Biso   1.000  H
  N4       1.0000 0.35530  0.42942  0.95954  Biso   1.000  N
  C68      1.0000 0.99174  0.15195  0.16436  Biso   1.000  C
  H57      1.0000 0.05059  0.33569  0.37277  Biso   1.000  H
  C69      1.0000 0.90030  0.40673  0.36744  Biso   1.000  C
  H58      1.0000 0.95845  0.25616  0.38703  Biso   1.000  H
  H59      1.0000 0.19878  0.08586  0.61865  Biso   1.000  H
  H60      1.0000 0.29731  0.01366  0.63961  Biso   1.000  H
  C70      1.0000 0.19515  0.90723  0.62510  Biso   1.000  C
  C71      1.0000 0.15952  0.93608  0.64251  Biso   1.000  C
  H61      1.0000 0.35108  0.93274  0.59654  Biso   1.000  H
  N5       1.0000 0.35842  0.80361  0.10060  Biso   1.000  N
  S2       1.0000 0.47136  0.76351  0.07175  Biso   1.000  S
  C72      1.0000 0.95248  0.25521  0.14541  Biso   1.000  C
  C73      1.0000 0.03643  0.83354  0.49099  Biso   1.000  C
  H62      1.0000 0.11513  0.92248  0.42697  Biso   1.000  H
  H63      1.0000 0.06762  0.95285  0.43769  Biso   1.000  H
  H64      1.0000 0.99006  0.95049  0.43167  Biso   1.000  H
  C74      1.0000 0.07394  0.88915  0.46283  Biso   1.000  C
  H65      1.0000 0.96574  0.80568  0.49765  Biso   1.000  H
  H66      1.0000 0.99837  0.75063  0.47473  Biso   1.000  H
  H67      1.0000 0.91978  0.84733  0.45672  Biso   1.000  H
  N6       1.0000 0.16041  0.46638  0.95280  Biso   1.000  N
  S3       1.0000 0.26107  0.41290  0.91780  Biso   1.000  S
  C75      1.0000 0.03809  0.08550  0.12685  Biso   1.000  C
  H68      1.0000 0.91665  0.46029  0.33632  Biso   1.000  H
  H69      1.0000 0.82953  0.38186  0.36125  Biso   1.000  H
  C76      1.0000 0.89153  0.46039  0.42369  Biso   1.000  C
  H70      1.0000 0.92735  0.47164  0.34823  Biso   1.000  H
  H71      1.0000 0.83209  0.39275  0.35169  Biso   1.000  H
  C77      1.0000 0.88737  0.41399  0.43329  Biso   1.000  C
  H72      1.0000 0.20120  0.93776  0.66163  Biso   1.000  H
  H73      1.0000 0.12454  0.92558  0.61114  Biso   1.000  H
  H74      1.0000 0.20516  0.83122  0.63035  Biso   1.000  H
  H75      1.0000 0.19121  0.86598  0.63764  Biso   1.000  H
  H76      1.0000 0.14628  0.94628  0.68327  Biso   1.000  H
  H77      1.0000 0.09220  0.94455  0.62365  Biso   1.000  H
  C78      1.0000 0.95406  0.28803  0.08916  Biso   1.000  C
  H78      1.0000 0.04764  0.88102  0.52053  Biso   1.000  H
  H79      1.0000 0.09057  0.77603  0.49245  Biso   1.000  H
  H80      1.0000 0.06206  0.90653  0.50265  Biso   1.000  H
  H81      1.0000 0.14527  0.85608  0.45698  Biso   1.000  H
  C79      1.0000 0.04690  0.11984  0.06829  Biso   1.000  C
  H82      1.0000 0.06408  0.01773  0.13956  Biso   1.000  H
  C80      1.0000 0.82235  0.56085  0.42612  Biso   1.000  C
  H83      1.0000 0.96413  0.47561  0.43321  Biso   1.000  H
  H84      1.0000 0.86382  0.41017  0.45412  Biso   1.000  H
  C81      1.0000 0.82434  0.51475  0.44780  Biso   1.000  C
  H85      1.0000 0.95836  0.41266  0.44904  Biso   1.000  H
  H86      1.0000 0.84990  0.35324  0.45088  Biso   1.000  H
  C82      1.0000 0.00324  0.22026  0.04908  Biso   1.000  C
  H87      1.0000 0.92326  0.35417  0.07700  Biso   1.000  H
  N7       1.0000 0.09408  0.06582  0.02569  Biso   1.000  N
  C83      1.0000 0.82899  0.61573  0.48131  Biso   1.000  C
  H88      1.0000 0.84404  0.60903  0.39330  Biso   1.000  H
  H89      1.0000 0.74747  0.54496  0.42207  Biso   1.000  H
  H90      1.0000 0.86132  0.57540  0.42971  Biso   1.000  H
  H91      1.0000 0.75301  0.51564  0.43235  Biso   1.000  H
  C84      1.0000 0.81219  0.52324  0.51310  Biso   1.000  C
  N8       1.0000 0.01704  0.24100  0.99245  Biso   1.000  N
  S4       1.0000 0.08160  0.13986  0.96778  Biso   1.000  S
  C85      1.0000 0.78051  0.55847  0.53483  Biso   1.000  C
  H92      1.0000 0.79273  0.68560  0.47665  Biso   1.000  H
  H93      1.0000 0.90473  0.62559  0.48698  Biso   1.000  H
  C86      1.0000 0.76030  0.62592  0.53030  Biso   1.000  C
  H94      1.0000 0.80878  0.68184  0.51972  Biso   1.000  H
  H95      1.0000 0.81632  0.48943  0.54025  Biso   1.000  H
  H96      1.0000 0.88342  0.51417  0.52864  Biso   1.000  H
  H97      1.0000 0.76926  0.46595  0.53035  Biso   1.000  H
  H98      1.0000 0.78920  0.59827  0.56799  Biso   1.000  H
  H99      1.0000 0.70465  0.55093  0.53043  Biso   1.000  H
  H100     1.0000 0.74423  0.62221  0.57166  Biso   1.000  H
  H101     1.0000 0.69440  0.64031  0.51063  Biso   1.000  H
  C87      1.0000 0.43508  0.64885  0.51951  Biso   1.000  C
  C88      1.0000 0.38267  0.71956  0.47341  Biso   1.000  C
  H102     1.0000 0.51317  0.64925  0.51251  Biso   1.000  H
  H103     1.0000 0.41398  0.57671  0.51669  Biso   1.000  H
  C89      1.0000 0.40532  0.68148  0.57990  Biso   1.000  C
  C90      1.0000 0.40680  0.68783  0.41263  Biso   1.000  C
  H104     1.0000 0.30478  0.72127  0.48165  Biso   1.000  H
  H105     1.0000 0.40592  0.79114  0.47572  Biso   1.000  H
  H106     1.0000 0.41811  0.75626  0.58143  Biso   1.000  H
  H107     1.0000 0.32846  0.67272  0.58860  Biso   1.000  H
  C91      1.0000 0.46736  0.61947  0.62535  Biso   1.000  C
  C92      1.0000 0.52101  0.68760  0.39185  Biso   1.000  C
  H108     1.0000 0.38147  0.61706  0.41007  Biso   1.000  H
  H109     1.0000 0.36544  0.73587  0.38664  Biso   1.000  H
  H110     1.0000 0.54430  0.62363  0.61490  Biso   1.000  H
  H111     1.0000 0.45011  0.54537  0.62582  Biso   1.000  H
  C93      1.0000 0.44438  0.65709  0.68562  Biso   1.000  C
  H112     1.0000 0.52857  0.66499  0.35284  Biso   1.000  H
  H113     1.0000 0.56296  0.63954  0.41682  Biso   1.000  H
  H114     1.0000 0.54638  0.75786  0.39228  Biso   1.000  H
  C94      1.0000 0.46705  0.77128  0.68890  Biso   1.000  C
  C95      1.0000 0.50325  0.59063  0.73124  Biso   1.000  C
  H115     1.0000 0.36664  0.65062  0.69526  Biso   1.000  H
  C96      1.0000 0.55901  0.81178  0.66163  Biso   1.000  C
  C97      1.0000 0.39943  0.84104  0.71857  Biso   1.000  C
  C98      1.0000 0.45742  0.58090  0.78677  Biso   1.000  C
  C99      1.0000 0.60221  0.53906  0.72040  Biso   1.000  C
  H116     1.0000 0.60722  0.76540  0.64208  Biso   1.000  H
  C100     1.0000 0.58471  0.91532  0.66116  Biso   1.000  C
  O9       1.0000 0.30324  0.80834  0.74490  Biso   1.000  O
  C101     1.0000 0.42159  0.94518  0.71955  Biso   1.000  C
  O10      1.0000 0.35424  0.62266  0.79590  Biso   1.000  O
  C102     1.0000 0.50730  0.52232  0.83022  Biso   1.000  C
  H117     1.0000 0.63430  0.54440  0.68276  Biso   1.000  H
  C103     1.0000 0.65570  0.47995  0.76308  Biso   1.000  C
  C104     1.0000 0.51336  0.98195  0.69104  Biso   1.000  C
  C105     1.0000 0.68669  0.95228  0.62988  Biso   1.000  C
  C106     1.0000 0.30045  0.80133  0.80418  Biso   1.000  C
  H118     1.0000 0.37411  0.99132  0.73969  Biso   1.000  H
  C107     1.0000 0.33415  0.70276  0.83175  Biso   1.000  C
  H119     1.0000 0.47418  0.51491  0.86756  Biso   1.000  H
  C108     1.0000 0.60644  0.47506  0.81780  Biso   1.000  C
  C109     1.0000 0.76303  0.42143  0.75254  Biso   1.000  C
  O11      1.0000 0.52972  0.08904  0.69014  Biso   1.000  O
  C110     1.0000 0.70764  0.90809  0.57119  Biso   1.000  C
  C111     1.0000 0.77835  0.92944  0.66893  Biso   1.000  C
  H120     1.0000 0.67771  0.02970  0.62330  Biso   1.000  H
  C112     1.0000 0.26231  0.88296  0.83466  Biso   1.000  C
  C113     1.0000 0.33633  0.68842  0.88942  Biso   1.000  C
  O12      1.0000 0.65623  0.40990  0.85916  Biso   1.000  O
  C114     1.0000 0.78025  0.38284  0.69253  Biso   1.000  C
  C115     1.0000 0.85138  0.48739  0.76825  Biso   1.000  C
  H121     1.0000 0.76369  0.35817  0.77973  Biso   1.000  H
  C116     1.0000 0.55644  0.12199  0.74230  Biso   1.000  C
  C117     1.0000 0.61901  0.93838  0.53103  Biso   1.000  C
  H122     1.0000 0.77542  0.93358  0.55352  Biso   1.000  H
  H123     1.0000 0.71558  0.83125  0.57627  Biso   1.000  H
  C118     1.0000 0.84518  0.83960  0.66722  Biso   1.000  C
  C119     1.0000 0.79749  0.99981  0.70871  Biso   1.000  C
  C120     1.0000 0.26077  0.86966  0.89513  Biso   1.000  C
  H124     1.0000 0.23756  0.94671  0.81601  Biso   1.000  H
  H125     1.0000 0.36084  0.62376  0.90717  Biso   1.000  H
  C121     1.0000 0.30097  0.77316  0.92228  Biso   1.000  C
  C122     1.0000 0.69816  0.44875  0.90572  Biso   1.000  C
  C123     1.0000 0.88131  0.31368  0.68387  Biso   1.000  C
  H126     1.0000 0.71843  0.34335  0.68459  Biso   1.000  H
  H127     1.0000 0.78329  0.44387  0.66453  Biso   1.000  H
  C124     1.0000 0.88810  0.56894  0.73073  Biso   1.000  C
  C125     1.0000 0.89814  0.47309  0.82057  Biso   1.000  C
  C126     1.0000 0.66734  0.11666  0.75339  Biso   1.000  C
  C127     1.0000 0.48032  0.16012  0.78015  Biso   1.000  C
  C128     1.0000 0.64596  0.90868  0.47081  Biso   1.000  C
  H128     1.0000 0.55380  0.90414  0.54597  Biso   1.000  H
  H129     1.0000 0.60368  0.01458  0.53052  Biso   1.000  H
  C129     1.0000 0.92819  0.81800  0.70380  Biso   1.000  C
  H130     1.0000 0.83385  0.79083  0.64003  Biso   1.000  H
  C130     1.0000 0.87929  0.98263  0.74533  Biso   1.000  C
  O13      1.0000 0.73663  0.09406  0.70738  Biso   1.000  O
  N9       1.0000 0.22313  0.93841  0.93295  Biso   1.000  N
  N10      1.0000 0.29526  0.77161  0.97951  Biso   1.000  N
  C131     1.0000 0.81115  0.43166  0.90820  Biso   1.000  C
  C132     1.0000 0.63669  0.49227  0.94840  Biso   1.000  C
  C133     1.0000 0.88926  0.26989  0.62510  Biso   1.000  C
  H131     1.0000 0.94403  0.35473  0.68801  Biso   1.000  H
  H132     1.0000 0.88161  0.25546  0.71370  Biso   1.000  H
  H133     1.0000 0.85765  0.58022  0.69475  Biso   1.000  H
  C134     1.0000 0.96658  0.63437  0.74315  Biso   1.000  C
  O14      1.0000 0.86659  0.39278  0.86065  Biso   1.000  O
  C135     1.0000 0.97710  0.53530  0.83453  Biso   1.000  C
  C136     1.0000 0.70091  0.14028  0.80435  Biso   1.000  C
  C137     1.0000 0.51393  0.18772  0.83355  Biso   1.000  C
  H134     1.0000 0.40782  0.16790  0.77132  Biso   1.000  H
  H135     1.0000 0.64674  0.83166  0.47354  Biso   1.000  H
  H136     1.0000 0.58220  0.93222  0.44998  Biso   1.000  H
  C138     1.0000 0.73592  0.93386  0.43039  Biso   1.000  C
  H137     1.0000 0.58142  0.91100  0.44883  Biso   1.000  H
  H138     1.0000 0.68080  0.83795  0.47042  Biso   1.000  H
  C139     1.0000 0.72486  0.99429  0.44563  Biso   1.000  C
  C140     1.0000 0.94176  0.89066  0.74332  Biso   1.000  C
  C141     1.0000 0.00333  0.72118  0.70013  Biso   1.000  C
  H139     1.0000 0.89234  0.03295  0.77132  Biso   1.000  H
  S5       1.0000 0.24081  0.88317  0.99595  Biso   1.000  S
  C142     1.0000 0.86335  0.45320  0.95467  Biso   1.000  C
  C143     1.0000 0.69003  0.52215  0.99590  Biso   1.000  C
  H140     1.0000 0.56181  0.50220  0.94661  Biso   1.000  H
  H141     1.0000 0.90831  0.32666  0.59633  Biso   1.000  H
  H142     1.0000 0.81814  0.24813  0.61694  Biso   1.000  H
  C144     1.0000 0.97017  0.17664  0.61712  Biso   1.000  C
  H143     1.0000 0.87716  0.32729  0.59565  Biso   1.000  H
  H144     1.0000 0.83320  0.21985  0.62326  Biso   1.000  H
  C145     1.0000 0.99779  0.21535  0.61251  Biso   1.000  C
  C146     1.0000 0.00943  0.61616  0.79633  Biso   1.000  C
  H145     1.0000 0.00895  0.52284  0.87004  Biso   1.000  H
  C147     1.0000 0.62250  0.17270  0.84635  Biso   1.000  C
  H146     1.0000 0.77422  0.13526  0.81169  Biso   1.000  H
  N11      1.0000 0.45074  0.22517  0.87695  Biso   1.000  N
  H147     1.0000 0.73350  0.89689  0.39509  Biso   1.000  H
  H148     1.0000 0.80455  0.91549  0.44767  Biso   1.000  H
  C148     1.0000 0.76513  0.98380  0.38400  Biso   1.000  C
  C149     1.0000 0.71993  0.05080  0.41831  Biso   1.000  C
  H149     1.0000 0.78677  0.99102  0.46957  Biso   1.000  H
  H150     1.0000 0.72278  0.08567  0.45429  Biso   1.000  H
  H151     1.0000 0.68820  0.06377  0.44861  Biso   1.000  H
  O15      1.0000 0.02788  0.87509  0.77819  Biso   1.000  O
  C150     1.0000 0.01866  0.68450  0.63914  Biso   1.000  C
  H152     1.0000 0.07431  0.74071  0.71123  Biso   1.000  H
  C151     1.0000 0.80157  0.50058  0.99940  Biso   1.000  C
  H153     1.0000 0.93740  0.43737  0.95702  Biso   1.000  H
  N12      1.0000 0.64469  0.57049  0.04046  Biso   1.000  N
  C152     1.0000 0.95537  0.10765  0.56739  Biso   1.000  C
  H154     1.0000 0.96813  0.13150  0.65301  Biso   1.000  H
  H155     1.0000 0.04208  0.20394  0.61182  Biso   1.000  H
  C153     1.0000 0.00835  0.18534  0.55100  Biso   1.000  C
  H156     1.0000 0.00610  0.15215  0.63863  Biso   1.000  H
  H157     1.0000 0.05449  0.26232  0.61912  Biso   1.000  H
  O16      1.0000 0.08714  0.68002  0.81268  Biso   1.000  O
  N13      1.0000 0.64157  0.19629  0.89940  Biso   1.000  N
  S6       1.0000 0.52863  0.23632  0.92825  Biso   1.000  S
  H158     1.0000 0.80122  0.91397  0.38135  Biso   1.000  H
  H159     1.0000 0.70267  0.98624  0.36044  Biso   1.000  H
  C154     1.0000 0.80484  0.09268  0.37490  Biso   1.000  C
  C155     1.0000 0.84047  0.06383  0.35749  Biso   1.000  C
  H160     1.0000 0.64891  0.06716  0.40346  Biso   1.000  H
  C156     1.0000 0.00824  0.84795  0.83568  Biso   1.000  C
  H161     1.0000 0.94940  0.66422  0.62723  Biso   1.000  H
  C157     1.0000 0.09969  0.59310  0.63257  Biso   1.000  C
  H162     1.0000 0.04154  0.74375  0.61298  Biso   1.000  H
  N14      1.0000 0.83957  0.53353  0.04720  Biso   1.000  N
  S7       1.0000 0.73891  0.58700  0.08225  Biso   1.000  S
  C158     1.0000 0.96356  0.16636  0.50901  Biso   1.000  C
  H163     1.0000 0.88485  0.07742  0.57307  Biso   1.000  H
  H164     1.0000 0.93237  0.04705  0.56236  Biso   1.000  H
  H165     1.0000 0.00993  0.04942  0.56833  Biso   1.000  H
  C159     1.0000 0.92605  0.11075  0.53722  Biso   1.000  C
  H166     1.0000 0.03425  0.19422  0.50235  Biso   1.000  H
  H167     1.0000 0.00161  0.24927  0.52527  Biso   1.000  H
  H168     1.0000 0.08021  0.15258  0.54328  Biso   1.000  H
  C160     1.0000 0.04751  0.74469  0.85459  Biso   1.000  C
  H169     1.0000 0.79879  0.06215  0.33837  Biso   1.000  H
  H170     1.0000 0.87545  0.07433  0.38886  Biso   1.000  H
  H171     1.0000 0.79483  0.16868  0.36970  Biso   1.000  H
  H172     1.0000 0.80878  0.13392  0.36236  Biso   1.000  H
  H173     1.0000 0.85370  0.05362  0.31677  Biso   1.000  H
  H174     1.0000 0.90780  0.05528  0.37636  Biso   1.000  H
  C161     1.0000 0.96190  0.91441  0.87315  Biso   1.000  C
  H175     1.0000 0.08333  0.53961  0.66368  Biso   1.000  H
  H176     1.0000 0.17046  0.61796  0.63880  Biso   1.000  H
  C162     1.0000 0.10846  0.53952  0.57631  Biso   1.000  C
  H177     1.0000 0.07265  0.52818  0.65177  Biso   1.000  H
  H178     1.0000 0.16790  0.60716  0.64831  Biso   1.000  H
  C163     1.0000 0.11262  0.58592  0.56671  Biso   1.000  C
  H179     1.0000 0.95235  0.11889  0.47947  Biso   1.000  H
  H180     1.0000 0.90942  0.22388  0.50755  Biso   1.000  H
  H181     1.0000 0.93793  0.09330  0.49735  Biso   1.000  H
  H182     1.0000 0.85472  0.14375  0.54302  Biso   1.000  H
  C164     1.0000 0.04592  0.71187  0.91088  Biso   1.000  C
  C165     1.0000 0.95309  0.88007  0.93171  Biso   1.000  C
  H183     1.0000 0.93590  0.98217  0.86048  Biso   1.000  H
  C166     1.0000 0.17772  0.43905  0.57392  Biso   1.000  C
  H184     1.0000 0.03585  0.52429  0.56684  Biso   1.000  H
  H185     1.0000 0.13616  0.58973  0.54592  Biso   1.000  H
  C167     1.0000 0.17565  0.48516  0.55220  Biso   1.000  C
  H186     1.0000 0.04163  0.58724  0.55096  Biso   1.000  H
  H187     1.0000 0.15009  0.64667  0.54913  Biso   1.000  H
  C168     1.0000 0.99676  0.77957  0.95092  Biso   1.000  C
  H188     1.0000 0.07673  0.64574  0.92301  Biso   1.000  H
  N15      1.0000 0.90591  0.93409  0.97431  Biso   1.000  N
  C169     1.0000 0.17100  0.38418  0.51869  Biso   1.000  C
  H189     1.0000 0.15596  0.39080  0.60670  Biso   1.000  H
  H190     1.0000 0.25251  0.45494  0.57798  Biso   1.000  H
  H191     1.0000 0.13867  0.42450  0.57029  Biso   1.000  H
  H192     1.0000 0.24697  0.48426  0.56765  Biso   1.000  H
  C170     1.0000 0.18780  0.47667  0.48690  Biso   1.000  C
  N16      1.0000 0.98294  0.75890  0.00760  Biso   1.000  N
  S8       1.0000 0.91838  0.86005  0.03222  Biso   1.000  S
  C171     1.0000 0.21947  0.44143  0.46522  Biso   1.000  C
  H193     1.0000 0.20725  0.31422  0.52339  Biso   1.000  H
  H194     1.0000 0.09526  0.37423  0.51302  Biso   1.000  H
  C172     1.0000 0.23970  0.37391  0.46970  Biso   1.000  C
  H195     1.0000 0.19121  0.31806  0.48032  Biso   1.000  H
  H196     1.0000 0.18367  0.51047  0.45980  Biso   1.000  H
  H197     1.0000 0.11657  0.48574  0.47136  Biso   1.000  H
  H198     1.0000 0.23073  0.53396  0.46965  Biso   1.000  H
  H199     1.0000 0.21078  0.40163  0.43205  Biso   1.000  H
  H200     1.0000 0.29535  0.44890  0.46957  Biso   1.000  H
  H201     1.0000 0.25576  0.37769  0.42838  Biso   1.000  H
  H202     1.0000 0.30560  0.35952  0.48937  Biso   1.000  H
