data_image0
_cell_length_a       12.593
_cell_length_b       12.597
_cell_length_c       23.71
_cell_angle_alpha    86.22
_cell_angle_beta     86.18
_cell_angle_gamma    87.97

_symmetry_space_group_name_H-M    "P 1"
_symmetry_int_tables_number       1

loop_
  _symmetry_equiv_pos_as_xyz
  'x, y, z'

loop_
  _atom_site_label
  _atom_site_occupancy
  _atom_site_fract_x
  _atom_site_fract_y
  _atom_site_fract_z
  _atom_site_thermal_displace_type
  _atom_site_B_iso_or_equiv
  _atom_site_type_symbol
  C1       1.0000 0.55835  0.35425  0.47897  Biso   1.000  C
  C2       1.0000 0.59034  0.32234  0.41907  Biso   1.000  C
  C3       1.0000 0.61046  0.28288  0.52437  Biso   1.000  C
  H1       1.0000 0.48166  0.35134  0.48536  Biso   1.000  H
  H2       1.0000 0.57822  0.42717  0.48231  Biso   1.000  H
  C4       1.0000 0.53101  0.38712  0.37367  Biso   1.000  C
  H3       1.0000 0.66618  0.33135  0.41149  Biso   1.000  H
  H4       1.0000 0.57645  0.24756  0.41674  Biso   1.000  H
  C5       1.0000 0.58503  0.31427  0.58524  Biso   1.000  C
  H5       1.0000 0.58811  0.21053  0.52162  Biso   1.000  H
  H6       1.0000 0.68704  0.28319  0.51645  Biso   1.000  H
  C6       1.0000 0.55614  0.35032  0.31352  Biso   1.000  C
  H7       1.0000 0.45505  0.38251  0.38294  Biso   1.000  H
  H8       1.0000 0.54912  0.46125  0.37418  Biso   1.000  H
  C7       1.0000 0.46922  0.30711  0.60591  Biso   1.000  C
  H9       1.0000 0.60682  0.38671  0.58795  Biso   1.000  H
  H10      1.0000 0.62726  0.26862  0.61027  Biso   1.000  H
  C8       1.0000 0.53259  0.23306  0.30962  Biso   1.000  C
  C9       1.0000 0.49879  0.41740  0.26812  Biso   1.000  C
  H11      1.0000 0.63281  0.35789  0.30471  Biso   1.000  H
  H12      1.0000 0.46026  0.32778  0.64424  Biso   1.000  H
  H13      1.0000 0.42670  0.35379  0.58223  Biso   1.000  H
  H14      1.0000 0.44710  0.23524  0.60443  Biso   1.000  H
  C10      1.0000 0.43877  0.19093  0.33512  Biso   1.000  C
  C11      1.0000 0.60222  0.16247  0.28159  Biso   1.000  C
  C12      1.0000 0.54541  0.42828  0.21305  Biso   1.000  C
  C13      1.0000 0.39976  0.46859  0.27841  Biso   1.000  C
  C14      1.0000 0.41337  0.08388  0.33550  Biso   1.000  C
  H15      1.0000 0.39011  0.23709  0.35296  Biso   1.000  H
  C15      1.0000 0.57994  0.05552  0.28048  Biso   1.000  C
  O1       1.0000 0.69902  0.19798  0.25571  Biso   1.000  O
  O2       1.0000 0.64844  0.38602  0.20382  Biso   1.000  O
  C16      1.0000 0.49654  0.48753  0.17002  Biso   1.000  C
  C17      1.0000 0.34674  0.52766  0.23618  Biso   1.000  C
  H16      1.0000 0.36766  0.46311  0.31492  Biso   1.000  H
  C18      1.0000 0.30966  0.04510  0.36549  Biso   1.000  C
  C19      1.0000 0.48655  0.01697  0.30721  Biso   1.000  C
  H17      1.0000 0.62766  0.00970  0.26180  Biso   1.000  H
  C20      1.0000 0.70073  0.20295  0.19700  Biso   1.000  C
  C21      1.0000 0.66616  0.30216  0.16913  Biso   1.000  C
  C22      1.0000 0.39700  0.53368  0.18196  Biso   1.000  C
  H18      1.0000 0.53007  0.49599  0.13393  Biso   1.000  H
  C23      1.0000 0.23939  0.58597  0.24681  Biso   1.000  C
  C24      1.0000 0.21874  0.06827  0.32661  Biso   1.000  C
  C25      1.0000 0.28883  0.08923  0.42416  Biso   1.000  C
  H19      1.0000 0.31730  0.96750  0.37142  Biso   1.000  H
  O3       1.0000 0.46909  0.90712  0.30717  Biso   1.000  O
  C26      1.0000 0.73620  0.11809  0.16731  Biso   1.000  C
  C27      1.0000 0.66006  0.31320  0.11212  Biso   1.000  C
  O4       1.0000 0.34833  0.59908  0.14062  Biso   1.000  O
  C28      1.0000 0.15038  0.51695  0.23084  Biso   1.000  C
  C29      1.0000 0.22194  0.62389  0.30687  Biso   1.000  C
  H20      1.0000 0.23936  0.64969  0.22080  Biso   1.000  H
  C30      1.0000 0.15121  0.15826  0.32932  Biso   1.000  C
  C31      1.0000 0.20087  0.99695  0.28603  Biso   1.000  C
  C32      1.0000 0.37775  0.05808  0.46342  Biso   1.000  C
  H21      1.0000 0.22201  0.06278  0.44135  Biso   1.000  H
  H22      1.0000 0.28187  0.16624  0.41984  Biso   1.000  H
  C33      1.0000 0.44523  0.87647  0.25405  Biso   1.000  C
  H23      1.0000 0.76122  0.05553  0.18561  Biso   1.000  H
  C34      1.0000 0.73374  0.12869  0.10733  Biso   1.000  C
  H24      1.0000 0.63564  0.37663  0.09450  Biso   1.000  H
  C35      1.0000 0.69204  0.22479  0.08027  Biso   1.000  C
  C36      1.0000 0.30566  0.55753  0.09496  Biso   1.000  C
  C37      1.0000 0.11277  0.43337  0.26744  Biso   1.000  C
  C38      1.0000 0.10372  0.53291  0.17917  Biso   1.000  C
  C39      1.0000 0.11947  0.69038  0.31678  Biso   1.000  C
  H25      1.0000 0.28183  0.66587  0.31454  Biso   1.000  H
  H26      1.0000 0.22053  0.56222  0.33364  Biso   1.000  H
  H27      1.0000 0.16168  0.20650  0.35630  Biso   1.000  H
  C40      1.0000 0.06837  0.17920  0.29315  Biso   1.000  C
  C41      1.0000 0.11806  0.01273  0.25045  Biso   1.000  C
  O5       1.0000 0.26341  0.90328  0.28620  Biso   1.000  O
  C42      1.0000 0.35171  0.08594  0.52391  Biso   1.000  C
  H28      1.0000 0.44199  0.09364  0.44902  Biso   1.000  H
  H29      1.0000 0.39219  0.98196  0.46291  Biso   1.000  H
  C43      1.0000 0.33503  0.88456  0.24088  Biso   1.000  C
  C44      1.0000 0.52282  0.83952  0.21699  Biso   1.000  C
  N1       1.0000 0.76801  0.05621  0.07052  Biso   1.000  N
  N2       1.0000 0.69286  0.22284  0.02363  Biso   1.000  N
  C45      1.0000 0.19203  0.57506  0.09255  Biso   1.000  C
  C46      1.0000 0.36539  0.51159  0.05278  Biso   1.000  C
  C47      1.0000 0.03294  0.36640  0.25490  Biso   1.000  C
  H30      1.0000 0.14257  0.42165  0.30225  Biso   1.000  H
  C48      1.0000 0.02343  0.46898  0.16506  Biso   1.000  C
  O6       1.0000 0.13728  0.61540  0.13969  Biso   1.000  O
  C49      1.0000 0.11460  0.73845  0.37439  Biso   1.000  C
  H31      1.0000 0.05864  0.64589  0.31488  Biso   1.000  H
  H32      1.0000 0.11570  0.74707  0.28718  Biso   1.000  H
  C50      1.0000 0.05489  0.10486  0.25321  Biso   1.000  C
  C51      1.0000 0.99390  0.27732  0.29696  Biso   1.000  C
  H33      1.0000 0.10517  0.96224  0.22504  Biso   1.000  H
  H34      1.0000 0.41637  0.08657  0.54386  Biso   1.000  H
  H35      1.0000 0.31737  0.15607  0.52463  Biso   1.000  H
  H36      1.0000 0.36096  0.16223  0.52230  Biso   1.000  H
  H37      1.0000 0.41155  0.05514  0.54364  Biso   1.000  H
  C52      1.0000 0.26615  0.07106  0.56321  Biso   1.000  C
  C53      1.0000 0.27349  0.99808  0.55377  Biso   1.000  C
  C54      1.0000 0.30491  0.86644  0.18857  Biso   1.000  C
  C55      1.0000 0.49299  0.81765  0.16218  Biso   1.000  C
  H38      1.0000 0.59268  0.82894  0.22711  Biso   1.000  H
  S1       1.0000 0.74535  0.10844  0.00788  Biso   1.000  S
  C56      1.0000 0.13935  0.55162  0.04685  Biso   1.000  C
  C57      1.0000 0.31146  0.47943  0.00627  Biso   1.000  C
  H39      1.0000 0.43869  0.50164  0.05426  Biso   1.000  H
  C58      1.0000 0.99050  0.38557  0.20229  Biso   1.000  C
  H40      1.0000 0.99192  0.48206  0.13084  Biso   1.000  H
  C59      1.0000 0.01734  0.81101  0.38604  Biso   1.000  C
  H41      1.0000 0.17814  0.77875  0.37680  Biso   1.000  H
  H42      1.0000 0.11509  0.68100  0.40374  Biso   1.000  H
  O7       1.0000 0.96902  0.11946  0.21890  Biso   1.000  O
  C60      1.0000 0.97799  0.31470  0.35753  Biso   1.000  C
  H43      1.0000 0.92414  0.25720  0.28582  Biso   1.000  H
  C61      1.0000 0.24092  0.02082  0.61396  Biso   1.000  C
  H44      1.0000 0.27008  0.11716  0.59418  Biso   1.000  H
  H45      1.0000 0.19929  0.08595  0.54572  Biso   1.000  H
  C62      1.0000 0.27592  0.95309  0.58452  Biso   1.000  C
  H46      1.0000 0.30893  0.92851  0.55305  Biso   1.000  H
  H47      1.0000 0.21031  0.99642  0.53255  Biso   1.000  H
  H48      1.0000 0.26644  0.90768  0.55385  Biso   1.000  H
  C63      1.0000 0.38562  0.83642  0.14744  Biso   1.000  C
  H49      1.0000 0.23396  0.87351  0.17993  Biso   1.000  H
  N3       1.0000 0.55774  0.78260  0.11928  Biso   1.000  N
  C64      1.0000 0.19947  0.50154  0.00271  Biso   1.000  C
  H50      1.0000 0.06703  0.56769  0.04464  Biso   1.000  H
  N4       1.0000 0.35565  0.42807  0.96222  Biso   1.000  N
  O8       1.0000 0.91162  0.31980  0.18569  Biso   1.000  O
  C65      1.0000 0.03386  0.88855  0.43496  Biso   1.000  C
  H51      1.0000 0.00245  0.85318  0.35160  Biso   1.000  H
  H52      1.0000 0.03220  0.88299  0.37130  Biso   1.000  H
  H53      1.0000 0.95621  0.76777  0.39684  Biso   1.000  H
  H54      1.0000 0.95761  0.78683  0.36702  Biso   1.000  H
  C66      1.0000 0.98854  0.81018  0.45059  Biso   1.000  C
  C67      1.0000 0.98958  0.14917  0.16189  Biso   1.000  C
  H55      1.0000 0.04612  0.33577  0.36935  Biso   1.000  H
  C68      1.0000 0.89777  0.40737  0.36376  Biso   1.000  C
  H56      1.0000 0.95445  0.25527  0.38282  Biso   1.000  H
  H57      1.0000 0.19851  0.08645  0.61510  Biso   1.000  H
  H58      1.0000 0.30345  0.02806  0.63505  Biso   1.000  H
  C69      1.0000 0.17764  0.92965  0.63899  Biso   1.000  C
  H59      1.0000 0.34588  0.93737  0.59841  Biso   1.000  H
  N5       1.0000 0.37009  0.81785  0.09357  Biso   1.000  N
  S2       1.0000 0.48384  0.77730  0.06608  Biso   1.000  S
  N6       1.0000 0.16069  0.46673  0.95578  Biso   1.000  N
  S3       1.0000 0.26017  0.40984  0.92139  Biso   1.000  S
  C70      1.0000 0.95128  0.25420  0.14376  Biso   1.000  C
  C71      1.0000 0.04078  0.82902  0.49163  Biso   1.000  C
  H60      1.0000 0.09868  0.92714  0.42581  Biso   1.000  H
  H61      1.0000 0.06592  0.95282  0.44483  Biso   1.000  H
  H62      1.0000 0.97486  0.94019  0.43686  Biso   1.000  H
  C72      1.0000 0.07101  0.88733  0.46770  Biso   1.000  C
  H63      1.0000 0.98001  0.78515  0.49913  Biso   1.000  H
  H64      1.0000 0.99803  0.73959  0.46897  Biso   1.000  H
  H65      1.0000 0.91622  0.83636  0.45885  Biso   1.000  H
  C73      1.0000 0.03576  0.08163  0.12423  Biso   1.000  C
  C74      1.0000 0.88871  0.44708  0.42284  Biso   1.000  C
  H66      1.0000 0.82842  0.38505  0.35444  Biso   1.000  H
  H67      1.0000 0.91877  0.46556  0.33690  Biso   1.000  H
  H68      1.0000 0.16277  0.93751  0.67876  Biso   1.000  H
  H69      1.0000 0.11192  0.92858  0.62073  Biso   1.000  H
  H70      1.0000 0.21740  0.86436  0.63361  Biso   1.000  H
  H71      1.0000 0.18201  0.98104  0.66686  Biso   1.000  H
  H72      1.0000 0.10882  0.93584  0.62374  Biso   1.000  H
  H73      1.0000 0.18813  0.85942  0.65627  Biso   1.000  H
  C75      1.0000 0.95348  0.28844  0.08806  Biso   1.000  C
  H74      1.0000 0.04206  0.87878  0.52052  Biso   1.000  H
  H75      1.0000 0.10460  0.78511  0.49150  Biso   1.000  H
  H76      1.0000 0.05718  0.90130  0.50692  Biso   1.000  H
  H77      1.0000 0.14119  0.85606  0.46215  Biso   1.000  H
  H78      1.0000 0.05994  0.01372  0.13613  Biso   1.000  H
  C76      1.0000 0.04580  0.11814  0.06616  Biso   1.000  C
  C77      1.0000 0.81522  0.55156  0.42594  Biso   1.000  C
  H79      1.0000 0.85933  0.39197  0.44923  Biso   1.000  H
  H80      1.0000 0.95913  0.46186  0.43403  Biso   1.000  H
  H81      1.0000 0.95901  0.47306  0.42742  Biso   1.000  H
  H82      1.0000 0.88350  0.38228  0.44724  Biso   1.000  H
  C78      1.0000 0.82432  0.51526  0.44910  Biso   1.000  C
  C79      1.0000 0.00246  0.22017  0.04795  Biso   1.000  C
  H83      1.0000 0.92390  0.35446  0.07667  Biso   1.000  H
  N7       1.0000 0.09367  0.06484  0.02372  Biso   1.000  N
  C80      1.0000 0.82233  0.61006  0.47998  Biso   1.000  C
  H84      1.0000 0.74193  0.53261  0.42301  Biso   1.000  H
  H85      1.0000 0.83473  0.59968  0.39358  Biso   1.000  H
  H86      1.0000 0.84243  0.58559  0.43297  Biso   1.000  H
  H87      1.0000 0.75314  0.50266  0.43830  Biso   1.000  H
  C81      1.0000 0.81703  0.52125  0.51120  Biso   1.000  C
  N8       1.0000 0.01760  0.24286  0.99178  Biso   1.000  N
  S4       1.0000 0.08193  0.14119  0.96658  Biso   1.000  S
  C82      1.0000 0.78324  0.54834  0.53305  Biso   1.000  C
  H88      1.0000 0.78126  0.67649  0.47651  Biso   1.000  H
  H89      1.0000 0.89600  0.62752  0.48341  Biso   1.000  H
  C83      1.0000 0.76488  0.62507  0.53111  Biso   1.000  C
  H90      1.0000 0.82586  0.48419  0.53805  Biso   1.000  H
  H91      1.0000 0.77642  0.46202  0.52818  Biso   1.000  H
  H92      1.0000 0.88811  0.51375  0.52471  Biso   1.000  H
  H93      1.0000 0.78830  0.59068  0.56491  Biso   1.000  H
  H94      1.0000 0.71029  0.53073  0.53017  Biso   1.000  H
  H95      1.0000 0.69657  0.63600  0.51548  Biso   1.000  H
  H96      1.0000 0.75581  0.62084  0.57168  Biso   1.000  H
  H97      1.0000 0.80934  0.68345  0.51853  Biso   1.000  H
  C84      1.0000 0.44149  0.64589  0.52107  Biso   1.000  C
  C85      1.0000 0.38947  0.71726  0.47566  Biso   1.000  C
  H98      1.0000 0.51827  0.64881  0.51463  Biso   1.000  H
  H99      1.0000 0.42170  0.57297  0.51772  Biso   1.000  H
  C86      1.0000 0.40958  0.67780  0.58096  Biso   1.000  C
  C87      1.0000 0.41482  0.68587  0.41475  Biso   1.000  C
  H100     1.0000 0.41174  0.78954  0.47837  Biso   1.000  H
  H101     1.0000 0.31289  0.71695  0.48354  Biso   1.000  H
  H102     1.0000 0.33367  0.66879  0.58854  Biso   1.000  H
  H103     1.0000 0.42339  0.75258  0.58329  Biso   1.000  H
  C88      1.0000 0.46891  0.61302  0.62637  Biso   1.000  C
  C89      1.0000 0.53071  0.69304  0.39408  Biso   1.000  C
  H104     1.0000 0.39311  0.61336  0.41204  Biso   1.000  H
  H105     1.0000 0.37266  0.73153  0.38972  Biso   1.000  H
  H106     1.0000 0.54489  0.61755  0.61705  Biso   1.000  H
  H107     1.0000 0.45081  0.53890  0.62582  Biso   1.000  H
  C90      1.0000 0.44371  0.64983  0.68647  Biso   1.000  C
  H108     1.0000 0.53959  0.67237  0.35575  Biso   1.000  H
  H109     1.0000 0.57323  0.64635  0.41776  Biso   1.000  H
  H110     1.0000 0.55284  0.76482  0.39557  Biso   1.000  H
  C91      1.0000 0.46734  0.76708  0.69037  Biso   1.000  C
  C92      1.0000 0.50115  0.58267  0.73188  Biso   1.000  C
  H111     1.0000 0.36712  0.64226  0.69528  Biso   1.000  H
  C93      1.0000 0.56116  0.80914  0.66487  Biso   1.000  C
  C94      1.0000 0.39771  0.83768  0.71841  Biso   1.000  C
  C95      1.0000 0.45452  0.57178  0.78694  Biso   1.000  C
  C96      1.0000 0.60017  0.53155  0.72163  Biso   1.000  C
  H112     1.0000 0.60982  0.76298  0.64704  Biso   1.000  H
  C97      1.0000 0.58656  0.91626  0.66449  Biso   1.000  C
  O9       1.0000 0.30083  0.80216  0.74433  Biso   1.000  O
  C98      1.0000 0.41999  0.94462  0.71951  Biso   1.000  C
  O10      1.0000 0.35149  0.61413  0.79617  Biso   1.000  O
  C99      1.0000 0.50339  0.51261  0.83002  Biso   1.000  C
  C100     1.0000 0.65319  0.47248  0.76381  Biso   1.000  C
  H113     1.0000 0.63227  0.53704  0.68511  Biso   1.000  H
  C101     1.0000 0.51338  0.98309  0.69278  Biso   1.000  C
  C102     1.0000 0.69027  0.95504  0.63450  Biso   1.000  C
  C103     1.0000 0.29912  0.79720  0.80299  Biso   1.000  C
  H114     1.0000 0.37227  0.99044  0.73819  Biso   1.000  H
  C104     1.0000 0.33376  0.69798  0.83090  Biso   1.000  C
  H115     1.0000 0.46986  0.50415  0.86610  Biso   1.000  H
  C105     1.0000 0.60292  0.46646  0.81807  Biso   1.000  C
  C106     1.0000 0.76046  0.41418  0.75318  Biso   1.000  C
  O11      1.0000 0.53084  0.09302  0.69287  Biso   1.000  O
  C107     1.0000 0.71111  0.91084  0.57583  Biso   1.000  C
  C108     1.0000 0.78119  0.93188  0.67338  Biso   1.000  C
  H116     1.0000 0.68263  0.03264  0.62857  Biso   1.000  H
  C109     1.0000 0.26364  0.88197  0.83273  Biso   1.000  C
  C110     1.0000 0.33987  0.68694  0.88787  Biso   1.000  C
  O12      1.0000 0.65151  0.40106  0.85941  Biso   1.000  O
  C111     1.0000 0.77799  0.37626  0.69312  Biso   1.000  C
  C112     1.0000 0.84955  0.48320  0.76919  Biso   1.000  C
  H117     1.0000 0.76056  0.35045  0.77923  Biso   1.000  H
  C113     1.0000 0.55470  0.12368  0.74594  Biso   1.000  C
  C114     1.0000 0.62218  0.94207  0.53657  Biso   1.000  C
  H118     1.0000 0.77792  0.93736  0.55864  Biso   1.000  H
  H119     1.0000 0.71806  0.83390  0.58016  Biso   1.000  H
  C115     1.0000 0.84872  0.84188  0.67071  Biso   1.000  C
  C116     1.0000 0.79906  0.00319  0.71396  Biso   1.000  C
  H120     1.0000 0.23871  0.94461  0.81439  Biso   1.000  H
  C117     1.0000 0.26618  0.87145  0.89270  Biso   1.000  C
  H121     1.0000 0.36429  0.62343  0.90549  Biso   1.000  H
  C118     1.0000 0.30788  0.77535  0.91977  Biso   1.000  C
  C119     1.0000 0.69427  0.44262  0.90503  Biso   1.000  C
  C120     1.0000 0.88045  0.30976  0.68325  Biso   1.000  C
  H122     1.0000 0.71802  0.33427  0.68550  Biso   1.000  H
  H123     1.0000 0.77932  0.43792  0.66639  Biso   1.000  H
  C121     1.0000 0.89612  0.46716  0.82087  Biso   1.000  C
  C122     1.0000 0.88715  0.56678  0.73255  Biso   1.000  C
  C123     1.0000 0.66490  0.11558  0.75911  Biso   1.000  C
  C124     1.0000 0.47711  0.16062  0.78300  Biso   1.000  C
  C125     1.0000 0.64821  0.91420  0.47613  Biso   1.000  C
  H124     1.0000 0.55794  0.90650  0.55101  Biso   1.000  H
  H125     1.0000 0.60774  0.01818  0.53712  Biso   1.000  H
  H126     1.0000 0.83825  0.79364  0.64369  Biso   1.000  H
  C126     1.0000 0.93156  0.82095  0.70689  Biso   1.000  C
  C127     1.0000 0.88187  0.98741  0.74958  Biso   1.000  C
  O13      1.0000 0.73644  0.09687  0.71379  Biso   1.000  O
  N9       1.0000 0.23192  0.94393  0.92947  Biso   1.000  N
  N10      1.0000 0.30707  0.77731  0.97636  Biso   1.000  N
  C128     1.0000 0.80790  0.42501  0.90744  Biso   1.000  C
  C129     1.0000 0.63454  0.48856  0.94722  Biso   1.000  C
  C130     1.0000 0.88533  0.26169  0.62565  Biso   1.000  C
  H127     1.0000 0.94129  0.35425  0.68516  Biso   1.000  H
  H128     1.0000 0.88422  0.25307  0.71286  Biso   1.000  H
  O14      1.0000 0.86265  0.38467  0.86030  Biso   1.000  O
  C131     1.0000 0.97643  0.53116  0.83493  Biso   1.000  C
  H129     1.0000 0.85735  0.57849  0.69778  Biso   1.000  H
  C132     1.0000 0.96690  0.63374  0.74513  Biso   1.000  C
  C133     1.0000 0.69494  0.13370  0.81146  Biso   1.000  C
  C134     1.0000 0.50686  0.18249  0.83781  Biso   1.000  C
  H130     1.0000 0.40717  0.17120  0.77292  Biso   1.000  H
  H131     1.0000 0.58348  0.91357  0.45618  Biso   1.000  H
  H132     1.0000 0.68255  0.84407  0.47541  Biso   1.000  H
  H133     1.0000 0.63896  0.83791  0.47774  Biso   1.000  H
  H134     1.0000 0.58837  0.94500  0.45639  Biso   1.000  H
  C135     1.0000 0.73377  0.92908  0.43682  Biso   1.000  C
  C136     1.0000 0.72644  0.00206  0.44622  Biso   1.000  C
  C137     1.0000 0.94504  0.89528  0.74678  Biso   1.000  C
  C138     1.0000 0.00603  0.72283  0.70303  Biso   1.000  C
  H135     1.0000 0.89476  0.03790  0.77499  Biso   1.000  H
  S5       1.0000 0.25458  0.89171  0.99211  Biso   1.000  S
  C139     1.0000 0.86057  0.44852  0.95319  Biso   1.000  C
  C140     1.0000 0.68847  0.52072  0.99372  Biso   1.000  C
  H136     1.0000 0.56124  0.49851  0.94573  Biso   1.000  H
  C141     1.0000 0.98259  0.18906  0.61400  Biso   1.000  C
  H137     1.0000 0.82179  0.22140  0.62319  Biso   1.000  H
  H138     1.0000 0.88475  0.31906  0.59629  Biso   1.000  H
  C142     1.0000 0.00943  0.61458  0.79770  Biso   1.000  C
  H139     1.0000 0.00801  0.51808  0.86919  Biso   1.000  H
  C143     1.0000 0.61431  0.16373  0.85255  Biso   1.000  C
  H140     1.0000 0.76597  0.12663  0.82006  Biso   1.000  H
  N11      1.0000 0.44219  0.21755  0.88072  Biso   1.000  N
  C144     1.0000 0.75901  0.97932  0.38608  Biso   1.000  C
  H141     1.0000 0.72985  0.88299  0.40582  Biso   1.000  H
  H142     1.0000 0.80056  0.91420  0.45427  Biso   1.000  H
  C145     1.0000 0.72401  0.04705  0.41552  Biso   1.000  C
  H143     1.0000 0.69092  0.07164  0.44694  Biso   1.000  H
  H144     1.0000 0.78954  0.00373  0.46744  Biso   1.000  H
  H145     1.0000 0.73349  0.09247  0.44614  Biso   1.000  H
  O15      1.0000 0.03091  0.88069  0.78109  Biso   1.000  O
  C146     1.0000 0.02186  0.68544  0.64246  Biso   1.000  C
  H146     1.0000 0.07578  0.74286  0.71421  Biso   1.000  H
  C147     1.0000 0.80046  0.49860  0.99732  Biso   1.000  C
  H147     1.0000 0.93290  0.43246  0.95535  Biso   1.000  H
  N12      1.0000 0.64428  0.57207  0.03782  Biso   1.000  N
  C148     1.0000 0.96606  0.11159  0.56508  Biso   1.000  C
  H148     1.0000 0.99747  0.14688  0.64843  Biso   1.000  H
  H149     1.0000 0.96773  0.11715  0.62874  Biso   1.000  H
  H150     1.0000 0.04372  0.23237  0.60315  Biso   1.000  H
  H151     1.0000 0.04232  0.21331  0.63297  Biso   1.000  H
  C149     1.0000 0.01139  0.18996  0.54940  Biso   1.000  C
  O16      1.0000 0.08823  0.68034  0.81434  Biso   1.000  O
  N13      1.0000 0.62984  0.18230  0.90643  Biso   1.000  N
  S6       1.0000 0.51609  0.22277  0.93396  Biso   1.000  S
  H152     1.0000 0.80142  0.91369  0.38489  Biso   1.000  H
  H153     1.0000 0.69647  0.97208  0.36498  Biso   1.000  H
  C150     1.0000 0.82221  0.07041  0.36105  Biso   1.000  C
  H154     1.0000 0.65405  0.06270  0.40158  Biso   1.000  H
  C151     1.0000 0.01035  0.85097  0.83815  Biso   1.000  C
  H155     1.0000 0.95381  0.66437  0.63069  Biso   1.000  H
  C152     1.0000 0.10216  0.59270  0.63623  Biso   1.000  C
  H156     1.0000 0.04548  0.74487  0.61717  Biso   1.000  H
  N14      1.0000 0.83924  0.53333  0.04425  Biso   1.000  N
  S7       1.0000 0.73976  0.59030  0.07860  Biso   1.000  S
  C153     1.0000 0.95916  0.17105  0.50836  Biso   1.000  C
  H157     1.0000 0.90117  0.07293  0.57418  Biso   1.000  H
  H158     1.0000 0.93401  0.04724  0.55516  Biso   1.000  H
  H159     1.0000 0.02507  0.05995  0.56313  Biso   1.000  H
  C154     1.0000 0.92892  0.11282  0.53229  Biso   1.000  C
  H160     1.0000 0.01992  0.21500  0.50086  Biso   1.000  H
  H161     1.0000 0.00190  0.26048  0.53102  Biso   1.000  H
  H162     1.0000 0.08370  0.16378  0.54119  Biso   1.000  H
  C155     1.0000 0.04865  0.74594  0.85623  Biso   1.000  C
  H163     1.0000 0.83716  0.06263  0.32127  Biso   1.000  H
  H164     1.0000 0.88793  0.07157  0.37926  Biso   1.000  H
  H165     1.0000 0.78245  0.13578  0.36642  Biso   1.000  H
  H166     1.0000 0.81791  0.01910  0.33318  Biso   1.000  H
  H167     1.0000 0.89111  0.06430  0.37625  Biso   1.000  H
  H168     1.0000 0.81172  0.14072  0.34372  Biso   1.000  H
  C156     1.0000 0.96417  0.91852  0.87576  Biso   1.000  C
  C157     1.0000 0.11122  0.55307  0.57715  Biso   1.000  C
  H169     1.0000 0.17151  0.61509  0.64555  Biso   1.000  H
  H170     1.0000 0.08116  0.53459  0.66309  Biso   1.000  H
  H171     1.0000 0.95787  0.12129  0.47947  Biso   1.000  H
  H172     1.0000 0.89532  0.21503  0.50853  Biso   1.000  H
  H173     1.0000 0.94274  0.09884  0.49311  Biso   1.000  H
  H174     1.0000 0.85874  0.14408  0.53788  Biso   1.000  H
  C158     1.0000 0.04645  0.71171  0.91193  Biso   1.000  C
  H175     1.0000 0.93999  0.98643  0.86386  Biso   1.000  H
  C159     1.0000 0.95413  0.88201  0.93383  Biso   1.000  C
  C160     1.0000 0.18462  0.44858  0.57410  Biso   1.000  C
  H176     1.0000 0.14060  0.60818  0.55076  Biso   1.000  H
  H177     1.0000 0.04080  0.53828  0.56597  Biso   1.000  H
  H178     1.0000 0.04084  0.52708  0.57257  Biso   1.000  H
  H179     1.0000 0.11642  0.61786  0.55279  Biso   1.000  H
  C161     1.0000 0.17553  0.48488  0.55089  Biso   1.000  C
  C162     1.0000 0.99746  0.77997  0.95209  Biso   1.000  C
  H180     1.0000 0.07602  0.64568  0.92337  Biso   1.000  H
  N15      1.0000 0.90626  0.93523  0.97627  Biso   1.000  N
  C163     1.0000 0.17752  0.39008  0.52001  Biso   1.000  C
  H181     1.0000 0.25799  0.46753  0.57702  Biso   1.000  H
  H182     1.0000 0.16520  0.40046  0.60646  Biso   1.000  H
  H183     1.0000 0.15750  0.41456  0.56702  Biso   1.000  H
  H184     1.0000 0.24678  0.49749  0.56169  Biso   1.000  H
  C164     1.0000 0.18290  0.47890  0.48879  Biso   1.000  C
  N16      1.0000 0.98233  0.75728  0.00825  Biso   1.000  N
  S8       1.0000 0.91792  0.85896  0.03341  Biso   1.000  S
  C165     1.0000 0.21669  0.45172  0.46698  Biso   1.000  C
  H185     1.0000 0.21866  0.32365  0.52352  Biso   1.000  H
  H186     1.0000 0.10392  0.37262  0.51662  Biso   1.000  H
  C166     1.0000 0.23505  0.37508  0.46888  Biso   1.000  C
  H187     1.0000 0.17407  0.51595  0.46198  Biso   1.000  H
  H188     1.0000 0.22351  0.53812  0.47181  Biso   1.000  H
  H189     1.0000 0.11182  0.48639  0.47532  Biso   1.000  H
  H190     1.0000 0.21155  0.40939  0.43508  Biso   1.000  H
  H191     1.0000 0.28963  0.46941  0.46986  Biso   1.000  H
  H192     1.0000 0.30335  0.36406  0.48456  Biso   1.000  H
  H193     1.0000 0.24411  0.37930  0.42835  Biso   1.000  H
  H194     1.0000 0.19059  0.31670  0.48146  Biso   1.000  H
