data_image0
_cell_length_a       17.915
_cell_length_b       15.405
_cell_length_c       15.542
_cell_angle_alpha    103.04
_cell_angle_beta     113.35
_cell_angle_gamma    99.15

_symmetry_space_group_name_H-M    "P 1"
_symmetry_int_tables_number       1

loop_
  _symmetry_equiv_pos_as_xyz
  'x, y, z'

loop_
  _atom_site_label
  _atom_site_occupancy
  _atom_site_fract_x
  _atom_site_fract_y
  _atom_site_fract_z
  _atom_site_thermal_displace_type
  _atom_site_B_iso_or_equiv
  _atom_site_type_symbol
  C1       1.0000 0.68608  0.84979  0.66338  Biso   1.000  C
  C2       1.0000 0.76391  0.87620  0.64238  Biso   1.000  C
  C3       1.0000 0.70841  0.90710  0.76607  Biso   1.000  C
  O1       1.0000 0.61350  0.86460  0.59544  Biso   1.000  O
  H1       1.0000 0.67428  0.78337  0.65872  Biso   1.000  H
  O2       1.0000 0.74222  0.81089  0.54812  Biso   1.000  O
  C4       1.0000 0.84409  0.86784  0.72223  Biso   1.000  C
  H2       1.0000 0.77244  0.94010  0.63883  Biso   1.000  H
  C5       1.0000 0.78854  0.89229  0.84103  Biso   1.000  C
  O3       1.0000 0.64092  0.88518  0.78973  Biso   1.000  O
  H3       1.0000 0.72000  0.97330  0.77021  Biso   1.000  H
  C6       1.0000 0.75602  0.84601  0.47818  Biso   1.000  C
  C7       1.0000 0.92101  0.90978  0.71188  Biso   1.000  C
  O4       1.0000 0.85657  0.91819  0.81967  Biso   1.000  O
  H4       1.0000 0.83959  0.80163  0.71631  Biso   1.000  H
  O5       1.0000 0.76962  0.79764  0.83453  Biso   1.000  O
  H5       1.0000 0.80253  0.93100  0.90853  Biso   1.000  H
  C8       1.0000 0.67133  0.81418  0.38333  Biso   1.000  C
  O6       1.0000 0.81980  0.81633  0.45763  Biso   1.000  O
  H6       1.0000 0.77351  0.91460  0.50421  Biso   1.000  H
  H7       1.0000 0.97220  0.90809  0.76629  Biso   1.000  H
  H8       1.0000 0.91813  0.87343  0.64963  Biso   1.000  H
  O7       1.0000 0.92508  0.00258  0.71328  Biso   1.000  O
  C9       1.0000 0.78207  0.77546  0.92339  Biso   1.000  C
  C10      1.0000 0.64712  0.70932  0.33823  Biso   1.000  C
  O8       1.0000 0.61079  0.84617  0.40721  Biso   1.000  O
  H9       1.0000 0.67912  0.84289  0.33550  Biso   1.000  H
  C11      1.0000 0.79901  0.71527  0.41867  Biso   1.000  C
  C12      1.0000 0.70019  0.71548  0.90683  Biso   1.000  C
  C13      1.0000 0.84961  0.72188  0.94454  Biso   1.000  C
  H10      1.0000 0.80101  0.83304  0.97943  Biso   1.000  H
  C14      1.0000 0.72021  0.68123  0.32300  Biso   1.000  C
  O9       1.0000 0.57161  0.68381  0.24759  Biso   1.000  O
  H11      1.0000 0.63572  0.67962  0.38363  Biso   1.000  H
  C15      1.0000 0.87389  0.69240  0.40773  Biso   1.000  C
  H12      1.0000 0.78940  0.68779  0.46643  Biso   1.000  H
  C16      1.0000 0.71539  0.68400  0.99799  Biso   1.000  C
  O10      1.0000 0.63528  0.76488  0.89389  Biso   1.000  O
  H13      1.0000 0.67992  0.66047  0.84769  Biso   1.000  H
  O11      1.0000 0.85738  0.68960  0.02771  Biso   1.000  O
  C17      1.0000 0.93688  0.78138  0.96982  Biso   1.000  C
  H14      1.0000 0.83181  0.66761  0.88547  Biso   1.000  H
  O12      1.0000 0.69607  0.58192  0.28419  Biso   1.000  O
  H15      1.0000 0.72990  0.70799  0.27480  Biso   1.000  H
  O13      1.0000 0.88911  0.72599  0.33683  Biso   1.000  O
  H16      1.0000 0.92431  0.71947  0.47168  Biso   1.000  H
  H17      1.0000 0.86412  0.62501  0.38791  Biso   1.000  H
  C18      1.0000 0.78320  0.63309  0.01529  Biso   1.000  C
  O14      1.0000 0.64038  0.62709  0.98949  Biso   1.000  O
  H18      1.0000 0.73630  0.73998  0.05617  Biso   1.000  H
  H19      1.0000 0.97810  0.74527  0.98409  Biso   1.000  H
  H20      1.0000 0.93471  0.80170  0.91371  Biso   1.000  H
  O15      1.0000 0.96050  0.85683  0.05070  Biso   1.000  O
  C19      1.0000 0.69207  0.54188  0.18978  Biso   1.000  C
  O16      1.0000 0.75372  0.55182  0.93101  Biso   1.000  O
  H21      1.0000 0.79392  0.61453  0.07510  Biso   1.000  H
  C20      1.0000 0.60948  0.47218  0.12420  Biso   1.000  C
  O17      1.0000 0.75848  0.49778  0.19932  Biso   1.000  O
  H22      1.0000 0.69858  0.59130  0.15999  Biso   1.000  H
  C21      1.0000 0.74999  0.46457  0.94838  Biso   1.000  C
  C22      1.0000 0.59739  0.39650  0.16997  Biso   1.000  C
  O18      1.0000 0.54029  0.51592  0.11127  Biso   1.000  O
  H23      1.0000 0.60741  0.44428  0.05900  Biso   1.000  H
  C23      1.0000 0.75522  0.42398  0.24190  Biso   1.000  C
  C24      1.0000 0.66040  0.40218  0.87578  Biso   1.000  C
  C25      1.0000 0.81681  0.42496  0.92827  Biso   1.000  C
  H24      1.0000 0.76000  0.47209  0.01736  Biso   1.000  H
  C26      1.0000 0.67111  0.35249  0.18660  Biso   1.000  C
  O19      1.0000 0.52011  0.32508  0.10609  Biso   1.000  O
  H25      1.0000 0.59757  0.42400  0.23406  Biso   1.000  H
  C27      1.0000 0.82767  0.38318  0.24027  Biso   1.000  C
  H26      1.0000 0.76599  0.45063  0.31132  Biso   1.000  H
  C28      1.0000 0.65941  0.30526  0.88547  Biso   1.000  C
  O20      1.0000 0.59830  0.43228  0.89863  Biso   1.000  O
  H27      1.0000 0.64878  0.40037  0.80747  Biso   1.000  H
  O21      1.0000 0.80619  0.32969  0.92894  Biso   1.000  O
  H28      1.0000 0.81213  0.42761  0.86343  Biso   1.000  H
  C29      1.0000 0.90630  0.47522  0.00782  Biso   1.000  C
  O22      1.0000 0.66579  0.29121  0.24338  Biso   1.000  O
  H29      1.0000 0.66533  0.31613  0.12191  Biso   1.000  H
  O23      1.0000 0.81331  0.34022  0.14091  Biso   1.000  O
  H30      1.0000 0.88100  0.43269  0.27502  Biso   1.000  H
  H31      1.0000 0.83271  0.33720  0.27517  Biso   1.000  H
  C30      1.0000 0.72622  0.27113  0.86299  Biso   1.000  C
  O24      1.0000 0.57644  0.24183  0.81841  Biso   1.000  O
  H32      1.0000 0.67101  0.30820  0.95407  Biso   1.000  H
  H33      1.0000 0.94628  0.44847  0.98978  Biso   1.000  H
  O25      1.0000 0.91697  0.46777  0.10238  Biso   1.000  O
  H34      1.0000 0.91891  0.54074  0.01211  Biso   1.000  H
  C31      1.0000 0.66491  0.19832  0.20649  Biso   1.000  C
  O26      1.0000 0.70658  0.26340  0.76252  Biso   1.000  O
  H35      1.0000 0.72382  0.20861  0.87031  Biso   1.000  H
  C32      1.0000 0.58528  0.13481  0.19547  Biso   1.000  C
  O27      1.0000 0.73767  0.18000  0.27036  Biso   1.000  O
  H36      1.0000 0.66380  0.18770  0.14076  Biso   1.000  H
  C33      1.0000 0.69571  0.17630  0.69768  Biso   1.000  C
  C34      1.0000 0.58722  0.14679  0.29520  Biso   1.000  C
  O28      1.0000 0.51058  0.14858  0.12583  Biso   1.000  O
  H37      1.0000 0.58561  0.07011  0.16908  Biso   1.000  H
  C35      1.0000 0.74591  0.18682  0.36758  Biso   1.000  C
  C36      1.0000 0.61062  0.14968  0.60771  Biso   1.000  C
  C37      1.0000 0.76958  0.18382  0.66781  Biso   1.000  C
  H38      1.0000 0.69678  0.12908  0.73176  Biso   1.000  H
  O29      1.0000 0.51171  0.08120  0.28123  Biso   1.000  O
  C38      1.0000 0.66567  0.12746  0.36366  Biso   1.000  C
  H39      1.0000 0.58682  0.21092  0.32389  Biso   1.000  H
  C39      1.0000 0.82331  0.15681  0.41941  Biso   1.000  C
  H40      1.0000 0.75527  0.25248  0.40359  Biso   1.000  H
  C40      1.0000 0.60341  0.06282  0.53200  Biso   1.000  C
  O30      1.0000 0.54441  0.13197  0.63358  Biso   1.000  O
  H41      1.0000 0.60652  0.20079  0.57873  Biso   1.000  H
  O31      1.0000 0.75419  0.10202  0.59033  Biso   1.000  O
  C41      1.0000 0.85370  0.19791  0.75328  Biso   1.000  C
  H42      1.0000 0.77309  0.23748  0.64320  Biso   1.000  H
  O32      1.0000 0.66977  0.14877  0.45918  Biso   1.000  O
  H43      1.0000 0.66189  0.06100  0.33949  Biso   1.000  H
  O33      1.0000 0.81180  0.06121  0.36729  Biso   1.000  O
  H44      1.0000 0.87300  0.19668  0.42192  Biso   1.000  H
  H45      1.0000 0.83301  0.16301  0.48750  Biso   1.000  H
  C42      1.0000 0.67570  0.07848  0.50583  Biso   1.000  C
  O34      1.0000 0.52489  0.03799  0.44469  Biso   1.000  O
  H46      1.0000 0.60527  0.01136  0.56047  Biso   1.000  H
  O35      1.0000 0.85581  0.12439  0.79483  Biso   1.000  O
  H47      1.0000 0.89772  0.20362  0.73080  Biso   1.000  H
  H48      1.0000 0.86692  0.25622  0.80473  Biso   1.000  H
  H49      1.0000 0.67021  0.02020  0.45800  Biso   1.000  H
  C43      1.0000 0.34852  0.64430  0.21240  Biso   1.000  C
  C44      1.0000 0.31961  0.60453  0.10372  Biso   1.000  C
  C45      1.0000 0.27649  0.68118  0.22623  Biso   1.000  C
  O36      1.0000 0.42308  0.72103  0.25750  Biso   1.000  O
  H50      1.0000 0.35926  0.59577  0.24427  Biso   1.000  H
  C46      1.0000 0.23629  0.52929  0.05478  Biso   1.000  C
  O37      1.0000 0.38139  0.56821  0.08339  Biso   1.000  O
  H51      1.0000 0.31069  0.65492  0.07430  Biso   1.000  H
  C47      1.0000 0.19630  0.60091  0.17721  Biso   1.000  C
  O38      1.0000 0.30200  0.71712  0.32980  Biso   1.000  O
  H52      1.0000 0.26668  0.73077  0.19569  Biso   1.000  H
  O39      1.0000 0.24901  0.45387  0.08997  Biso   1.000  O
  O40      1.0000 0.17357  0.56328  0.07349  Biso   1.000  O
  H53      1.0000 0.21734  0.50830  0.98255  Biso   1.000  H
  C48      1.0000 0.12311  0.63161  0.18268  Biso   1.000  C
  H54      1.0000 0.20600  0.55213  0.20893  Biso   1.000  H
  C49      1.0000 0.30037  0.81002  0.36588  Biso   1.000  C
  C50      1.0000 0.22941  0.36593  0.01922  Biso   1.000  C
  O41      1.0000 0.10851  0.70569  0.14387  Biso   1.000  O
  H55      1.0000 0.07209  0.57890  0.14601  Biso   1.000  H
  H56      1.0000 0.13339  0.65117  0.25188  Biso   1.000  H
  C51      1.0000 0.38327  0.86020  0.45438  Biso   1.000  C
  O42      1.0000 0.23338  0.81469  0.39161  Biso   1.000  O
  H57      1.0000 0.29411  0.83988  0.31420  Biso   1.000  H
  C52      1.0000 0.30331  0.32452  0.05582  Biso   1.000  C
  C53      1.0000 0.14529  0.30534  0.00503  Biso   1.000  C
  H58      1.0000 0.22168  0.37496  0.95549  Biso   1.000  H
  C54      1.0000 0.39581  0.81671  0.53592  Biso   1.000  C
  O43      1.0000 0.45280  0.86187  0.42850  Biso   1.000  O
  H59      1.0000 0.38282  0.92500  0.47959  Biso   1.000  H
  C55      1.0000 0.23766  0.77419  0.46887  Biso   1.000  C
  C56      1.0000 0.28048  0.22640  0.99061  Biso   1.000  C
  O44      1.0000 0.37570  0.37873  0.05811  Biso   1.000  O
  H60      1.0000 0.31601  0.32389  0.12369  Biso   1.000  H
  O45      1.0000 0.13211  0.20787  0.94862  Biso   1.000  O
  H61      1.0000 0.14948  0.30729  0.07097  Biso   1.000  H
  C57      1.0000 0.06881  0.33280  0.95039  Biso   1.000  C
  C58      1.0000 0.32222  0.81530  0.55980  Biso   1.000  C
  O46      1.0000 0.47201  0.86608  0.62523  Biso   1.000  O
  H62      1.0000 0.39738  0.75209  0.51197  Biso   1.000  H
  C59      1.0000 0.16282  0.79133  0.48772  Biso   1.000  C
  H63      1.0000 0.22863  0.70662  0.44299  Biso   1.000  H
  C60      1.0000 0.19992  0.17151  0.98691  Biso   1.000  C
  O47      1.0000 0.34712  0.18410  0.01893  Biso   1.000  O
  H64      1.0000 0.26701  0.22839  0.92289  Biso   1.000  H
  O48      1.0000 0.06542  0.34131  0.86005  Biso   1.000  O
  H65      1.0000 0.01811  0.28611  0.93694  Biso   1.000  H
  H66      1.0000 0.06990  0.39207  0.99120  Biso   1.000  H
  O49      1.0000 0.32939  0.75897  0.62479  Biso   1.000  O
  H67      1.0000 0.32603  0.87931  0.59492  Biso   1.000  H
  O50      1.0000 0.17442  0.88928  0.52860  Biso   1.000  O
  H68      1.0000 0.11059  0.76552  0.42532  Biso   1.000  H
  H69      1.0000 0.15711  0.75948  0.53363  Biso   1.000  H
  O51      1.0000 0.22058  0.17201  0.08561  Biso   1.000  O
  H70      1.0000 0.18488  0.10667  0.94463  Biso   1.000  H
  C61      1.0000 0.32610  0.79668  0.71469  Biso   1.000  C
  C62      1.0000 0.20568  0.08601  0.10587  Biso   1.000  C
  C63      1.0000 0.40357  0.78859  0.79808  Biso   1.000  C
  O52      1.0000 0.25248  0.74769  0.71358  Biso   1.000  O
  H71      1.0000 0.32723  0.86278  0.72511  Biso   1.000  H
  C64      1.0000 0.28800  0.08587  0.18638  Biso   1.000  C
  C65      1.0000 0.13638  0.07889  0.13751  Biso   1.000  C
  H72      1.0000 0.18879  0.03338  0.04569  Biso   1.000  H
  C66      1.0000 0.40081  0.68662  0.78692  Biso   1.000  C
  O53      1.0000 0.48178  0.83756  0.80377  Biso   1.000  O
  H73      1.0000 0.40220  0.81652  0.86122  Biso   1.000  H
  C67      1.0000 0.24448  0.65068  0.70160  Biso   1.000  C
  C68      1.0000 0.27280  0.99996  0.22016  Biso   1.000  C
  O54      1.0000 0.35029  0.08342  0.15067  Biso   1.000  O
  H74      1.0000 0.30840  0.14298  0.24331  Biso   1.000  H
  C69      1.0000 0.04899  0.06590  0.05508  Biso   1.000  C
  O55      1.0000 0.12739  0.00139  0.17189  Biso   1.000  O
  H75      1.0000 0.15048  0.13618  0.19192  Biso   1.000  H
  C70      1.0000 0.32098  0.63888  0.78381  Biso   1.000  C
  O56      1.0000 0.47220  0.67921  0.86861  Biso   1.000  O
  H76      1.0000 0.40248  0.65753  0.72430  Biso   1.000  H
  C71      1.0000 0.16130  0.61230  0.70012  Biso   1.000  C
  H77      1.0000 0.24218  0.62000  0.63699  Biso   1.000  H
  C72      1.0000 0.20100  0.00093  0.25092  Biso   1.000  C
  O57      1.0000 0.34800  0.99541  0.29557  Biso   1.000  O
  H78      1.0000 0.25322  0.94388  0.16250  Biso   1.000  H
  H79      1.0000 0.00841  0.06163  0.08258  Biso   1.000  H
  H80      1.0000 0.05018  0.12198  0.03526  Biso   1.000  H
  O58      1.0000 0.98181  0.04198  0.06920  Biso   1.000  O
  O59      1.0000 0.02352  0.00299  0.98492  Biso   1.000  O
  O60      1.0000 0.31473  0.54032  0.76311  Biso   1.000  O
  H81      1.0000 0.32097  0.66406  0.84828  Biso   1.000  H
  O61      1.0000 0.16227  0.65881  0.78559  Biso   1.000  O
  H82      1.0000 0.11489  0.61951  0.64393  Biso   1.000  H
  H83      1.0000 0.15218  0.54607  0.69280  Biso   1.000  H
  O62      1.0000 0.09803  0.60799  0.61702  Biso   1.000  O
  O63      1.0000 0.22939  0.08049  0.33431  Biso   1.000  O
  H84      1.0000 0.18913  0.94478  0.26940  Biso   1.000  H
  C73      1.0000 0.30393  0.49783  0.83172  Biso   1.000  C
  C74      1.0000 0.22997  0.06691  0.42288  Biso   1.000  C
  C75      1.0000 0.37641  0.45052  0.86440  Biso   1.000  C
  O64      1.0000 0.22471  0.43173  0.78832  Biso   1.000  O
  H85      1.0000 0.30950  0.54590  0.88983  Biso   1.000  H
  C76      1.0000 0.31607  0.12008  0.50798  Biso   1.000  C
  C77      1.0000 0.16161  0.10437  0.44440  Biso   1.000  C
  H86      1.0000 0.21952  0.00003  0.41601  Biso   1.000  H
  C78      1.0000 0.36709  0.37831  0.77413  Biso   1.000  C
  O65      1.0000 0.45652  0.51479  0.91711  Biso   1.000  O
  H87      1.0000 0.36813  0.41753  0.90912  Biso   1.000  H
  C79      1.0000 0.21011  0.35601  0.70212  Biso   1.000  C
  C80      1.0000 0.31741  0.11092  0.60253  Biso   1.000  C
  O66      1.0000 0.37880  0.08068  0.48986  Biso   1.000  O
  H88      1.0000 0.32821  0.18626  0.51226  Biso   1.000  H
  C81      1.0000 0.07290  0.04420  0.37594  Biso   1.000  C
  O67      1.0000 0.17141  0.10451  0.54169  Biso   1.000  O
  H89      1.0000 0.16641  0.16816  0.44048  Biso   1.000  H
  C82      1.0000 0.27999  0.30929  0.72489  Biso   1.000  C
  O68      1.0000 0.43069  0.32889  0.80148  Biso   1.000  O
  H90      1.0000 0.37349  0.40922  0.72703  Biso   1.000  H
  C83      1.0000 0.12430  0.29248  0.67018  Biso   1.000  C
  H91      1.0000 0.20748  0.38197  0.64859  Biso   1.000  H
  C84      1.0000 0.24926  0.15107  0.62116  Biso   1.000  C
  O69      1.0000 0.39737  0.15267  0.68571  Biso   1.000  O
  H92      1.0000 0.30232  0.04392  0.59440  Biso   1.000  H
  H93      1.0000 0.03288  0.07418  0.38998  Biso   1.000  H
  H94      1.0000 0.06170  0.03852  0.30762  Biso   1.000  H
  O70      1.0000 0.05851  0.95189  0.38540  Biso   1.000  O
  O71      1.0000 0.27013  0.24741  0.63462  Biso   1.000  O
  H95      1.0000 0.27640  0.27330  0.76902  Biso   1.000  H
  O72      1.0000 0.12528  0.24529  0.74130  Biso   1.000  O
  H96      1.0000 0.08309  0.32867  0.66257  Biso   1.000  H
  H97      1.0000 0.10641  0.24642  0.60579  Biso   1.000  H
  H98      1.0000 0.24860  0.14157  0.68179  Biso   1.000  H
