data_image0
_cell_length_a       17.896
_cell_length_b       15.389
_cell_length_c       15.519
_cell_angle_alpha    103.01
_cell_angle_beta     113.43
_cell_angle_gamma    99.07

_symmetry_space_group_name_H-M    "P 1"
_symmetry_int_tables_number       1

loop_
  _symmetry_equiv_pos_as_xyz
  'x, y, z'

loop_
  _atom_site_label
  _atom_site_occupancy
  _atom_site_fract_x
  _atom_site_fract_y
  _atom_site_fract_z
  _atom_site_thermal_displace_type
  _atom_site_B_iso_or_equiv
  _atom_site_type_symbol
  C1       1.0000 0.34889  0.64418  0.21101  Biso   1.000  C
  C2       1.0000 0.31930  0.60370  0.09976  Biso   1.000  C
  H1       1.0000 0.36021  0.59580  0.24322  Biso   1.000  H
  C3       1.0000 0.27822  0.68031  0.22471  Biso   1.000  C
  O1       1.0000 0.42289  0.72100  0.25507  Biso   1.000  O
  C4       1.0000 0.23681  0.52809  0.05199  Biso   1.000  C
  H2       1.0000 0.31030  0.65378  0.06969  Biso   1.000  H
  O2       1.0000 0.38220  0.56674  0.08103  Biso   1.000  O
  C5       1.0000 0.19701  0.59991  0.17523  Biso   1.000  C
  H3       1.0000 0.26843  0.73003  0.19412  Biso   1.000  H
  O3       1.0000 0.30221  0.71588  0.32810  Biso   1.000  O
  O4       1.0000 0.25011  0.45297  0.08769  Biso   1.000  O
  O5       1.0000 0.17400  0.56220  0.07132  Biso   1.000  O
  H4       1.0000 0.21718  0.50671  0.97948  Biso   1.000  H
  C6       1.0000 0.12249  0.62966  0.18257  Biso   1.000  C
  H5       1.0000 0.20744  0.55082  0.20664  Biso   1.000  H
  C7       1.0000 0.30051  0.80931  0.36343  Biso   1.000  C
  C8       1.0000 0.22928  0.36390  0.01659  Biso   1.000  C
  H6       1.0000 0.07170  0.57666  0.14687  Biso   1.000  H
  H7       1.0000 0.13388  0.65038  0.25219  Biso   1.000  H
  O6       1.0000 0.10798  0.70420  0.14116  Biso   1.000  O
  H8       1.0000 0.29380  0.83880  0.31129  Biso   1.000  H
  C9       1.0000 0.38566  0.85981  0.45327  Biso   1.000  C
  O7       1.0000 0.23329  0.81367  0.38957  Biso   1.000  O
  C10      1.0000 0.30398  0.32388  0.05547  Biso   1.000  C
  C11      1.0000 0.14660  0.30218  0.00333  Biso   1.000  C
  H9       1.0000 0.22147  0.37197  0.95238  Biso   1.000  H
  H10      1.0000 0.38588  0.92481  0.47889  Biso   1.000  H
  C12      1.0000 0.39667  0.81542  0.53407  Biso   1.000  C
  O8       1.0000 0.45362  0.86058  0.42690  Biso   1.000  O
  C13      1.0000 0.23650  0.77318  0.46601  Biso   1.000  C
  C14      1.0000 0.28069  0.22538  0.98808  Biso   1.000  C
  H11      1.0000 0.31703  0.32350  0.12361  Biso   1.000  H
  O9       1.0000 0.37613  0.37841  0.05562  Biso   1.000  O
  O10      1.0000 0.13209  0.20663  0.94630  Biso   1.000  O
  H12      1.0000 0.15128  0.30381  0.06940  Biso   1.000  H
  C15      1.0000 0.06921  0.33121  0.94897  Biso   1.000  C
  H13      1.0000 0.39870  0.75079  0.51059  Biso   1.000  H
  C16      1.0000 0.32178  0.81460  0.55851  Biso   1.000  C
  O11      1.0000 0.47188  0.86528  0.62287  Biso   1.000  O
  H14      1.0000 0.22703  0.70543  0.44023  Biso   1.000  H
  C17      1.0000 0.16309  0.79151  0.48689  Biso   1.000  C
  C18      1.0000 0.20074  0.16898  0.98452  Biso   1.000  C
  O12      1.0000 0.34798  0.18333  0.01681  Biso   1.000  O
  H15      1.0000 0.26723  0.22807  0.92060  Biso   1.000  H
  H16      1.0000 0.01832  0.28510  0.93601  Biso   1.000  H
  O13      1.0000 0.06518  0.33941  0.85758  Biso   1.000  O
  H17      1.0000 0.07119  0.39088  0.99008  Biso   1.000  H
  H18      1.0000 0.32571  0.87870  0.59347  Biso   1.000  H
  O14      1.0000 0.32940  0.75909  0.62317  Biso   1.000  O
  H19      1.0000 0.11017  0.76520  0.42527  Biso   1.000  H
  H20      1.0000 0.15849  0.76010  0.53370  Biso   1.000  H
  O15      1.0000 0.17384  0.88869  0.52733  Biso   1.000  O
  O16      1.0000 0.22067  0.17058  0.08317  Biso   1.000  O
  H21      1.0000 0.18604  0.10421  0.94223  Biso   1.000  H
  C19      1.0000 0.32723  0.79599  0.71353  Biso   1.000  C
  C20      1.0000 0.20649  0.08348  0.10273  Biso   1.000  C
  H22      1.0000 0.32880  0.86229  0.72426  Biso   1.000  H
  C21      1.0000 0.40550  0.78784  0.79692  Biso   1.000  C
  O17      1.0000 0.25231  0.74751  0.71271  Biso   1.000  O
  C22      1.0000 0.28861  0.08367  0.18538  Biso   1.000  C
  H23      1.0000 0.18931  0.03071  0.04236  Biso   1.000  H
  C23      1.0000 0.13701  0.07871  0.13709  Biso   1.000  C
  C24      1.0000 0.40191  0.68589  0.78492  Biso   1.000  C
  H24      1.0000 0.40452  0.81553  0.86032  Biso   1.000  H
  O18      1.0000 0.48187  0.83687  0.80159  Biso   1.000  O
  C25      1.0000 0.24341  0.65030  0.69982  Biso   1.000  C
  H25      1.0000 0.30851  0.14083  0.24233  Biso   1.000  H
  O19      1.0000 0.35062  0.08208  0.14820  Biso   1.000  O
  C26      1.0000 0.27400  0.99819  0.21812  Biso   1.000  C
  H26      1.0000 0.15071  0.13621  0.19101  Biso   1.000  H
  C27      1.0000 0.04922  0.06301  0.05073  Biso   1.000  C
  O20      1.0000 0.12747  0.99887  0.16998  Biso   1.000  O
  C28      1.0000 0.31998  0.63649  0.78211  Biso   1.000  C
  H27      1.0000 0.40389  0.65669  0.72241  Biso   1.000  H
  O21      1.0000 0.47264  0.67794  0.86743  Biso   1.000  O
  H28      1.0000 0.24043  0.61954  0.63472  Biso   1.000  H
  C29      1.0000 0.16022  0.61189  0.69990  Biso   1.000  C
  C30      1.0000 0.20278  0.99925  0.24952  Biso   1.000  C
  H29      1.0000 0.25460  0.94220  0.16020  Biso   1.000  H
  O22      1.0000 0.34938  0.99409  0.29411  Biso   1.000  O
  H30      1.0000 0.00860  0.06219  0.07828  Biso   1.000  H
  H31      1.0000 0.05171  0.11801  0.02903  Biso   1.000  H
  O23      1.0000 0.98301  0.04039  0.06740  Biso   1.000  O
  O24      1.0000 0.02081  0.00032  0.98163  Biso   1.000  O
  O25      1.0000 0.31413  0.53971  0.76204  Biso   1.000  O
  H32      1.0000 0.32031  0.66163  0.84691  Biso   1.000  H
  H33      1.0000 0.53902  0.71103  0.87402  Biso   1.000  H
  H34      1.0000 0.11383  0.62117  0.64531  Biso   1.000  H
  H35      1.0000 0.15031  0.54510  0.68931  Biso   1.000  H
  O26      1.0000 0.16068  0.65530  0.78870  Biso   1.000  O
  O27      1.0000 0.09108  0.63198  0.62502  Biso   1.000  O
  O28      1.0000 0.22902  0.07901  0.33203  Biso   1.000  O
  H36      1.0000 0.19169  0.94330  0.26870  Biso   1.000  H
  C31      1.0000 0.30390  0.49699  0.82988  Biso   1.000  C
  C32      1.0000 0.23041  0.06581  0.42098  Biso   1.000  C
  C33      1.0000 0.37571  0.44926  0.86387  Biso   1.000  C
  O29      1.0000 0.22500  0.43064  0.78692  Biso   1.000  O
  H37      1.0000 0.30901  0.54502  0.88802  Biso   1.000  H
  C34      1.0000 0.31713  0.11860  0.50570  Biso   1.000  C
  C35      1.0000 0.16268  0.10300  0.44379  Biso   1.000  C
  H38      1.0000 0.22008  0.99888  0.41409  Biso   1.000  H
  C36      1.0000 0.36778  0.37749  0.77218  Biso   1.000  C
  H39      1.0000 0.36717  0.41612  0.90839  Biso   1.000  H
  O30      1.0000 0.45688  0.51302  0.91557  Biso   1.000  O
  C37      1.0000 0.20949  0.35648  0.70027  Biso   1.000  C
  C38      1.0000 0.31709  0.10979  0.60191  Biso   1.000  C
  H40      1.0000 0.32949  0.18480  0.50970  Biso   1.000  H
  O31      1.0000 0.37850  0.07861  0.48697  Biso   1.000  O
  H41      1.0000 0.16760  0.16689  0.44023  Biso   1.000  H
  O32      1.0000 0.16960  0.10292  0.53859  Biso   1.000  O
  C39      1.0000 0.07268  0.04216  0.37246  Biso   1.000  C
  C40      1.0000 0.07499  0.08699  0.34402  Biso   1.000  C
  C41      1.0000 0.28030  0.30769  0.72338  Biso   1.000  C
  H42      1.0000 0.37404  0.40872  0.72523  Biso   1.000  H
  O33      1.0000 0.43112  0.32829  0.79988  Biso   1.000  O
  H43      1.0000 0.45499  0.53702  0.88898  Biso   1.000  H
  H44      1.0000 0.20658  0.38259  0.64672  Biso   1.000  H
  C42      1.0000 0.12409  0.29092  0.66879  Biso   1.000  C
  C43      1.0000 0.24970  0.14967  0.61961  Biso   1.000  C
  H45      1.0000 0.30248  0.04292  0.59458  Biso   1.000  H
  O34      1.0000 0.39857  0.15257  0.68397  Biso   1.000  O
  H46      1.0000 0.03209  0.07271  0.38468  Biso   1.000  H
  H47      1.0000 0.04541  0.02049  0.31292  Biso   1.000  H
  H48      1.0000 0.06289  0.03570  0.30433  Biso   1.000  H
  O35      1.0000 0.05789  0.95075  0.38350  Biso   1.000  O
  H49      1.0000 0.08878  0.10903  0.29581  Biso   1.000  H
  O36      1.0000 0.02100  0.13599  0.36802  Biso   1.000  O
  O37      1.0000 0.27059  0.24620  0.63220  Biso   1.000  O
  H50      1.0000 0.27667  0.27171  0.76767  Biso   1.000  H
  H51      1.0000 0.08198  0.32613  0.66020  Biso   1.000  H
  H52      1.0000 0.10691  0.24469  0.60458  Biso   1.000  H
  O38      1.0000 0.12503  0.24404  0.73923  Biso   1.000  O
  H53      1.0000 0.24908  0.14068  0.68049  Biso   1.000  H
  Ne1      1.0000 0.25205  0.41163  0.40174  Biso   1.000  Ne
  He1      1.0000 0.29367  0.42940  0.43553  Biso   1.000  He
  He2      1.0000 0.17650  0.40989  0.38434  Biso   1.000  He
  Ar1      1.0000 0.29053  0.42661  0.43458  Biso   1.000  Ar
