data_image0
_cell_length_a       17.78
_cell_length_b       15.31
_cell_length_c       15.35
_cell_angle_alpha    102.76
_cell_angle_beta     113.31
_cell_angle_gamma    99.24

_symmetry_space_group_name_H-M    "P 1"
_symmetry_int_tables_number       1

loop_
  _symmetry_equiv_pos_as_xyz
  'x, y, z'

loop_
  _atom_site_label
  _atom_site_occupancy
  _atom_site_fract_x
  _atom_site_fract_y
  _atom_site_fract_z
  _atom_site_thermal_displace_type
  _atom_site_B_iso_or_equiv
  _atom_site_type_symbol
  C1       1.0000 0.36813  0.37778  0.77092  Biso   1.000  C
  C2       1.0000 0.28068  0.30809  0.72162  Biso   1.000  C
  C3       1.0000 0.37607  0.44842  0.86237  Biso   1.000  C
  O1       1.0000 0.43050  0.32817  0.79789  Biso   1.000  O
  H1       1.0000 0.37483  0.40998  0.72333  Biso   1.000  H
  O2       1.0000 0.27112  0.24681  0.63002  Biso   1.000  O
  C4       1.0000 0.20942  0.35642  0.69793  Biso   1.000  C
  H2       1.0000 0.27689  0.27123  0.76659  Biso   1.000  H
  C5       1.0000 0.30481  0.49609  0.82942  Biso   1.000  C
  O3       1.0000 0.45738  0.51358  0.91563  Biso   1.000  O
  H3       1.0000 0.36730  0.41407  0.90757  Biso   1.000  H
  C6       1.0000 0.24841  0.14987  0.61628  Biso   1.000  C
  C7       1.0000 0.12348  0.28960  0.66521  Biso   1.000  C
  O4       1.0000 0.22495  0.42967  0.78519  Biso   1.000  O
  H4       1.0000 0.20683  0.38360  0.64362  Biso   1.000  H
  O5       1.0000 0.31499  0.53981  0.76151  Biso   1.000  O
  H5       1.0000 0.31010  0.54422  0.88896  Biso   1.000  H
  H6       1.0000 0.46001  0.52997  0.88097  Biso   1.000  H
  C8       1.0000 0.31623  0.10968  0.59991  Biso   1.000  C
  O6       1.0000 0.16873  0.10369  0.53492  Biso   1.000  O
  H7       1.0000 0.24689  0.14058  0.67813  Biso   1.000  H
  O7       1.0000 0.12524  0.24358  0.73723  Biso   1.000  O
  H8       1.0000 0.08010  0.32448  0.65550  Biso   1.000  H
  H9       1.0000 0.10701  0.24247  0.60051  Biso   1.000  H
  C9       1.0000 0.32072  0.63721  0.78183  Biso   1.000  C
  C10      1.0000 0.31752  0.11877  0.50369  Biso   1.000  C
  O8       1.0000 0.39772  0.15262  0.68262  Biso   1.000  O
  H10      1.0000 0.30099  0.04178  0.59267  Biso   1.000  H
  C11      1.0000 0.16331  0.10541  0.44063  Biso   1.000  C
  C12      1.0000 0.40228  0.68690  0.78497  Biso   1.000  C
  C13      1.0000 0.24361  0.64977  0.69838  Biso   1.000  C
  H11      1.0000 0.32051  0.66241  0.84757  Biso   1.000  H
  C14      1.0000 0.23020  0.06570  0.41889  Biso   1.000  C
  O9       1.0000 0.37807  0.07848  0.48471  Biso   1.000  O
  H12      1.0000 0.33021  0.18591  0.50742  Biso   1.000  H
  C15      1.0000 0.07309  0.04231  0.37018  Biso   1.000  C
  H13      1.0000 0.16842  0.17010  0.43600  Biso   1.000  H
  C16      1.0000 0.07659  0.08707  0.34157  Biso   1.000  C
  C17      1.0000 0.40607  0.78831  0.79797  Biso   1.000  C
  O10      1.0000 0.47263  0.67868  0.86812  Biso   1.000  O
  H14      1.0000 0.40491  0.65796  0.72139  Biso   1.000  H
  O11      1.0000 0.25222  0.74717  0.71280  Biso   1.000  O
  C18      1.0000 0.15962  0.60950  0.69801  Biso   1.000  C
  H15      1.0000 0.24128  0.61977  0.63226  Biso   1.000  H
  O12      1.0000 0.22903  0.07797  0.32902  Biso   1.000  O
  H16      1.0000 0.21865  0.99799  0.41299  Biso   1.000  H
  H17      1.0000 0.03174  0.07334  0.38214  Biso   1.000  H
  H18      1.0000 0.06292  0.03499  0.30041  Biso   1.000  H
  H19      1.0000 0.04571  0.01999  0.31520  Biso   1.000  H
  O13      1.0000 0.05728  0.95155  0.38139  Biso   1.000  O
  O14      1.0000 0.02450  0.13860  0.36002  Biso   1.000  O
  H20      1.0000 0.09078  0.10351  0.28987  Biso   1.000  H
  C19      1.0000 0.32729  0.79742  0.71400  Biso   1.000  C
  O15      1.0000 0.48233  0.83848  0.80253  Biso   1.000  O
  H21      1.0000 0.40489  0.81559  0.86267  Biso   1.000  H
  H22      1.0000 0.51900  0.69199  0.86297  Biso   1.000  H
  O16      1.0000 0.16081  0.64540  0.78788  Biso   1.000  O
  H23      1.0000 0.11287  0.62333  0.64579  Biso   1.000  H
  H24      1.0000 0.14800  0.54100  0.68150  Biso   1.000  H
  O17      1.0000 0.09370  0.63601  0.62898  Biso   1.000  O
  C20      1.0000 0.20366  0.99690  0.24691  Biso   1.000  C
  O18      1.0000 0.32953  0.75988  0.62330  Biso   1.000  O
  H25      1.0000 0.32858  0.86460  0.72468  Biso   1.000  H
  C21      1.0000 0.27515  0.99599  0.21486  Biso   1.000  C
  O19      1.0000 0.12796  0.99444  0.16593  Biso   1.000  O
  H26      1.0000 0.19321  0.94064  0.26791  Biso   1.000  H
  C22      1.0000 0.32150  0.81542  0.55823  Biso   1.000  C
  C23      1.0000 0.28958  0.08122  0.18162  Biso   1.000  C
  O20      1.0000 0.35025  0.99263  0.29181  Biso   1.000  O
  H27      1.0000 0.25576  0.93900  0.15629  Biso   1.000  H
  C24      1.0000 0.13559  0.07343  0.13059  Biso   1.000  C
  C25      1.0000 0.39641  0.81656  0.53387  Biso   1.000  C
  C26      1.0000 0.23621  0.77242  0.46491  Biso   1.000  C
  H28      1.0000 0.32471  0.88020  0.59327  Biso   1.000  H
  C27      1.0000 0.20581  0.08110  0.09779  Biso   1.000  C
  O21      1.0000 0.35094  0.07942  0.14382  Biso   1.000  O
  H29      1.0000 0.31012  0.13913  0.23952  Biso   1.000  H
  C28      1.0000 0.04868  0.05576  0.04288  Biso   1.000  C
  H30      1.0000 0.14758  0.13179  0.18438  Biso   1.000  H
  C29      1.0000 0.38542  0.85979  0.45162  Biso   1.000  C
  O22      1.0000 0.47179  0.86749  0.62263  Biso   1.000  O
  H31      1.0000 0.39889  0.75122  0.51094  Biso   1.000  H
  O23      1.0000 0.23267  0.81259  0.38759  Biso   1.000  O
  C30      1.0000 0.16150  0.79010  0.48553  Biso   1.000  C
  H32      1.0000 0.22737  0.70366  0.43936  Biso   1.000  H
  O24      1.0000 0.22082  0.16738  0.07897  Biso   1.000  O
  H33      1.0000 0.18909  0.02823  0.03631  Biso   1.000  H
  H34      1.0000 0.00708  0.05481  0.07082  Biso   1.000  H
  H35      1.0000 0.05121  0.11189  0.02099  Biso   1.000  H
  O25      1.0000 0.98463  0.03860  0.06813  Biso   1.000  O
  O26      1.0000 0.02026  0.99633  0.97550  Biso   1.000  O
  C31      1.0000 0.30002  0.80789  0.36159  Biso   1.000  C
  O27      1.0000 0.45336  0.86023  0.42509  Biso   1.000  O
  H36      1.0000 0.38520  0.92588  0.47642  Biso   1.000  H
  O28      1.0000 0.17231  0.88850  0.52394  Biso   1.000  O
  H37      1.0000 0.10771  0.76238  0.42293  Biso   1.000  H
  H38      1.0000 0.15738  0.75936  0.53447  Biso   1.000  H
  C32      1.0000 0.20030  0.16640  0.97931  Biso   1.000  C
  O29      1.0000 0.30198  0.71529  0.32693  Biso   1.000  O
  H39      1.0000 0.29289  0.83741  0.30803  Biso   1.000  H
  C33      1.0000 0.28038  0.22460  0.98371  Biso   1.000  C
  O30      1.0000 0.13166  0.20483  0.94195  Biso   1.000  O
  H40      1.0000 0.18553  0.10091  0.93575  Biso   1.000  H
  C34      1.0000 0.27729  0.67812  0.22278  Biso   1.000  C
  C35      1.0000 0.30417  0.32262  0.05319  Biso   1.000  C
  O31      1.0000 0.34772  0.18208  0.01233  Biso   1.000  O
  H41      1.0000 0.26708  0.22850  0.91521  Biso   1.000  H
  C36      1.0000 0.14637  0.29869  0.99970  Biso   1.000  C
  C37      1.0000 0.34822  0.64350  0.20963  Biso   1.000  C
  C38      1.0000 0.19631  0.59703  0.17430  Biso   1.000  C
  H42      1.0000 0.26663  0.72791  0.19051  Biso   1.000  H
  C39      1.0000 0.22842  0.36170  0.01352  Biso   1.000  C
  O32      1.0000 0.37609  0.37788  0.05431  Biso   1.000  O
  H43      1.0000 0.31693  0.32079  0.12222  Biso   1.000  H
  H44      1.0000 0.15088  0.29916  0.06686  Biso   1.000  H
  C40      1.0000 0.06839  0.32828  0.94501  Biso   1.000  C
  C41      1.0000 0.31861  0.60320  0.09862  Biso   1.000  C
  O33      1.0000 0.42228  0.72108  0.25379  Biso   1.000  O
  H45      1.0000 0.36000  0.59449  0.24273  Biso   1.000  H
  O34      1.0000 0.17256  0.55978  0.06963  Biso   1.000  O
  C42      1.0000 0.12162  0.62710  0.18139  Biso   1.000  C
  H46      1.0000 0.20703  0.54729  0.20672  Biso   1.000  H
  O35      1.0000 0.24907  0.45050  0.08562  Biso   1.000  O
  H47      1.0000 0.22059  0.37078  0.94823  Biso   1.000  H
  O36      1.0000 0.06429  0.33791  0.85402  Biso   1.000  O
  H48      1.0000 0.01660  0.28118  0.93149  Biso   1.000  H
  H49      1.0000 0.07031  0.38844  0.98752  Biso   1.000  H
  C43      1.0000 0.23580  0.52641  0.05013  Biso   1.000  C
  O37      1.0000 0.38109  0.56624  0.07882  Biso   1.000  O
  H50      1.0000 0.30910  0.65397  0.06769  Biso   1.000  H
  O38      1.0000 0.10700  0.70167  0.14068  Biso   1.000  O
  H51      1.0000 0.06991  0.57337  0.14479  Biso   1.000  H
  H52      1.0000 0.13279  0.64739  0.25229  Biso   1.000  H
  H53      1.0000 0.21602  0.50531  0.97624  Biso   1.000  H
