data_image0
_cell_length_a       16.634
_cell_length_b       17.06
_cell_length_c       17.591
_cell_angle_alpha    85.81
_cell_angle_beta     69.78
_cell_angle_gamma    65.02

_symmetry_space_group_name_H-M    "P 1"
_symmetry_int_tables_number       1

loop_
  _symmetry_equiv_pos_as_xyz
  'x, y, z'

loop_
  _atom_site_label
  _atom_site_occupancy
  _atom_site_fract_x
  _atom_site_fract_y
  _atom_site_fract_z
  _atom_site_thermal_displace_type
  _atom_site_B_iso_or_equiv
  _atom_site_type_symbol
  S1       1.0000 0.68803  0.66410  0.64027  Biso   1.000  S
  C1       1.0000 0.79616  0.60456  0.65529  Biso   1.000  C
  C2       1.0000 0.62202  0.65099  0.73938  Biso   1.000  C
  C3       1.0000 0.79424  0.55076  0.72102  Biso   1.000  C
  C4       1.0000 0.88672  0.59806  0.61887  Biso   1.000  C
  C5       1.0000 0.53238  0.70849  0.77848  Biso   1.000  C
  S2       1.0000 0.68209  0.55658  0.78261  Biso   1.000  S
  C6       1.0000 0.88437  0.51049  0.72412  Biso   1.000  C
  C7       1.0000 0.92592  0.64727  0.55101  Biso   1.000  C
  N1       1.0000 0.93991  0.53984  0.66107  Biso   1.000  N
  S3       1.0000 0.47785  0.80210  0.73221  Biso   1.000  S
  S4       1.0000 0.46054  0.69733  0.87491  Biso   1.000  S
  C8       1.0000 0.92170  0.44947  0.78377  Biso   1.000  C
  C9       1.0000 0.90463  0.73480  0.58743  Biso   1.000  C
  C10      1.0000 0.87792  0.66109  0.48716  Biso   1.000  C
  C11      1.0000 0.03323  0.59690  0.50790  Biso   1.000  C
  H1       1.0000 0.00087  0.52365  0.64951  Biso   1.000  H
  C12      1.0000 0.37964  0.85288  0.82147  Biso   1.000  C
  C13      1.0000 0.37129  0.80387  0.88793  Biso   1.000  C
  C14      1.0000 0.89764  0.50267  0.86056  Biso   1.000  C
  C15      1.0000 0.87406  0.38707  0.80499  Biso   1.000  C
  C16      1.0000 0.02979  0.39430  0.74619  Biso   1.000  C
  C17      1.0000 0.83958  0.81746  0.58622  Biso   1.000  C
  N2       1.0000 0.95323  0.74151  0.63468  Biso   1.000  N
  H2       1.0000 0.90093  0.69499  0.44491  Biso   1.000  H
  H3       1.0000 0.89320  0.60463  0.46242  Biso   1.000  H
  H4       1.0000 0.80925  0.69234  0.51349  Biso   1.000  H
  H5       1.0000 0.06521  0.58643  0.54760  Biso   1.000  H
  H6       1.0000 0.04661  0.54131  0.48273  Biso   1.000  H
  H7       1.0000 0.05620  0.63101  0.46582  Biso   1.000  H
  C18      1.0000 0.31352  0.93815  0.82682  Biso   1.000  C
  C19      1.0000 0.29558  0.83916  0.96065  Biso   1.000  C
  C20      1.0000 0.82653  0.52137  0.93493  Biso   1.000  C
  N3       1.0000 0.94772  0.54926  0.86227  Biso   1.000  N
  H8       1.0000 0.80527  0.42049  0.82809  Biso   1.000  H
  H9       1.0000 0.89015  0.35216  0.75562  Biso   1.000  H
  H10      1.0000 0.89629  0.34874  0.84469  Biso   1.000  H
  H11      1.0000 0.05167  0.35523  0.78559  Biso   1.000  H
  H12      1.0000 0.04396  0.36006  0.69700  Biso   1.000  H
  H13      1.0000 0.06210  0.43265  0.73208  Biso   1.000  H
  C21      1.0000 0.84911  0.87477  0.63449  Biso   1.000  C
  S5       1.0000 0.75485  0.86646  0.53873  Biso   1.000  S
  C22      1.0000 0.92020  0.82639  0.66411  Biso   1.000  C
  H14      1.0000 0.99941  0.69736  0.64471  Biso   1.000  H
  H15      1.0000 0.32013  0.97225  0.78182  Biso   1.000  H
  C23      1.0000 0.23749  0.97277  0.89924  Biso   1.000  C
  C24      1.0000 0.22832  0.92344  0.96503  Biso   1.000  C
  H16      1.0000 0.29041  0.80597  0.00637  Biso   1.000  H
  C25      1.0000 0.83350  0.58131  0.98217  Biso   1.000  C
  S6       1.0000 0.73466  0.48900  0.98400  Biso   1.000  S
  C26      1.0000 0.90982  0.59728  0.93621  Biso   1.000  C
  H17      1.0000 0.99733  0.54845  0.82159  Biso   1.000  H
  S7       1.0000 0.77065  0.98543  0.64386  Biso   1.000  S
  C27      1.0000 0.69794  0.96348  0.60330  Biso   1.000  C
  C28      1.0000 0.96127  0.84993  0.71926  Biso   1.000  C
  H18      1.0000 0.19150  0.03085  0.90361  Biso   1.000  H
  H19      1.0000 0.17541  0.94741  0.01361  Biso   1.000  H
  S8       1.0000 0.74776  0.61649  0.08049  Biso   1.000  S
  C29      1.0000 0.67417  0.57853  0.05787  Biso   1.000  C
  C30      1.0000 0.95046  0.65682  0.95232  Biso   1.000  C
  C31      1.0000 0.60622  0.01616  0.61996  Biso   1.000  C
  C32      1.0000 0.93345  0.94800  0.72108  Biso   1.000  C
  C33      1.0000 0.92229  0.82592  0.80450  Biso   1.000  C
  C34      1.0000 0.07026  0.80320  0.68417  Biso   1.000  C
  C35      1.0000 0.57972  0.61719  0.09235  Biso   1.000  C
  C36      1.0000 0.91727  0.73935  0.91012  Biso   1.000  C
  C37      1.0000 0.91635  0.67884  0.04456  Biso   1.000  C
  C38      1.0000 0.05949  0.61006  0.92113  Biso   1.000  C
  S9       1.0000 0.53712  0.99437  0.57545  Biso   1.000  S
  S10      1.0000 0.54582  0.11267  0.68466  Biso   1.000  S
  H20      1.0000 0.96012  0.96351  0.75622  Biso   1.000  H
  H21      1.0000 0.95813  0.96352  0.66593  Biso   1.000  H
  H22      1.0000 0.86438  0.97950  0.74230  Biso   1.000  H
  C39      1.0000 0.83983  0.86987  0.86865  Biso   1.000  C
  N4       1.0000 0.96811  0.74669  0.83126  Biso   1.000  N
  H23      1.0000 0.09022  0.74031  0.68022  Biso   1.000  H
  H24      1.0000 0.09322  0.82172  0.62999  Biso   1.000  H
  H25      1.0000 0.09661  0.81794  0.72011  Biso   1.000  H
  S11      1.0000 0.50519  0.57771  0.07362  Biso   1.000  S
  S12      1.0000 0.52056  0.70961  0.16246  Biso   1.000  S
  C40      1.0000 0.83666  0.81624  0.93414  Biso   1.000  C
  H26      1.0000 0.93826  0.62534  0.07119  Biso   1.000  H
  H27      1.0000 0.94190  0.71757  0.05508  Biso   1.000  H
  H28      1.0000 0.84708  0.70778  0.06620  Biso   1.000  H
  H29      1.0000 0.08301  0.59327  0.86269  Biso   1.000  H
  H30      1.0000 0.08508  0.64914  0.93061  Biso   1.000  H
  H31      1.0000 0.07955  0.55808  0.95019  Biso   1.000  H
  C41      1.0000 0.42795  0.06864  0.64301  Biso   1.000  C
  C42      1.0000 0.43203  0.12336  0.69548  Biso   1.000  C
  S13      1.0000 0.74350  0.97089  0.88288  Biso   1.000  S
  H32      1.0000 0.02291  0.70596  0.80164  Biso   1.000  H
  C43      1.0000 0.39989  0.67032  0.12105  Biso   1.000  C
  C44      1.0000 0.40753  0.73286  0.16142  Biso   1.000  C
  S14      1.0000 0.73549  0.85718  0.02261  Biso   1.000  S
  C45      1.0000 0.34078  0.07580  0.64422  Biso   1.000  C
  C46      1.0000 0.34906  0.18385  0.75160  Biso   1.000  C
  C47      1.0000 0.67968  0.95584  0.98272  Biso   1.000  C
  C48      1.0000 0.31256  0.68087  0.12050  Biso   1.000  C
  C49      1.0000 0.32689  0.80807  0.20113  Biso   1.000  C
  C50      1.0000 0.25828  0.13739  0.69895  Biso   1.000  C
  H33      1.0000 0.33793  0.03908  0.60823  Biso   1.000  H
  H34      1.0000 0.35187  0.21964  0.78869  Biso   1.000  H
  C51      1.0000 0.26286  0.19077  0.75227  Biso   1.000  C
  C52      1.0000 0.59454  0.01735  0.02534  Biso   1.000  C
  C53      1.0000 0.23225  0.75496  0.16197  Biso   1.000  C
  H35      1.0000 0.30768  0.63847  0.09247  Biso   1.000  H
  H36      1.0000 0.33190  0.85155  0.22752  Biso   1.000  H
  C54      1.0000 0.23948  0.81786  0.20137  Biso   1.000  C
  H37      1.0000 0.19850  0.14318  0.70004  Biso   1.000  H
  H38      1.0000 0.20590  0.23246  0.78961  Biso   1.000  H
  S15      1.0000 0.54145  0.11573  0.98461  Biso   1.000  S
  S16      1.0000 0.52827  0.00772  0.12579  Biso   1.000  S
  H39      1.0000 0.17190  0.76237  0.16319  Biso   1.000  H
  H40      1.0000 0.18410  0.86814  0.22867  Biso   1.000  H
  C55      1.0000 0.43804  0.15942  0.07052  Biso   1.000  C
  C56      1.0000 0.43213  0.10954  0.13741  Biso   1.000  C
  C57      1.0000 0.36382  0.23986  0.07399  Biso   1.000  C
  C58      1.0000 0.35270  0.13972  0.20794  Biso   1.000  C
  C59      1.0000 0.28421  0.26963  0.14434  Biso   1.000  C
  H41      1.0000 0.36759  0.27395  0.02887  Biso   1.000  H
  H42      1.0000 0.34904  0.10625  0.25348  Biso   1.000  H
  C60      1.0000 0.27881  0.21956  0.21055  Biso   1.000  C
  H43      1.0000 0.23318  0.32442  0.14732  Biso   1.000  H
  H44      1.0000 0.22376  0.24047  0.25810  Biso   1.000  H
  S17      1.0000 0.31200  0.33593  0.35972  Biso   1.000  S
  C61      1.0000 0.20387  0.39547  0.34470  Biso   1.000  C
  C62      1.0000 0.37799  0.34905  0.26067  Biso   1.000  C
  C63      1.0000 0.20576  0.44928  0.27903  Biso   1.000  C
  C64      1.0000 0.11328  0.40204  0.38112  Biso   1.000  C
  S18      1.0000 0.31791  0.44351  0.21738  Biso   1.000  S
  C65      1.0000 0.46762  0.29154  0.22157  Biso   1.000  C
  C66      1.0000 0.11561  0.48961  0.27593  Biso   1.000  C
  C67      1.0000 0.07411  0.35276  0.44898  Biso   1.000  C
  N5       1.0000 0.06009  0.46020  0.33898  Biso   1.000  N
  S19      1.0000 0.52218  0.19793  0.26778  Biso   1.000  S
  S20      1.0000 0.53948  0.30270  0.12507  Biso   1.000  S
  C68      1.0000 0.07833  0.55056  0.21622  Biso   1.000  C
  C69      1.0000 0.09540  0.26523  0.41256  Biso   1.000  C
  C70      1.0000 0.12209  0.33895  0.51288  Biso   1.000  C
  C71      1.0000 0.96678  0.40314  0.49215  Biso   1.000  C
  H45      1.0000 0.99914  0.47638  0.35054  Biso   1.000  H
  C72      1.0000 0.62036  0.14716  0.17858  Biso   1.000  C
  C73      1.0000 0.62871  0.19617  0.11212  Biso   1.000  C
  C74      1.0000 0.10239  0.49736  0.13942  Biso   1.000  C
  C75      1.0000 0.12595  0.61296  0.19506  Biso   1.000  C
  C76      1.0000 0.97024  0.60573  0.25380  Biso   1.000  C
  C77      1.0000 0.16051  0.18257  0.41377  Biso   1.000  C
  N6       1.0000 0.04680  0.25852  0.36531  Biso   1.000  N
  H46      1.0000 0.09910  0.30504  0.55508  Biso   1.000  H
  H47      1.0000 0.10678  0.39547  0.53763  Biso   1.000  H
  H48      1.0000 0.19081  0.30776  0.48650  Biso   1.000  H
  H49      1.0000 0.93482  0.41360  0.45238  Biso   1.000  H
  H50      1.0000 0.95340  0.45873  0.51732  Biso   1.000  H
  H51      1.0000 0.94381  0.36903  0.53423  Biso   1.000  H
  C78      1.0000 0.68650  0.06188  0.17317  Biso   1.000  C
  C79      1.0000 0.70443  0.16087  0.03940  Biso   1.000  C
  C80      1.0000 0.17356  0.47866  0.06506  Biso   1.000  C
  N7       1.0000 0.05228  0.45078  0.13778  Biso   1.000  N
  H52      1.0000 0.19473  0.57961  0.17189  Biso   1.000  H
  H53      1.0000 0.10985  0.64787  0.24443  Biso   1.000  H
  H54      1.0000 0.10374  0.65129  0.15529  Biso   1.000  H
  H55      1.0000 0.94836  0.64480  0.21440  Biso   1.000  H
  H56      1.0000 0.95607  0.63997  0.30299  Biso   1.000  H
  H57      1.0000 0.93793  0.56738  0.26790  Biso   1.000  H
  C81      1.0000 0.15093  0.12533  0.36556  Biso   1.000  C
  S21      1.0000 0.24515  0.13357  0.46132  Biso   1.000  S
  C82      1.0000 0.07981  0.17364  0.33594  Biso   1.000  C
  H58      1.0000 0.00059  0.30274  0.35528  Biso   1.000  H
  H59      1.0000 0.67985  0.02785  0.21823  Biso   1.000  H
  C83      1.0000 0.76251  0.02732  0.10075  Biso   1.000  C
  C84      1.0000 0.77168  0.07660  0.03502  Biso   1.000  C
  H60      1.0000 0.70959  0.19412  0.99362  Biso   1.000  H
  C85      1.0000 0.16653  0.41872  0.01782  Biso   1.000  C
  S22      1.0000 0.26534  0.51103  0.01605  Biso   1.000  S
  C86      1.0000 0.09021  0.40275  0.06378  Biso   1.000  C
  H61      1.0000 0.00276  0.45158  0.17840  Biso   1.000  H
  S23      1.0000 0.22933  0.01467  0.35619  Biso   1.000  S
  C87      1.0000 0.30208  0.03655  0.39669  Biso   1.000  C
  C88      1.0000 0.03880  0.15010  0.28079  Biso   1.000  C
  H62      1.0000 0.80853  0.96918  0.09637  Biso   1.000  H
  H63      1.0000 0.82459  0.05263  0.98644  Biso   1.000  H
  S24      1.0000 0.25225  0.38355  0.91956  Biso   1.000  S
  C89      1.0000 0.32585  0.42150  0.94211  Biso   1.000  C
  C90      1.0000 0.04957  0.34321  0.04767  Biso   1.000  C
  C91      1.0000 0.39381  0.98387  0.38003  Biso   1.000  C
  C92      1.0000 0.06658  0.05203  0.27891  Biso   1.000  C
  C93      1.0000 0.07771  0.17412  0.19555  Biso   1.000  C
  C94      1.0000 0.92977  0.19683  0.31582  Biso   1.000  C
  C95      1.0000 0.42025  0.38291  0.90770  Biso   1.000  C
  C96      1.0000 0.08282  0.26068  0.08987  Biso   1.000  C
  C97      1.0000 0.94051  0.39004  0.07886  Biso   1.000  C
  C98      1.0000 0.08368  0.32119  0.95543  Biso   1.000  C
  S25      1.0000 0.46294  0.00573  0.42454  Biso   1.000  S
  S26      1.0000 0.45421  0.88736  0.31533  Biso   1.000  S
  H64      1.0000 0.03988  0.03653  0.24383  Biso   1.000  H
  H65      1.0000 0.04187  0.03651  0.33412  Biso   1.000  H
  H66      1.0000 0.13571  0.02053  0.25769  Biso   1.000  H
  C99      1.0000 0.16020  0.13016  0.13134  Biso   1.000  C
  N8       1.0000 0.03187  0.25341  0.16879  Biso   1.000  N
  H67      1.0000 0.90978  0.25973  0.31983  Biso   1.000  H
  H68      1.0000 0.90681  0.17831  0.36999  Biso   1.000  H
  H69      1.0000 0.90342  0.18209  0.27988  Biso   1.000  H
  S27      1.0000 0.49481  0.42233  0.92643  Biso   1.000  S
  S28      1.0000 0.47947  0.29042  0.83753  Biso   1.000  S
  C100     1.0000 0.16335  0.18380  0.06591  Biso   1.000  C
  H70      1.0000 0.91699  0.40683  0.13730  Biso   1.000  H
  H71      1.0000 0.91495  0.35089  0.06938  Biso   1.000  H
  H72      1.0000 0.92047  0.44195  0.04980  Biso   1.000  H
  H73      1.0000 0.06174  0.37470  0.92886  Biso   1.000  H
  H74      1.0000 0.05810  0.28253  0.94491  Biso   1.000  H
  H75      1.0000 0.15289  0.29232  0.93384  Biso   1.000  H
  C101     1.0000 0.57207  0.93139  0.35698  Biso   1.000  C
  C102     1.0000 0.56798  0.87667  0.30457  Biso   1.000  C
  S29      1.0000 0.25650  0.02915  0.11717  Biso   1.000  S
  H76      1.0000 0.97710  0.29408  0.19840  Biso   1.000  H
  C103     1.0000 0.60011  0.32972  0.87900  Biso   1.000  C
  C104     1.0000 0.59256  0.26718  0.83856  Biso   1.000  C
  S30      1.0000 0.26452  0.14285  0.97744  Biso   1.000  S
  C105     1.0000 0.65922  0.92429  0.35577  Biso   1.000  C
  C106     1.0000 0.65091  0.81625  0.24845  Biso   1.000  C
  C107     1.0000 0.32034  0.04419  0.01727  Biso   1.000  C
  C108     1.0000 0.68744  0.31916  0.87955  Biso   1.000  C
  C109     1.0000 0.67311  0.19202  0.79886  Biso   1.000  C
  C110     1.0000 0.74170  0.86271  0.30110  Biso   1.000  C
  H77      1.0000 0.66205  0.96102  0.39182  Biso   1.000  H
  H78      1.0000 0.64816  0.78039  0.21130  Biso   1.000  H
  C111     1.0000 0.73717  0.80926  0.24772  Biso   1.000  C
  C112     1.0000 0.40549  0.98268  0.97464  Biso   1.000  C
  C113     1.0000 0.76775  0.24508  0.83808  Biso   1.000  C
  H79      1.0000 0.69232  0.36162  0.90752  Biso   1.000  H
  H80      1.0000 0.66810  0.14849  0.77253  Biso   1.000  H
  C114     1.0000 0.76058  0.18218  0.79868  Biso   1.000  C
  H81      1.0000 0.80148  0.85692  0.30001  Biso   1.000  H
  H82      1.0000 0.79412  0.76757  0.21038  Biso   1.000  H
  S31      1.0000 0.47171  0.99238  0.87426  Biso   1.000  S
  S32      1.0000 0.45861  0.88436  0.01538  Biso   1.000  S
  H83      1.0000 0.82816  0.23772  0.83680  Biso   1.000  H
  H84      1.0000 0.81593  0.13189  0.77131  Biso   1.000  H
  C115     1.0000 0.56790  0.89050  0.86258  Biso   1.000  C
  C116     1.0000 0.56205  0.84061  0.92947  Biso   1.000  C
  C117     1.0000 0.64731  0.86032  0.79211  Biso   1.000  C
  C118     1.0000 0.63618  0.76024  0.92600  Biso   1.000  C
  H85      1.0000 0.65098  0.89378  0.74651  Biso   1.000  H
  C119     1.0000 0.72122  0.78047  0.78943  Biso   1.000  C
  C120     1.0000 0.71588  0.73040  0.85565  Biso   1.000  C
  H86      1.0000 0.63241  0.72615  0.97112  Biso   1.000  H
  H87      1.0000 0.77622  0.75963  0.74195  Biso   1.000  H
  H88      1.0000 0.76683  0.67562  0.85273  Biso   1.000  H
