data_image0
_cell_length_a       28.053
_cell_length_b       20.722
_cell_length_c       16.828
_cell_angle_alpha    90
_cell_angle_beta     107.44
_cell_angle_gamma    90

_symmetry_space_group_name_H-M    "P 1"
_symmetry_int_tables_number       1

loop_
  _symmetry_equiv_pos_as_xyz
  'x, y, z'

loop_
  _atom_site_label
  _atom_site_occupancy
  _atom_site_fract_x
  _atom_site_fract_y
  _atom_site_fract_z
  _atom_site_thermal_displace_type
  _atom_site_B_iso_or_equiv
  _atom_site_type_symbol
  C1       1.0000 0.55924  0.39924  0.56240  Biso   1.000  C
  N1       1.0000 0.55810  0.33052  0.54870  Biso   1.000  N
  N2       1.0000 0.60729  0.42351  0.61154  Biso   1.000  N
  H1       1.0000 0.53460  0.41010  0.59030  Biso   1.000  H
  H2       1.0000 0.54969  0.42091  0.50889  Biso   1.000  H
  C2       1.0000 0.55060  0.30378  0.47152  Biso   1.000  C
  C3       1.0000 0.54981  0.28453  0.60787  Biso   1.000  C
  C4       1.0000 0.63407  0.46670  0.58046  Biso   1.000  C
  C5       1.0000 0.62548  0.41844  0.70124  Biso   1.000  C
  N3       1.0000 0.54037  0.23950  0.47588  Biso   1.000  N
  O1       1.0000 0.55295  0.33255  0.40979  Biso   1.000  O
  C6       1.0000 0.53446  0.22242  0.55623  Biso   1.000  C
  N4       1.0000 0.59439  0.26523  0.67246  Biso   1.000  N
  H3       1.0000 0.52361  0.29910  0.63129  Biso   1.000  H
  N5       1.0000 0.67170  0.49040  0.64580  Biso   1.000  N
  O2       1.0000 0.62528  0.48229  0.50777  Biso   1.000  O
  N6       1.0000 0.64668  0.35629  0.73089  Biso   1.000  N
  C7       1.0000 0.67130  0.46410  0.72491  Biso   1.000  C
  H4       1.0000 0.60009  0.43162  0.72696  Biso   1.000  H
  C8       1.0000 0.51692  0.20239  0.40114  Biso   1.000  C
  N7       1.0000 0.56934  0.17518  0.60170  Biso   1.000  N
  H5       1.0000 0.49988  0.21021  0.55106  Biso   1.000  H
  C9       1.0000 0.60333  0.20051  0.67140  Biso   1.000  C
  C10      1.0000 0.61616  0.30378  0.74553  Biso   1.000  C
  C11      1.0000 0.70248  0.54454  0.63839  Biso   1.000  C
  C12      1.0000 0.69651  0.36039  0.77075  Biso   1.000  C
  N8       1.0000 0.71202  0.42148  0.76421  Biso   1.000  N
  H6       1.0000 0.66759  0.49812  0.76315  Biso   1.000  H
  N9       1.0000 0.54563  0.14622  0.39210  Biso   1.000  N
  H7       1.0000 0.48410  0.18850  0.40238  Biso   1.000  H
  H8       1.0000 0.51230  0.23000  0.35286  Biso   1.000  H
  C13      1.0000 0.56183  0.10641  0.58949  Biso   1.000  C
  O3       1.0000 0.63559  0.17040  0.72217  Biso   1.000  O
  H9       1.0000 0.58959  0.32149  0.76490  Biso   1.000  H
  H10      1.0000 0.63660  0.27628  0.78925  Biso   1.000  H
  N10      1.0000 0.75311  0.52702  0.64481  Biso   1.000  N
  H11      1.0000 0.70279  0.57562  0.68156  Biso   1.000  H
  H12      1.0000 0.68758  0.56529  0.58507  Biso   1.000  H
  O4       1.0000 0.72329  0.31561  0.80570  Biso   1.000  O
  C14      1.0000 0.76076  0.44455  0.81367  Biso   1.000  C
  C15      1.0000 0.54299  0.08590  0.43433  Biso   1.000  C
  C16      1.0000 0.55722  0.13575  0.31916  Biso   1.000  C
  N11      1.0000 0.57488  0.08204  0.51892  Biso   1.000  N
  H13      1.0000 0.58171  0.08431  0.63920  Biso   1.000  H
  H14      1.0000 0.52699  0.09661  0.58246  Biso   1.000  H
  C17      1.0000 0.77238  0.52823  0.57891  Biso   1.000  C
  C18      1.0000 0.79138  0.52080  0.72304  Biso   1.000  C
  N12      1.0000 0.79323  0.45879  0.76346  Biso   1.000  N
  H15      1.0000 0.77640  0.41207  0.85465  Biso   1.000  H
  H16      1.0000 0.75649  0.48321  0.84326  Biso   1.000  H
  H17      1.0000 0.50840  0.07441  0.43010  Biso   1.000  H
  C19      1.0000 0.56668  0.03663  0.38805  Biso   1.000  C
  N13      1.0000 0.56853  0.07195  0.31586  Biso   1.000  N
  O5       1.0000 0.55705  0.17600  0.26647  Biso   1.000  O
  C20      1.0000 0.61656  0.04507  0.52671  Biso   1.000  C
  N14      1.0000 0.82289  0.51858  0.60961  Biso   1.000  N
  O6       1.0000 0.74875  0.53672  0.50653  Biso   1.000  O
  C21      1.0000 0.84020  0.52258  0.69937  Biso   1.000  C
  H18      1.0000 0.78998  0.55622  0.76085  Biso   1.000  H
  C22      1.0000 0.84029  0.43258  0.78271  Biso   1.000  C
  N15      1.0000 0.61485  0.02374  0.44879  Biso   1.000  N
  H19      1.0000 0.54640  0.99739  0.37317  Biso   1.000  H
  C23      1.0000 0.58047  0.04372  0.24566  Biso   1.000  C
  O7       1.0000 0.64867  0.03344  0.59111  Biso   1.000  O
  C24      1.0000 0.85553  0.53166  0.55978  Biso   1.000  C
  N16      1.0000 0.86700  0.46670  0.74135  Biso   1.000  N
  H20      1.0000 0.85890  0.56249  0.71831  Biso   1.000  H
  O8       1.0000 0.85541  0.38664  0.82856  Biso   1.000  O
  C25      1.0000 0.64446  0.96829  0.44019  Biso   1.000  C
  N17      1.0000 0.63303  0.03330  0.25862  Biso   1.000  N
  H21      1.0000 0.56329  0.00270  0.23258  Biso   1.000  H
  H22      1.0000 0.56780  0.07171  0.19776  Biso   1.000  H
  N18      1.0000 0.88518  0.47626  0.55119  Biso   1.000  N
  H23      1.0000 0.83559  0.54560  0.50478  Biso   1.000  H
  H24      1.0000 0.87782  0.56679  0.58501  Biso   1.000  H
  C26      1.0000 0.91956  0.45628  0.75431  Biso   1.000  C
  N19      1.0000 0.67714  0.98142  0.39036  Biso   1.000  N
  H25      1.0000 0.66440  0.95440  0.49519  Biso   1.000  H
  H26      1.0000 0.62221  0.93321  0.41496  Biso   1.000  H
  C27      1.0000 0.65974  0.06742  0.21726  Biso   1.000  C
  C28      1.0000 0.65979  0.97737  0.30060  Biso   1.000  C
  C29      1.0000 0.88343  0.45493  0.47326  Biso   1.000  C
  C30      1.0000 0.93335  0.46337  0.61192  Biso   1.000  C
  N20      1.0000 0.93150  0.42805  0.68411  Biso   1.000  N
  H27      1.0000 0.93670  0.49730  0.76739  Biso   1.000  H
  H28      1.0000 0.93219  0.42829  0.80215  Biso   1.000  H
  C31      1.0000 0.72765  0.97177  0.42107  Biso   1.000  C
  N21      1.0000 0.70676  0.04121  0.23651  Biso   1.000  N
  O9       1.0000 0.64462  0.11336  0.17142  Biso   1.000  O
  H29      1.0000 0.64109  0.93751  0.28167  Biso   1.000  H
  C32      1.0000 0.70861  0.97920  0.27693  Biso   1.000  C
  N22      1.0000 0.92511  0.41796  0.48105  Biso   1.000  N
  O10      1.0000 0.85136  0.46656  0.40886  Biso   1.000  O
  C33      1.0000 0.95700  0.41410  0.56564  Biso   1.000  C
  H30      1.0000 0.95360  0.50261  0.62680  Biso   1.000  H
  C34      1.0000 0.94277  0.36425  0.68081  Biso   1.000  C
  N23      1.0000 0.74692  0.97293  0.35517  Biso   1.000  N
  O11      1.0000 0.75125  0.96328  0.49345  Biso   1.000  O
  C35      1.0000 0.73923  0.05545  0.18630  Biso   1.000  C
  H31      1.0000 0.71001  0.94378  0.23912  Biso   1.000  H
  C36      1.0000 0.93820  0.39359  0.41048  Biso   1.000  C
  N24      1.0000 0.95440  0.35378  0.60787  Biso   1.000  N
  H32      1.0000 0.99159  0.42559  0.56987  Biso   1.000  H
  O12      1.0000 0.94294  0.32396  0.73350  Biso   1.000  O
  C37      1.0000 0.79751  0.95546  0.36158  Biso   1.000  C
  N25      1.0000 0.78797  0.07852  0.23576  Biso   1.000  N
  H33      1.0000 0.72363  0.08788  0.14532  Biso   1.000  H
  H34      1.0000 0.74350  0.01679  0.15672  Biso   1.000  H
  N26      1.0000 0.93069  0.32482  0.39827  Biso   1.000  N
  H35      1.0000 0.91832  0.41569  0.36077  Biso   1.000  H
  H36      1.0000 0.97301  0.40339  0.41752  Biso   1.000  H
  C38      1.0000 0.98311  0.29761  0.59884  Biso   1.000  C
  N27      1.0000 0.82830  0.00960  0.35417  Biso   1.000  N
  H37      1.0000 0.79720  0.92438  0.31842  Biso   1.000  H
  H38      1.0000 0.81241  0.93471  0.41490  Biso   1.000  H
  C39      1.0000 0.82872  0.03590  0.27500  Biso   1.000  C
  C40      1.0000 0.80352  0.13961  0.22922  Biso   1.000  C
  C41      1.0000 0.89670  0.29949  0.32857  Biso   1.000  C
  C42      1.0000 0.96556  0.27758  0.44374  Biso   1.000  C
  N28      1.0000 0.95962  0.26050  0.52409  Biso   1.000  N
  H39      1.0000 0.98773  0.27000  0.64711  Biso   1.000  H
  H40      1.0000 0.01590  0.31150  0.59759  Biso   1.000  H
  C43      1.0000 0.86596  0.03330  0.41951  Biso   1.000  C
  H41      1.0000 0.83240  0.00188  0.23682  Biso   1.000  H
  C44      1.0000 0.87455  0.08156  0.29873  Biso   1.000  C
  N29      1.0000 0.85335  0.14371  0.26908  Biso   1.000  N
  O13      1.0000 0.77673  0.18439  0.19421  Biso   1.000  O
  N30      1.0000 0.90564  0.23473  0.32751  Biso   1.000  N
  O14      1.0000 0.86444  0.32960  0.27780  Biso   1.000  O
  C45      1.0000 0.95022  0.21547  0.39210  Biso   1.000  C
  H42      1.0000 0.00011  0.28979  0.44891  Biso   1.000  H
  C46      1.0000 0.94943  0.19622  0.52845  Biso   1.000  C
  N31      1.0000 0.89270  0.07649  0.38843  Biso   1.000  N
  O15      1.0000 0.87472  0.01771  0.49220  Biso   1.000  O
  H43      1.0000 0.89990  0.06838  0.27301  Biso   1.000  H
  C47      1.0000 0.88387  0.19622  0.25445  Biso   1.000  C
  N32      1.0000 0.94193  0.16948  0.45128  Biso   1.000  N
  H44      1.0000 0.97642  0.20090  0.36868  Biso   1.000  H
  O16      1.0000 0.94708  0.16745  0.59018  Biso   1.000  O
  C48      1.0000 0.94079  0.10076  0.43757  Biso   1.000  C
  H45      1.0000 0.91041  0.17851  0.23508  Biso   1.000  H
  H46      1.0000 0.86343  0.22368  0.21072  Biso   1.000  H
  H47      1.0000 0.96539  0.08990  0.40967  Biso   1.000  H
  H48      1.0000 0.95030  0.07909  0.49108  Biso   1.000  H
  O17      1.0000 0.37473  0.51771  0.49220  Biso   1.000  O
  C49      1.0000 0.36594  0.53330  0.41951  Biso   1.000  C
  N33      1.0000 0.32832  0.50956  0.35417  Biso   1.000  N
  N34      1.0000 0.39272  0.57649  0.38843  Biso   1.000  N
  C50      1.0000 0.29750  0.45546  0.36158  Biso   1.000  C
  C51      1.0000 0.32870  0.53590  0.27500  Biso   1.000  C
  C52      1.0000 0.37453  0.58156  0.29873  Biso   1.000  C
  C53      1.0000 0.44077  0.60071  0.43757  Biso   1.000  C
  N35      1.0000 0.24690  0.47293  0.35517  Biso   1.000  N
  H49      1.0000 0.29722  0.42438  0.31842  Biso   1.000  H
  H50      1.0000 0.31239  0.43471  0.41490  Biso   1.000  H
  N36      1.0000 0.28796  0.57852  0.23576  Biso   1.000  N
  H51      1.0000 0.33242  0.50188  0.23682  Biso   1.000  H
  N37      1.0000 0.35334  0.64366  0.26908  Biso   1.000  N
  H52      1.0000 0.39992  0.56838  0.27301  Biso   1.000  H
  N38      1.0000 0.44191  0.66943  0.45128  Biso   1.000  N
  H53      1.0000 0.46541  0.58990  0.40967  Biso   1.000  H
  H54      1.0000 0.45032  0.57909  0.49108  Biso   1.000  H
  C54      1.0000 0.22763  0.47177  0.42107  Biso   1.000  C
  C55      1.0000 0.20863  0.47920  0.27693  Biso   1.000  C
  C56      1.0000 0.23925  0.55545  0.18630  Biso   1.000  C
  C57      1.0000 0.30350  0.63961  0.22922  Biso   1.000  C
  C58      1.0000 0.38386  0.69622  0.25445  Biso   1.000  C
  C59      1.0000 0.45020  0.71547  0.39210  Biso   1.000  C
  C60      1.0000 0.44941  0.69622  0.52845  Biso   1.000  C
  N39      1.0000 0.17712  0.48142  0.39036  Biso   1.000  N
  O18      1.0000 0.25126  0.46328  0.49345  Biso   1.000  O
  N40      1.0000 0.20675  0.54121  0.23651  Biso   1.000  N
  C61      1.0000 0.15981  0.47737  0.30060  Biso   1.000  C
  H55      1.0000 0.21000  0.44378  0.23912  Biso   1.000  H
  H56      1.0000 0.22361  0.58788  0.14532  Biso   1.000  H
  H57      1.0000 0.24352  0.51679  0.15672  Biso   1.000  H
  O19      1.0000 0.27671  0.68439  0.19421  Biso   1.000  O
  N41      1.0000 0.40562  0.73473  0.32751  Biso   1.000  N
  H58      1.0000 0.41039  0.67851  0.23508  Biso   1.000  H
  H59      1.0000 0.36341  0.72368  0.21072  Biso   1.000  H
  H60      1.0000 0.47640  0.70090  0.36868  Biso   1.000  H
  C62      1.0000 0.46555  0.77758  0.44374  Biso   1.000  C
  N42      1.0000 0.45960  0.76050  0.52409  Biso   1.000  N
  O20      1.0000 0.44707  0.66745  0.59018  Biso   1.000  O
  C63      1.0000 0.14444  0.46829  0.44019  Biso   1.000  C
  C64      1.0000 0.15972  0.56742  0.21726  Biso   1.000  C
  N43      1.0000 0.13301  0.53330  0.25862  Biso   1.000  N
  H61      1.0000 0.14111  0.43751  0.28167  Biso   1.000  H
  C65      1.0000 0.39668  0.79949  0.32857  Biso   1.000  C
  N44      1.0000 0.43067  0.82482  0.39827  Biso   1.000  N
  H62      1.0000 0.50009  0.78979  0.44891  Biso   1.000  H
  C66      1.0000 0.48309  0.79761  0.59884  Biso   1.000  C
  N45      1.0000 0.11483  0.52374  0.44879  Biso   1.000  N
  H63      1.0000 0.16438  0.45440  0.49519  Biso   1.000  H
  H64      1.0000 0.12219  0.43321  0.41496  Biso   1.000  H
  O21      1.0000 0.14460  0.61336  0.17142  Biso   1.000  O
  C67      1.0000 0.08045  0.54372  0.24566  Biso   1.000  C
  O22      1.0000 0.36442  0.82960  0.27780  Biso   1.000  O
  C68      1.0000 0.43818  0.89359  0.41048  Biso   1.000  C
  N46      1.0000 0.45438  0.85378  0.60787  Biso   1.000  N
  H65      1.0000 0.51591  0.81150  0.59759  Biso   1.000  H
  H66      1.0000 0.48771  0.77000  0.64711  Biso   1.000  H
  C69      1.0000 0.11654  0.54507  0.52671  Biso   1.000  C
  C70      1.0000 0.06666  0.53663  0.38805  Biso   1.000  C
  N47      1.0000 0.06851  0.57195  0.31586  Biso   1.000  N
  H67      1.0000 0.06331  0.50270  0.23258  Biso   1.000  H
  H68      1.0000 0.06778  0.57171  0.19776  Biso   1.000  H
  N48      1.0000 0.42509  0.91796  0.48105  Biso   1.000  N
  H69      1.0000 0.41830  0.91569  0.36077  Biso   1.000  H
  H70      1.0000 0.47302  0.90339  0.41752  Biso   1.000  H
  C71      1.0000 0.45698  0.91410  0.56564  Biso   1.000  C
  C72      1.0000 0.44276  0.86425  0.68081  Biso   1.000  C
  N49      1.0000 0.07490  0.58204  0.51892  Biso   1.000  N
  O23      1.0000 0.14866  0.53344  0.59111  Biso   1.000  O
  C73      1.0000 0.04301  0.58590  0.43433  Biso   1.000  C
  H71      1.0000 0.04638  0.49739  0.37317  Biso   1.000  H
  C74      1.0000 0.05724  0.63575  0.31916  Biso   1.000  C
  C75      1.0000 0.38345  0.95493  0.47326  Biso   1.000  C
  H72      1.0000 0.49161  0.92559  0.56987  Biso   1.000  H
  C76      1.0000 0.43333  0.96337  0.61192  Biso   1.000  C
  N50      1.0000 0.43148  0.92805  0.68411  Biso   1.000  N
  O24      1.0000 0.44293  0.82396  0.73350  Biso   1.000  O
  C77      1.0000 0.06181  0.60641  0.58949  Biso   1.000  C
  N51      1.0000 0.04561  0.64617  0.39210  Biso   1.000  N
  H73      1.0000 0.00838  0.57441  0.43010  Biso   1.000  H
  O25      1.0000 0.05707  0.67600  0.26647  Biso   1.000  O
  N52      1.0000 0.38516  0.97626  0.55119  Biso   1.000  N
  O26      1.0000 0.35134  0.96656  0.40886  Biso   1.000  O
  H74      1.0000 0.45362  0.00261  0.62680  Biso   1.000  H
  C78      1.0000 0.41954  0.95628  0.75431  Biso   1.000  C
  N53      1.0000 0.06932  0.67518  0.60170  Biso   1.000  N
  H75      1.0000 0.08169  0.58431  0.63920  Biso   1.000  H
  H76      1.0000 0.02701  0.59661  0.58246  Biso   1.000  H
  C79      1.0000 0.01690  0.70239  0.40114  Biso   1.000  C
  C80      1.0000 0.35555  0.03166  0.55978  Biso   1.000  C
  N54      1.0000 0.36698  0.96670  0.74135  Biso   1.000  N
  H77      1.0000 0.43668  0.99730  0.76739  Biso   1.000  H
  H78      1.0000 0.43220  0.92829  0.80215  Biso   1.000  H
  C81      1.0000 0.10331  0.70051  0.67140  Biso   1.000  C
  C82      1.0000 0.03445  0.72242  0.55623  Biso   1.000  C
  N55      1.0000 0.04039  0.73950  0.47588  Biso   1.000  N
  H79      1.0000 0.01229  0.73000  0.35286  Biso   1.000  H
  H80      1.0000 0.98412  0.68850  0.40238  Biso   1.000  H
  N56      1.0000 0.32287  0.01858  0.60961  Biso   1.000  N
  H81      1.0000 0.33561  0.04560  0.50478  Biso   1.000  H
  H82      1.0000 0.37780  0.06679  0.58501  Biso   1.000  H
  C83      1.0000 0.34027  0.93258  0.78271  Biso   1.000  C
  C84      1.0000 0.34019  0.02263  0.69937  Biso   1.000  C
  N57      1.0000 0.09438  0.76523  0.67246  Biso   1.000  N
  O27      1.0000 0.13557  0.67040  0.72217  Biso   1.000  O
  C85      1.0000 0.04979  0.78453  0.60787  Biso   1.000  C
  H83      1.0000 0.99990  0.71021  0.55106  Biso   1.000  H
  C86      1.0000 0.05059  0.80378  0.47152  Biso   1.000  C
  C87      1.0000 0.27237  0.02823  0.57891  Biso   1.000  C
  N58      1.0000 0.29325  0.95879  0.76346  Biso   1.000  N
  O28      1.0000 0.35539  0.88664  0.82856  Biso   1.000  O
  H84      1.0000 0.35892  0.06249  0.71831  Biso   1.000  H
  C88      1.0000 0.29136  0.02080  0.72304  Biso   1.000  C
  C89      1.0000 0.11614  0.80378  0.74553  Biso   1.000  C
  N59      1.0000 0.05808  0.83052  0.54870  Biso   1.000  N
  H85      1.0000 0.02359  0.79910  0.63129  Biso   1.000  H
  O29      1.0000 0.05293  0.83255  0.40979  Biso   1.000  O
  N60      1.0000 0.25309  0.02707  0.64481  Biso   1.000  N
  O30      1.0000 0.24873  0.03672  0.50653  Biso   1.000  O
  C90      1.0000 0.26075  0.94455  0.81367  Biso   1.000  C
  H86      1.0000 0.29000  0.05622  0.76085  Biso   1.000  H
  N61      1.0000 0.14666  0.85629  0.73089  Biso   1.000  N
  H87      1.0000 0.08961  0.82149  0.76490  Biso   1.000  H
  H88      1.0000 0.13658  0.77628  0.78925  Biso   1.000  H
  C91      1.0000 0.05923  0.89924  0.56240  Biso   1.000  C
  C92      1.0000 0.20250  0.04454  0.63839  Biso   1.000  C
  N62      1.0000 0.21204  0.92148  0.76421  Biso   1.000  N
  H89      1.0000 0.27638  0.91207  0.85465  Biso   1.000  H
  H90      1.0000 0.25648  0.98321  0.84326  Biso   1.000  H
  C93      1.0000 0.12547  0.91844  0.70124  Biso   1.000  C
  C94      1.0000 0.19649  0.86039  0.77075  Biso   1.000  C
  N63      1.0000 0.10727  0.92351  0.61154  Biso   1.000  N
  H91      1.0000 0.03458  0.91010  0.59030  Biso   1.000  H
  H92      1.0000 0.04971  0.92091  0.50889  Biso   1.000  H
  N64      1.0000 0.17168  0.99040  0.64580  Biso   1.000  N
  H93      1.0000 0.20277  0.07562  0.68156  Biso   1.000  H
  H94      1.0000 0.18760  0.06529  0.58507  Biso   1.000  H
  C95      1.0000 0.17128  0.96410  0.72491  Biso   1.000  C
  H95      1.0000 0.10008  0.93162  0.72696  Biso   1.000  H
  O31      1.0000 0.22327  0.81561  0.80570  Biso   1.000  O
  C96      1.0000 0.13405  0.96670  0.58046  Biso   1.000  C
  H96      1.0000 0.16757  0.99812  0.76315  Biso   1.000  H
  O32      1.0000 0.12530  0.98229  0.50777  Biso   1.000  O
  C97      1.0000 0.37452  0.41844  0.79872  Biso   1.000  C
  N65      1.0000 0.35332  0.35629  0.76907  Biso   1.000  N
  C98      1.0000 0.32869  0.46410  0.77499  Biso   1.000  C
  N66      1.0000 0.39271  0.42351  0.88841  Biso   1.000  N
  H97      1.0000 0.39991  0.43162  0.77299  Biso   1.000  H
  C99      1.0000 0.30349  0.36039  0.72921  Biso   1.000  C
  C100     1.0000 0.38384  0.30378  0.75443  Biso   1.000  C
  N67      1.0000 0.28794  0.42148  0.73575  Biso   1.000  N
  N68      1.0000 0.32830  0.49040  0.85416  Biso   1.000  N
  H98      1.0000 0.33241  0.49812  0.73681  Biso   1.000  H
  C101     1.0000 0.36593  0.46670  0.91950  Biso   1.000  C
  C102     1.0000 0.44076  0.39924  0.93756  Biso   1.000  C
  O33      1.0000 0.27670  0.31561  0.69420  Biso   1.000  O
  N69      1.0000 0.40561  0.26523  0.82750  Biso   1.000  N
  H99      1.0000 0.41041  0.32149  0.73506  Biso   1.000  H
  H100     1.0000 0.36340  0.27628  0.71071  Biso   1.000  H
  C103     1.0000 0.23924  0.44455  0.68629  Biso   1.000  C
  C104     1.0000 0.29752  0.54454  0.86157  Biso   1.000  C
  O34      1.0000 0.37472  0.48229  0.99219  Biso   1.000  O
  N70      1.0000 0.44190  0.33052  0.95126  Biso   1.000  N
  H101     1.0000 0.46540  0.41010  0.90965  Biso   1.000  H
  H102     1.0000 0.45031  0.42091  0.99107  Biso   1.000  H
  C105     1.0000 0.39667  0.20051  0.82856  Biso   1.000  C
  C106     1.0000 0.45019  0.28453  0.89209  Biso   1.000  C
  N71      1.0000 0.20673  0.45879  0.73649  Biso   1.000  N
  H103     1.0000 0.22360  0.41207  0.64530  Biso   1.000  H
  H104     1.0000 0.24351  0.48321  0.65670  Biso   1.000  H
  N72      1.0000 0.24689  0.52702  0.85515  Biso   1.000  N
  H105     1.0000 0.29721  0.57562  0.81840  Biso   1.000  H
  H106     1.0000 0.31238  0.56529  0.91489  Biso   1.000  H
  C107     1.0000 0.44943  0.30378  0.02844  Biso   1.000  C
  N73      1.0000 0.43066  0.17518  0.89826  Biso   1.000  N
  O35      1.0000 0.36441  0.17040  0.77779  Biso   1.000  O
  H107     1.0000 0.47639  0.29910  0.86867  Biso   1.000  H
  C108     1.0000 0.46554  0.22242  0.94373  Biso   1.000  C
  C109     1.0000 0.20861  0.52080  0.77686  Biso   1.000  C
  C110     1.0000 0.15971  0.43258  0.71725  Biso   1.000  C
  C111     1.0000 0.22762  0.52823  0.92105  Biso   1.000  C
  N74      1.0000 0.45963  0.23950  0.02408  Biso   1.000  N
  O36      1.0000 0.44709  0.33255  0.09017  Biso   1.000  O
  C112     1.0000 0.43817  0.10641  0.91046  Biso   1.000  C
  H108     1.0000 0.50012  0.21021  0.94890  Biso   1.000  H
  C113     1.0000 0.15980  0.52258  0.80059  Biso   1.000  C
  H109     1.0000 0.20997  0.55622  0.73905  Biso   1.000  H
  N75      1.0000 0.13300  0.46670  0.75861  Biso   1.000  N
  O37      1.0000 0.14459  0.38664  0.67140  Biso   1.000  O
  N76      1.0000 0.17711  0.51858  0.89035  Biso   1.000  N
  O38      1.0000 0.25125  0.53672  0.99343  Biso   1.000  O
  C114     1.0000 0.48312  0.20239  0.09882  Biso   1.000  C
  N77      1.0000 0.42512  0.08204  0.98104  Biso   1.000  N
  H110     1.0000 0.41829  0.08431  0.86076  Biso   1.000  H
  H111     1.0000 0.47301  0.09661  0.91750  Biso   1.000  H
  H112     1.0000 0.14110  0.56249  0.78165  Biso   1.000  H
  C115     1.0000 0.08044  0.45628  0.74565  Biso   1.000  C
  C116     1.0000 0.14447  0.53166  0.94018  Biso   1.000  C
  N78      1.0000 0.45441  0.14622  0.10786  Biso   1.000  N
  H113     1.0000 0.51590  0.18850  0.09758  Biso   1.000  H
  H114     1.0000 0.48773  0.23000  0.14710  Biso   1.000  H
  C117     1.0000 0.38344  0.04507  0.97325  Biso   1.000  C
  C118     1.0000 0.45701  0.08590  0.06562  Biso   1.000  C
  N79      1.0000 0.06850  0.42805  0.81585  Biso   1.000  N
  H115     1.0000 0.06330  0.49730  0.73257  Biso   1.000  H
  H116     1.0000 0.06780  0.42829  0.69775  Biso   1.000  H
  N80      1.0000 0.11482  0.47626  0.94877  Biso   1.000  N
  H117     1.0000 0.16441  0.54560  0.99518  Biso   1.000  H
  H118     1.0000 0.12218  0.56679  0.91495  Biso   1.000  H
  C119     1.0000 0.44278  0.13575  0.18079  Biso   1.000  C
  O39      1.0000 0.35133  0.03344  0.90885  Biso   1.000  O
  N81      1.0000 0.38518  0.02374  0.05117  Biso   1.000  N
  H119     1.0000 0.49163  0.07441  0.06986  Biso   1.000  H
  C120     1.0000 0.43335  0.03663  0.11190  Biso   1.000  C
  C121     1.0000 0.06665  0.46337  0.88804  Biso   1.000  C
  C122     1.0000 0.05723  0.36425  0.81915  Biso   1.000  C
  C123     1.0000 0.11657  0.45493  0.02669  Biso   1.000  C
  N82      1.0000 0.43150  0.07195  0.18410  Biso   1.000  N
  O40      1.0000 0.44295  0.17600  0.23349  Biso   1.000  O
  C124     1.0000 0.35554  0.96829  0.05977  Biso   1.000  C
  H120     1.0000 0.45360  0.99739  0.12679  Biso   1.000  H
  C125     1.0000 0.04300  0.41410  0.93432  Biso   1.000  C
  H121     1.0000 0.04640  0.50261  0.87315  Biso   1.000  H
  N83      1.0000 0.04560  0.35378  0.89209  Biso   1.000  N
  O41      1.0000 0.05706  0.32396  0.76645  Biso   1.000  O
  N84      1.0000 0.07492  0.41796  0.01891  Biso   1.000  N
  O42      1.0000 0.14868  0.46656  0.09110  Biso   1.000  O
  C126     1.0000 0.41956  0.04372  0.25429  Biso   1.000  C
  N85      1.0000 0.32290  0.98142  0.10960  Biso   1.000  N
  H122     1.0000 0.33563  0.95440  0.00477  Biso   1.000  H
  H123     1.0000 0.37783  0.93321  0.08500  Biso   1.000  H
  H124     1.0000 0.00841  0.42559  0.93009  Biso   1.000  H
  C127     1.0000 0.01689  0.29761  0.90112  Biso   1.000  C
  C128     1.0000 0.06184  0.39359  0.08948  Biso   1.000  C
  N86      1.0000 0.36701  0.03330  0.24134  Biso   1.000  N
  H125     1.0000 0.43671  0.00270  0.26738  Biso   1.000  H
  H126     1.0000 0.43220  0.07171  0.30219  Biso   1.000  H
  C129     1.0000 0.27239  0.97177  0.07889  Biso   1.000  C
  C130     1.0000 0.34021  0.97737  0.19936  Biso   1.000  C
  N87      1.0000 0.04038  0.26050  0.97587  Biso   1.000  N
  H127     1.0000 0.01227  0.27000  0.85285  Biso   1.000  H
  H128     1.0000 0.98410  0.31150  0.90237  Biso   1.000  H
  N88      1.0000 0.06934  0.32482  0.10169  Biso   1.000  N
  H129     1.0000 0.08172  0.41569  0.13919  Biso   1.000  H
  H130     1.0000 0.02699  0.40339  0.08244  Biso   1.000  H
  C131     1.0000 0.34029  0.06742  0.28270  Biso   1.000  C
  N89      1.0000 0.25312  0.97293  0.14479  Biso   1.000  N
  O43      1.0000 0.24875  0.96328  0.00651  Biso   1.000  O
  H131     1.0000 0.35891  0.93751  0.21829  Biso   1.000  H
  C132     1.0000 0.29139  0.97920  0.22303  Biso   1.000  C
  C133     1.0000 0.05057  0.19622  0.97151  Biso   1.000  C
  C134     1.0000 0.03447  0.27758  0.05622  Biso   1.000  C
  C135     1.0000 0.10334  0.29949  0.17139  Biso   1.000  C
  N90      1.0000 0.29327  0.04121  0.26345  Biso   1.000  N
  O44      1.0000 0.35542  0.11336  0.32854  Biso   1.000  O
  C136     1.0000 0.20249  0.95546  0.13838  Biso   1.000  C
  H132     1.0000 0.29002  0.94378  0.26084  Biso   1.000  H
  O45      1.0000 0.05292  0.16745  0.90978  Biso   1.000  O
  N91      1.0000 0.05810  0.16948  0.04868  Biso   1.000  N
  H133     1.0000 0.99993  0.28979  0.05105  Biso   1.000  H
  C137     1.0000 0.04981  0.21547  0.10786  Biso   1.000  C
  N92      1.0000 0.09440  0.23473  0.17245  Biso   1.000  N
  O46      1.0000 0.13560  0.32960  0.22215  Biso   1.000  O
  C138     1.0000 0.26077  0.05545  0.31366  Biso   1.000  C
  H134     1.0000 0.20280  0.92438  0.18154  Biso   1.000  H
  H135     1.0000 0.18763  0.93471  0.08506  Biso   1.000  H
  N93      1.0000 0.17170  0.00960  0.14579  Biso   1.000  N
  C139     1.0000 0.05925  0.10076  0.06239  Biso   1.000  C
  H136     1.0000 0.02362  0.20090  0.13128  Biso   1.000  H
  C140     1.0000 0.11616  0.19622  0.24551  Biso   1.000  C
  N94      1.0000 0.21206  0.07852  0.26420  Biso   1.000  N
  H137     1.0000 0.27641  0.08788  0.35464  Biso   1.000  H
  H138     1.0000 0.25650  0.01679  0.34324  Biso   1.000  H
  C141     1.0000 0.13408  0.03330  0.08045  Biso   1.000  C
  C142     1.0000 0.17132  0.03590  0.22496  Biso   1.000  C
  N95      1.0000 0.10730  0.07649  0.11153  Biso   1.000  N
  H139     1.0000 0.03461  0.08990  0.09029  Biso   1.000  H
  H140     1.0000 0.04970  0.07909  0.00888  Biso   1.000  H
  N96      1.0000 0.14668  0.14371  0.23087  Biso   1.000  N
  H141     1.0000 0.08963  0.17851  0.26488  Biso   1.000  H
  H142     1.0000 0.13661  0.22368  0.28924  Biso   1.000  H
  C143     1.0000 0.19652  0.13961  0.27074  Biso   1.000  C
  O47      1.0000 0.12528  0.01771  0.00776  Biso   1.000  O
  C144     1.0000 0.12549  0.08156  0.20123  Biso   1.000  C
  H143     1.0000 0.16760  0.00188  0.26314  Biso   1.000  H
  O48      1.0000 0.22331  0.18439  0.30574  Biso   1.000  O
  H144     1.0000 0.10010  0.06838  0.22695  Biso   1.000  H
  O49      1.0000 0.55293  0.66745  0.90978  Biso   1.000  O
  C145     1.0000 0.55059  0.69622  0.97151  Biso   1.000  C
  N97      1.0000 0.54040  0.76050  0.97587  Biso   1.000  N
  N98      1.0000 0.55809  0.66943  0.04868  Biso   1.000  N
  C146     1.0000 0.51691  0.79761  0.90112  Biso   1.000  C
  C147     1.0000 0.53449  0.77758  0.05622  Biso   1.000  C
  C148     1.0000 0.54983  0.71547  0.10786  Biso   1.000  C
  C149     1.0000 0.55927  0.60071  0.06239  Biso   1.000  C
  N99      1.0000 0.54562  0.85378  0.89209  Biso   1.000  N
  H145     1.0000 0.48409  0.81150  0.90237  Biso   1.000  H
  H146     1.0000 0.51229  0.77000  0.85285  Biso   1.000  H
  N100     1.0000 0.56936  0.82482  0.10169  Biso   1.000  N
  H147     1.0000 0.49991  0.78979  0.05105  Biso   1.000  H
  N101     1.0000 0.59442  0.73473  0.17245  Biso   1.000  N
  H148     1.0000 0.52364  0.70090  0.13128  Biso   1.000  H
  N102     1.0000 0.60731  0.57649  0.11153  Biso   1.000  N
  H149     1.0000 0.53463  0.58990  0.09029  Biso   1.000  H
  H150     1.0000 0.54972  0.57909  0.00888  Biso   1.000  H
  C150     1.0000 0.54298  0.91410  0.93432  Biso   1.000  C
  C151     1.0000 0.55724  0.86425  0.81915  Biso   1.000  C
  C152     1.0000 0.60332  0.79949  0.17139  Biso   1.000  C
  C153     1.0000 0.56186  0.89359  0.08948  Biso   1.000  C
  C154     1.0000 0.61618  0.69622  0.24551  Biso   1.000  C
  C155     1.0000 0.63409  0.53330  0.08045  Biso   1.000  C
  C156     1.0000 0.62547  0.58156  0.20123  Biso   1.000  C
  H151     1.0000 0.50839  0.92559  0.93009  Biso   1.000  H
  C157     1.0000 0.56667  0.96337  0.88804  Biso   1.000  C
  N103     1.0000 0.57491  0.91796  0.01891  Biso   1.000  N
  N104     1.0000 0.56852  0.92805  0.81585  Biso   1.000  N
  O50      1.0000 0.55707  0.82396  0.76645  Biso   1.000  O
  O51      1.0000 0.63558  0.82960  0.22215  Biso   1.000  O
  H152     1.0000 0.58174  0.91569  0.13919  Biso   1.000  H
  H153     1.0000 0.52701  0.90339  0.08244  Biso   1.000  H
  N105     1.0000 0.64666  0.64366  0.23087  Biso   1.000  N
  H154     1.0000 0.58961  0.67851  0.26488  Biso   1.000  H
  H155     1.0000 0.63662  0.72368  0.28924  Biso   1.000  H
  N106     1.0000 0.67172  0.50956  0.14579  Biso   1.000  N
  O52      1.0000 0.62530  0.51771  0.00776  Biso   1.000  O
  C158     1.0000 0.67130  0.53590  0.22496  Biso   1.000  C
  H156     1.0000 0.60012  0.56838  0.22695  Biso   1.000  H
  N107     1.0000 0.61484  0.97626  0.94877  Biso   1.000  N
  H157     1.0000 0.54638  0.00261  0.87315  Biso   1.000  H
  C159     1.0000 0.61659  0.95493  0.02669  Biso   1.000  C
  C160     1.0000 0.58046  0.95628  0.74565  Biso   1.000  C
  C161     1.0000 0.69654  0.63961  0.27074  Biso   1.000  C
  C162     1.0000 0.70250  0.45546  0.13838  Biso   1.000  C
  N108     1.0000 0.71204  0.57852  0.26420  Biso   1.000  N
  H158     1.0000 0.66762  0.50188  0.26314  Biso   1.000  H
  C163     1.0000 0.64445  0.03166  0.94018  Biso   1.000  C
  O53      1.0000 0.64866  0.96656  0.09110  Biso   1.000  O
  N109     1.0000 0.63302  0.96670  0.75861  Biso   1.000  N
  H159     1.0000 0.56332  0.99730  0.73257  Biso   1.000  H
  H160     1.0000 0.56779  0.92829  0.69775  Biso   1.000  H
  O54      1.0000 0.72329  0.68439  0.30574  Biso   1.000  O
  N110     1.0000 0.75310  0.47293  0.14479  Biso   1.000  N
  H161     1.0000 0.70282  0.42438  0.18154  Biso   1.000  H
  H162     1.0000 0.68761  0.43471  0.08506  Biso   1.000  H
  C164     1.0000 0.76079  0.55545  0.31366  Biso   1.000  C
  N111     1.0000 0.67713  0.01858  0.89035  Biso   1.000  N
  H163     1.0000 0.66439  0.04560  0.99518  Biso   1.000  H
  H164     1.0000 0.62220  0.06679  0.91495  Biso   1.000  H
  C165     1.0000 0.65973  0.93258  0.71725  Biso   1.000  C
  C166     1.0000 0.65978  0.02263  0.80059  Biso   1.000  C
  C167     1.0000 0.77237  0.47177  0.07889  Biso   1.000  C
  C168     1.0000 0.79141  0.47920  0.22303  Biso   1.000  C
  N112     1.0000 0.79325  0.54121  0.26345  Biso   1.000  N
  H165     1.0000 0.77643  0.58788  0.35464  Biso   1.000  H
  H166     1.0000 0.75652  0.51679  0.34324  Biso   1.000  H
  C169     1.0000 0.72763  0.02823  0.92105  Biso   1.000  C
  N113     1.0000 0.70675  0.95879  0.73649  Biso   1.000  N
  O55      1.0000 0.64461  0.88664  0.67140  Biso   1.000  O
  H167     1.0000 0.64108  0.06249  0.78165  Biso   1.000  H
  C170     1.0000 0.70859  0.02080  0.77686  Biso   1.000  C
  N114     1.0000 0.82291  0.48142  0.10960  Biso   1.000  N
  O56      1.0000 0.74877  0.46328  0.00651  Biso   1.000  O
  C171     1.0000 0.84023  0.47737  0.19936  Biso   1.000  C
  H168     1.0000 0.79000  0.44378  0.26084  Biso   1.000  H
  C172     1.0000 0.84031  0.56742  0.28270  Biso   1.000  C
  N115     1.0000 0.74691  0.02707  0.85515  Biso   1.000  N
  O57      1.0000 0.75127  0.03672  0.99343  Biso   1.000  O
  C173     1.0000 0.73922  0.94455  0.68629  Biso   1.000  C
  H169     1.0000 0.70999  0.05622  0.73905  Biso   1.000  H
  C174     1.0000 0.85556  0.46829  0.05977  Biso   1.000  C
  N116     1.0000 0.86703  0.53330  0.24134  Biso   1.000  N
  H170     1.0000 0.85892  0.43751  0.21829  Biso   1.000  H
  O58      1.0000 0.85540  0.61336  0.32854  Biso   1.000  O
  C175     1.0000 0.79750  0.04454  0.86157  Biso   1.000  C
  N117     1.0000 0.78796  0.92148  0.73575  Biso   1.000  N
  H171     1.0000 0.72362  0.91207  0.64530  Biso   1.000  H
  H172     1.0000 0.74352  0.98321  0.65670  Biso   1.000  H
  N118     1.0000 0.88520  0.52374  0.05117  Biso   1.000  N
  H173     1.0000 0.83562  0.45440  0.00477  Biso   1.000  H
  H174     1.0000 0.87784  0.43321  0.08500  Biso   1.000  H
  C176     1.0000 0.91958  0.54372  0.25429  Biso   1.000  C
  N119     1.0000 0.82829  0.99040  0.85416  Biso   1.000  N
  H175     1.0000 0.79719  0.07562  0.81840  Biso   1.000  H
  H176     1.0000 0.81240  0.06529  0.91489  Biso   1.000  H
  C177     1.0000 0.82870  0.96410  0.77499  Biso   1.000  C
  C178     1.0000 0.80351  0.86039  0.72921  Biso   1.000  C
  C179     1.0000 0.88345  0.54507  0.97325  Biso   1.000  C
  C180     1.0000 0.93337  0.53663  0.11190  Biso   1.000  C
  N120     1.0000 0.93152  0.57195  0.18410  Biso   1.000  N
  H177     1.0000 0.93673  0.50270  0.26738  Biso   1.000  H
  H178     1.0000 0.93222  0.57171  0.30219  Biso   1.000  H
  C181     1.0000 0.86595  0.96670  0.91950  Biso   1.000  C
  H179     1.0000 0.83243  0.99812  0.73681  Biso   1.000  H
  C182     1.0000 0.87453  0.91844  0.79872  Biso   1.000  C
  N121     1.0000 0.85334  0.85629  0.76907  Biso   1.000  N
  O59      1.0000 0.77671  0.81561  0.69420  Biso   1.000  O
  N122     1.0000 0.92510  0.58204  0.98104  Biso   1.000  N
  O60      1.0000 0.85134  0.53344  0.90885  Biso   1.000  O
  C183     1.0000 0.95703  0.58590  0.06562  Biso   1.000  C
  H180     1.0000 0.95362  0.49739  0.12679  Biso   1.000  H
  C184     1.0000 0.94280  0.63575  0.18079  Biso   1.000  C
  N123     1.0000 0.89273  0.92351  0.88841  Biso   1.000  N
  O61      1.0000 0.87470  0.98229  0.99219  Biso   1.000  O
  H181     1.0000 0.89992  0.93162  0.77299  Biso   1.000  H
  C185     1.0000 0.88386  0.80378  0.75443  Biso   1.000  C
  C186     1.0000 0.93818  0.60641  0.91046  Biso   1.000  C
  N124     1.0000 0.95439  0.64617  0.10786  Biso   1.000  N
  H182     1.0000 0.99162  0.57441  0.06986  Biso   1.000  H
  O62      1.0000 0.94297  0.67600  0.23349  Biso   1.000  O
  C187     1.0000 0.94077  0.89924  0.93756  Biso   1.000  C
  N125     1.0000 0.90562  0.76523  0.82750  Biso   1.000  N
  H183     1.0000 0.91039  0.82149  0.73506  Biso   1.000  H
  H184     1.0000 0.86342  0.77628  0.71071  Biso   1.000  H
  N126     1.0000 0.93068  0.67518  0.89826  Biso   1.000  N
  H185     1.0000 0.91830  0.58431  0.86076  Biso   1.000  H
  H186     1.0000 0.97299  0.59661  0.91750  Biso   1.000  H
  C188     1.0000 0.98313  0.70239  0.09882  Biso   1.000  C
  N127     1.0000 0.94192  0.83052  0.95126  Biso   1.000  N
  H187     1.0000 0.96542  0.91010  0.90965  Biso   1.000  H
  H188     1.0000 0.95029  0.92091  0.99107  Biso   1.000  H
  C189     1.0000 0.89669  0.70051  0.82856  Biso   1.000  C
  C190     1.0000 0.95021  0.78453  0.89209  Biso   1.000  C
  C191     1.0000 0.96555  0.72242  0.94373  Biso   1.000  C
  N128     1.0000 0.95964  0.73950  0.02408  Biso   1.000  N
  H189     1.0000 0.98771  0.73000  0.14710  Biso   1.000  H
  H190     1.0000 0.01592  0.68850  0.09758  Biso   1.000  H
  C192     1.0000 0.94945  0.80378  0.02844  Biso   1.000  C
  O63      1.0000 0.86443  0.67040  0.77779  Biso   1.000  O
  H191     1.0000 0.97641  0.79910  0.86867  Biso   1.000  H
  H192     1.0000 0.00010  0.71021  0.94890  Biso   1.000  H
  O64      1.0000 0.94707  0.83255  0.09017  Biso   1.000  O
  Ne1      1.0000 0.25000  0.75000  0.49998  Biso   1.000  Ne
  He1      1.0000 0.29222  0.66884  0.65210  Biso   1.000  He
  He2      1.0000 0.20657  0.83309  0.34384  Biso   1.000  He
  Ar1      1.0000 0.25000  0.75000  0.49998  Biso   1.000  Ar
  Ne2      1.0000 0.75001  0.25000  0.49998  Biso   1.000  Ne
  He3      1.0000 0.79224  0.16884  0.65210  Biso   1.000  He
  He4      1.0000 0.70659  0.33309  0.34384  Biso   1.000  He
  Ar2      1.0000 0.75001  0.25000  0.49999  Biso   1.000  Ar
  Ne3      1.0000 0.25000  0.25000  0.99997  Biso   1.000  Ne
  He5      1.0000 0.29170  0.33025  0.15026  Biso   1.000  He
  He6      1.0000 0.19991  0.15615  0.82163  Biso   1.000  He
  Ar3      1.0000 0.25000  0.25000  0.99997  Biso   1.000  Ar
  Ne4      1.0000 0.75001  0.75000  0.99997  Biso   1.000  Ne
  He7      1.0000 0.79168  0.83025  0.15026  Biso   1.000  He
  He8      1.0000 0.69993  0.65615  0.82163  Biso   1.000  He
  Ar4      1.0000 0.75002  0.75000  0.99997  Biso   1.000  Ar
