data_image0
_cell_length_a       11.558
_cell_length_b       7.335
_cell_length_c       30.275
_cell_angle_alpha    90
_cell_angle_beta     99.99
_cell_angle_gamma    90

_symmetry_space_group_name_H-M    "P 1"
_symmetry_int_tables_number       1

loop_
  _symmetry_equiv_pos_as_xyz
  'x, y, z'

loop_
  _atom_site_label
  _atom_site_occupancy
  _atom_site_fract_x
  _atom_site_fract_y
  _atom_site_fract_z
  _atom_site_thermal_displace_type
  _atom_site_B_iso_or_equiv
  _atom_site_type_symbol
  O1       1.0000 0.98177  0.41881  0.42256  Biso   1.000  O
  C1       1.0000 0.91114  0.48507  0.38442  Biso   1.000  C
  H1       1.0000 0.94425  0.34656  0.43520  Biso   1.000  H
  C2       1.0000 0.95984  0.60818  0.35830  Biso   1.000  C
  C3       1.0000 0.79507  0.42863  0.37289  Biso   1.000  C
  C4       1.0000 0.08707  0.67376  0.37077  Biso   1.000  C
  C5       1.0000 0.88787  0.66967  0.31912  Biso   1.000  C
  C6       1.0000 0.72651  0.49393  0.33415  Biso   1.000  C
  H2       1.0000 0.76350  0.34710  0.39120  Biso   1.000  H
  C7       1.0000 0.16697  0.58132  0.34250  Biso   1.000  C
  H3       1.0000 0.11509  0.63599  0.40180  Biso   1.000  H
  C8       1.0000 0.09588  0.88085  0.37017  Biso   1.000  C
  H4       1.0000 0.91952  0.75092  0.30081  Biso   1.000  H
  C9       1.0000 0.77121  0.61568  0.30611  Biso   1.000  C
  O2       1.0000 0.61205  0.44008  0.32181  Biso   1.000  O
  C10      1.0000 0.20816  0.40504  0.35223  Biso   1.000  C
  C11      1.0000 0.20048  0.66462  0.30544  Biso   1.000  C
  H5       1.0000 0.17665  0.91670  0.37809  Biso   1.000  H
  H6       1.0000 0.05175  0.93142  0.39130  Biso   1.000  H
  H7       1.0000 0.06466  0.92515  0.34069  Biso   1.000  H
  C12      1.0000 0.69659  0.68398  0.26241  Biso   1.000  C
  H8       1.0000 0.59489  0.36837  0.34039  Biso   1.000  H
  C13      1.0000 0.27870  0.32134  0.32583  Biso   1.000  C
  O3       1.0000 0.18126  0.30429  0.38728  Biso   1.000  O
  C14      1.0000 0.27196  0.58609  0.27824  Biso   1.000  C
  H9       1.0000 0.17275  0.78200  0.29830  Biso   1.000  H
  C15      1.0000 0.72813  0.58609  0.22176  Biso   1.000  C
  H10      1.0000 0.61502  0.65099  0.26378  Biso   1.000  H
  C16      1.0000 0.69992  0.89148  0.25869  Biso   1.000  C
  C17      1.0000 0.31030  0.40845  0.28951  Biso   1.000  C
  H11      1.0000 0.30558  0.20341  0.33281  Biso   1.000  H
  H12      1.0000 0.13886  0.36414  0.40079  Biso   1.000  H
  C18      1.0000 0.30341  0.68398  0.23759  Biso   1.000  C
  C19      1.0000 0.79960  0.66462  0.19456  Biso   1.000  C
  C20      1.0000 0.68970  0.40845  0.21049  Biso   1.000  C
  H13      1.0000 0.77719  0.92952  0.25510  Biso   1.000  H
  H14      1.0000 0.68057  0.94492  0.28542  Biso   1.000  H
  H15      1.0000 0.64395  0.93033  0.23320  Biso   1.000  H
  O4       1.0000 0.38014  0.31084  0.26573  Biso   1.000  O
  C21      1.0000 0.22879  0.61568  0.19389  Biso   1.000  C
  H16      1.0000 0.38507  0.65099  0.23622  Biso   1.000  H
  C22      1.0000 0.30017  0.89148  0.24131  Biso   1.000  C
  C23      1.0000 0.83312  0.58132  0.15750  Biso   1.000  C
  H17      1.0000 0.82734  0.78200  0.20170  Biso   1.000  H
  C24      1.0000 0.72130  0.32134  0.17417  Biso   1.000  C
  O5       1.0000 0.61986  0.31084  0.23427  Biso   1.000  O
  H18      1.0000 0.39451  0.37273  0.24480  Biso   1.000  H
  C25      1.0000 0.27349  0.49393  0.16585  Biso   1.000  C
  C26      1.0000 0.11221  0.66967  0.18088  Biso   1.000  C
  H19      1.0000 0.22281  0.92952  0.24490  Biso   1.000  H
  H20      1.0000 0.31953  0.94492  0.21462  Biso   1.000  H
  H21      1.0000 0.35614  0.93033  0.26680  Biso   1.000  H
  C27      1.0000 0.91302  0.67376  0.12923  Biso   1.000  C
  C28      1.0000 0.79193  0.40504  0.14777  Biso   1.000  C
  H22      1.0000 0.69451  0.20341  0.16719  Biso   1.000  H
  H23      1.0000 0.60549  0.37273  0.25520  Biso   1.000  H
  O6       1.0000 0.38805  0.44008  0.17823  Biso   1.000  O
  C29      1.0000 0.20502  0.42863  0.12711  Biso   1.000  C
  C30      1.0000 0.04025  0.60818  0.14170  Biso   1.000  C
  H24      1.0000 0.08056  0.75092  0.19919  Biso   1.000  H
  H25      1.0000 0.88499  0.63599  0.09820  Biso   1.000  H
  C31      1.0000 0.90421  0.88085  0.12983  Biso   1.000  C
  O7       1.0000 0.81874  0.30429  0.11272  Biso   1.000  O
  H26      1.0000 0.40511  0.36837  0.15961  Biso   1.000  H
  H27      1.0000 0.23650  0.34710  0.10880  Biso   1.000  H
  C32      1.0000 0.08894  0.48507  0.11558  Biso   1.000  C
  H28      1.0000 0.82344  0.91670  0.12191  Biso   1.000  H
  H29      1.0000 0.94834  0.93142  0.10870  Biso   1.000  H
  H30      1.0000 0.93543  0.92515  0.15931  Biso   1.000  H
  H31      1.0000 0.86123  0.36414  0.09921  Biso   1.000  H
  O8       1.0000 0.01832  0.41881  0.07744  Biso   1.000  O
  H32      1.0000 0.05583  0.34656  0.06480  Biso   1.000  H
  O9       1.0000 0.01840  0.58105  0.57744  Biso   1.000  O
  H33      1.0000 0.05583  0.65331  0.56480  Biso   1.000  H
  C33      1.0000 0.08894  0.51493  0.61558  Biso   1.000  C
  C34      1.0000 0.20510  0.57137  0.62711  Biso   1.000  C
  C35      1.0000 0.04025  0.39182  0.64170  Biso   1.000  C
  C36      1.0000 0.27358  0.50607  0.66585  Biso   1.000  C
  H34      1.0000 0.23658  0.65290  0.60880  Biso   1.000  H
  C37      1.0000 0.11230  0.33033  0.68088  Biso   1.000  C
  C38      1.0000 0.91311  0.32624  0.62923  Biso   1.000  C
  O10      1.0000 0.38813  0.55992  0.67823  Biso   1.000  O
  C39      1.0000 0.22887  0.38432  0.69389  Biso   1.000  C
  H35      1.0000 0.08056  0.24908  0.69919  Biso   1.000  H
  C40      1.0000 0.83321  0.41854  0.65750  Biso   1.000  C
  H36      1.0000 0.88508  0.36401  0.59820  Biso   1.000  H
  C41      1.0000 0.90430  0.11915  0.62983  Biso   1.000  C
  H37      1.0000 0.40520  0.63163  0.65961  Biso   1.000  H
  C42      1.0000 0.30350  0.31602  0.73759  Biso   1.000  C
  C43      1.0000 0.79201  0.59482  0.64777  Biso   1.000  C
  C44      1.0000 0.79969  0.33524  0.69456  Biso   1.000  C
  H38      1.0000 0.82344  0.08330  0.62191  Biso   1.000  H
  H39      1.0000 0.94834  0.06844  0.60870  Biso   1.000  H
  H40      1.0000 0.93552  0.07485  0.65931  Biso   1.000  H
  C45      1.0000 0.27196  0.41391  0.77824  Biso   1.000  C
  H41      1.0000 0.38507  0.34901  0.73622  Biso   1.000  H
  C46      1.0000 0.30017  0.10852  0.74131  Biso   1.000  C
  O11      1.0000 0.81883  0.69571  0.61273  Biso   1.000  O
  C47      1.0000 0.72138  0.67866  0.67417  Biso   1.000  C
  C48      1.0000 0.72821  0.41391  0.72176  Biso   1.000  C
  H42      1.0000 0.82742  0.21800  0.70170  Biso   1.000  H
  C49      1.0000 0.31039  0.59141  0.78951  Biso   1.000  C
  C50      1.0000 0.20048  0.33524  0.80544  Biso   1.000  C
  H43      1.0000 0.22290  0.07035  0.74490  Biso   1.000  H
  H44      1.0000 0.31962  0.05494  0.71462  Biso   1.000  H
  H45      1.0000 0.35623  0.06953  0.76680  Biso   1.000  H
  H46      1.0000 0.86131  0.63572  0.59921  Biso   1.000  H
  H47      1.0000 0.69459  0.79659  0.66719  Biso   1.000  H
  C51      1.0000 0.68978  0.59141  0.71049  Biso   1.000  C
  C52      1.0000 0.69668  0.31602  0.76241  Biso   1.000  C
  O12      1.0000 0.38022  0.68916  0.76573  Biso   1.000  O
  C53      1.0000 0.27879  0.67866  0.82583  Biso   1.000  C
  H48      1.0000 0.17284  0.21800  0.79830  Biso   1.000  H
  C54      1.0000 0.16705  0.41854  0.84250  Biso   1.000  C
  O13      1.0000 0.61995  0.68916  0.73427  Biso   1.000  O
  C55      1.0000 0.77130  0.38432  0.80611  Biso   1.000  C
  H49      1.0000 0.61511  0.34901  0.76379  Biso   1.000  H
  C56      1.0000 0.70000  0.10852  0.75869  Biso   1.000  C
  H50      1.0000 0.39459  0.62727  0.74480  Biso   1.000  H
  C57      1.0000 0.20825  0.59482  0.85223  Biso   1.000  C
  H51      1.0000 0.30558  0.79659  0.83281  Biso   1.000  H
  C58      1.0000 0.08715  0.32624  0.87077  Biso   1.000  C
  H52      1.0000 0.60558  0.62727  0.75520  Biso   1.000  H
  C59      1.0000 0.72659  0.50607  0.83415  Biso   1.000  C
  C60      1.0000 0.88787  0.33033  0.81912  Biso   1.000  C
  H53      1.0000 0.77728  0.07035  0.75510  Biso   1.000  H
  H54      1.0000 0.68057  0.05494  0.78542  Biso   1.000  H
  H55      1.0000 0.64395  0.06953  0.73320  Biso   1.000  H
  O14      1.0000 0.18134  0.69571  0.88728  Biso   1.000  O
  H56      1.0000 0.11509  0.36401  0.90180  Biso   1.000  H
  C61      1.0000 0.09596  0.11915  0.87017  Biso   1.000  C
  C62      1.0000 0.95992  0.39182  0.85830  Biso   1.000  C
  O15      1.0000 0.61214  0.55992  0.82181  Biso   1.000  O
  C63      1.0000 0.79507  0.57137  0.87289  Biso   1.000  C
  H57      1.0000 0.91961  0.24908  0.80081  Biso   1.000  H
  H58      1.0000 0.13895  0.63572  0.90079  Biso   1.000  H
  H59      1.0000 0.17674  0.08330  0.87809  Biso   1.000  H
  H60      1.0000 0.05183  0.06844  0.89130  Biso   1.000  H
  H61      1.0000 0.06474  0.07485  0.84069  Biso   1.000  H
  C64      1.0000 0.91123  0.51493  0.88443  Biso   1.000  C
  H62      1.0000 0.59497  0.63163  0.84039  Biso   1.000  H
  H63      1.0000 0.76359  0.65290  0.89120  Biso   1.000  H
  O16      1.0000 0.98185  0.58105  0.92256  Biso   1.000  O
  H64      1.0000 0.94434  0.65331  0.93520  Biso   1.000  H
