data_image0
_cell_length_a       13.275
_cell_length_b       14.059
_cell_length_c       18.286
_cell_angle_alpha    73.18
_cell_angle_beta     85.91
_cell_angle_gamma    66.5

_symmetry_space_group_name_H-M    "P 1"
_symmetry_int_tables_number       1

loop_
  _symmetry_equiv_pos_as_xyz
  'x, y, z'

loop_
  _atom_site_label
  _atom_site_occupancy
  _atom_site_fract_x
  _atom_site_fract_y
  _atom_site_fract_z
  _atom_site_thermal_displace_type
  _atom_site_B_iso_or_equiv
  _atom_site_type_symbol
  C1       1.0000 0.55118  0.63454  0.44378  Biso   1.000  C
  C2       1.0000 0.67080  0.55346  0.46037  Biso   1.000  C
  H1       1.0000 0.53977  0.66998  0.38921  Biso   1.000  H
  H2       1.0000 0.50387  0.59500  0.45739  Biso   1.000  H
  C3       1.0000 0.51525  0.72168  0.48560  Biso   1.000  C
  C4       1.0000 0.70531  0.46617  0.41913  Biso   1.000  C
  C5       1.0000 0.75082  0.61025  0.44458  Biso   1.000  C
  H3       1.0000 0.67899  0.51595  0.51528  Biso   1.000  H
  H4       1.0000 0.56094  0.76397  0.46901  Biso   1.000  H
  C6       1.0000 0.39665  0.79847  0.46329  Biso   1.000  C
  C7       1.0000 0.53239  0.67476  0.57111  Biso   1.000  C
  C8       1.0000 0.65530  0.47995  0.35060  Biso   1.000  C
  C9       1.0000 0.79269  0.36784  0.44927  Biso   1.000  C
  C10      1.0000 0.83156  0.58789  0.49864  Biso   1.000  C
  C11      1.0000 0.74449  0.68765  0.37559  Biso   1.000  C
  H5       1.0000 0.37712  0.85584  0.48680  Biso   1.000  H
  H6       1.0000 0.38797  0.82832  0.40871  Biso   1.000  H
  H7       1.0000 0.34975  0.75988  0.48010  Biso   1.000  H
  H8       1.0000 0.48875  0.63299  0.58908  Biso   1.000  H
  H9       1.0000 0.60865  0.62903  0.58410  Biso   1.000  H
  H10      1.0000 0.51065  0.73236  0.59462  Biso   1.000  H
  C12      1.0000 0.68905  0.40196  0.31090  Biso   1.000  C
  H11      1.0000 0.59599  0.54477  0.32989  Biso   1.000  H
  C13      1.0000 0.82978  0.28885  0.41129  Biso   1.000  C
  O1       1.0000 0.84758  0.34152  0.51814  Biso   1.000  O
  O2       1.0000 0.84029  0.50923  0.56614  Biso   1.000  O
  C14      1.0000 0.90087  0.64240  0.48428  Biso   1.000  C
  C15      1.0000 0.81076  0.74496  0.35946  Biso   1.000  C
  H12      1.0000 0.69259  0.70155  0.33807  Biso   1.000  H
  C16      1.0000 0.63199  0.41799  0.23619  Biso   1.000  C
  C17      1.0000 0.77987  0.30598  0.34270  Biso   1.000  C
  H13      1.0000 0.88885  0.22399  0.43228  Biso   1.000  H
  H14      1.0000 0.82054  0.39207  0.53702  Biso   1.000  H
  H15      1.0000 0.89140  0.50126  0.59319  Biso   1.000  H
  H16      1.0000 0.95458  0.62672  0.52100  Biso   1.000  H
  C18      1.0000 0.89046  0.71983  0.41541  Biso   1.000  C
  C19      1.0000 0.79727  0.83128  0.28298  Biso   1.000  C
  C20      1.0000 0.51066  0.49290  0.22681  Biso   1.000  C
  C21      1.0000 0.69528  0.45168  0.16789  Biso   1.000  C
  H17      1.0000 0.63598  0.34701  0.23699  Biso   1.000  H
  O3       1.0000 0.82437  0.22419  0.30878  Biso   1.000  O
  O4       1.0000 0.95891  0.77517  0.39859  Biso   1.000  O
  C22      1.0000 0.84365  0.77672  0.22023  Biso   1.000  C
  H18      1.0000 0.84297  0.86897  0.28762  Biso   1.000  H
  C23      1.0000 0.67919  0.91554  0.26697  Biso   1.000  C
  C24      1.0000 0.45027  0.49034  0.16011  Biso   1.000  C
  H19      1.0000 0.47534  0.47270  0.27360  Biso   1.000  H
  H20      1.0000 0.50408  0.56641  0.21937  Biso   1.000  H
  C25      1.0000 0.75548  0.38098  0.12590  Biso   1.000  C
  C26      1.0000 0.69426  0.55634  0.14398  Biso   1.000  C
  H21      1.0000 0.79007  0.24115  0.26828  Biso   1.000  H
  H22      1.0000 0.00358  0.75359  0.43457  Biso   1.000  H
  C27      1.0000 0.77669  0.76701  0.16989  Biso   1.000  C
  C28      1.0000 0.95688  0.73190  0.21194  Biso   1.000  C
  H23      1.0000 0.67336  0.96519  0.21640  Biso   1.000  H
  H24      1.0000 0.63084  0.87909  0.26639  Biso   1.000  H
  C29      1.0000 0.63912  0.98093  0.32480  Biso   1.000  C
  C30      1.0000 0.45160  0.38451  0.16520  Biso   1.000  C
  H25      1.0000 0.48495  0.51301  0.11298  Biso   1.000  H
  C31      1.0000 0.33027  0.57301  0.15439  Biso   1.000  C
  O5       1.0000 0.76143  0.27719  0.15187  Biso   1.000  O
  C32      1.0000 0.80852  0.41459  0.06184  Biso   1.000  C
  H26      1.0000 0.65698  0.60370  0.17270  Biso   1.000  H
  C33      1.0000 0.74556  0.59274  0.08031  Biso   1.000  C
  C34      1.0000 0.81609  0.71711  0.11212  Biso   1.000  C
  H27      1.0000 0.70105  0.79558  0.17521  Biso   1.000  H
  C35      1.0000 0.99884  0.68120  0.15536  Biso   1.000  C
  O6       1.0000 0.03280  0.73608  0.25615  Biso   1.000  O
  H28      1.0000 0.65599  0.92995  0.37599  Biso   1.000  H
  C36      1.0000 0.69559  0.05485  0.31942  Biso   1.000  C
  C37      1.0000 0.51529  0.04359  0.31599  Biso   1.000  C
  H29      1.0000 0.42821  0.35546  0.21451  Biso   1.000  H
  H30      1.0000 0.40260  0.39156  0.12602  Biso   1.000  H
  H31      1.0000 0.52482  0.33644  0.15862  Biso   1.000  H
  H32      1.0000 0.29891  0.56059  0.20341  Biso   1.000  H
  H33      1.0000 0.32868  0.64484  0.13860  Biso   1.000  H
  H34      1.0000 0.28871  0.56478  0.11749  Biso   1.000  H
  H35      1.0000 0.79967  0.24180  0.12407  Biso   1.000  H
  C38      1.0000 0.80191  0.51988  0.03924  Biso   1.000  C
  H36      1.0000 0.84825  0.36671  0.03421  Biso   1.000  H
  C39      1.0000 0.74185  0.70705  0.05766  Biso   1.000  C
  C40      1.0000 0.92975  0.67346  0.10668  Biso   1.000  C
  H37      1.0000 0.07450  0.65218  0.15021  Biso   1.000  H
  H38      1.0000 0.00136  0.76748  0.28790  Biso   1.000  H
  H39      1.0000 0.68158  0.10506  0.26920  Biso   1.000  H
  H40      1.0000 0.66834  0.09391  0.35677  Biso   1.000  H
  H41      1.0000 0.77327  0.01337  0.32880  Biso   1.000  H
  H42      1.0000 0.48022  0.99517  0.31759  Biso   1.000  H
  H43      1.0000 0.49645  0.09902  0.26800  Biso   1.000  H
  H44      1.0000 0.49097  0.07629  0.35700  Biso   1.000  H
  O7       1.0000 0.85401  0.55567  0.97535  Biso   1.000  O
  H45      1.0000 0.77397  0.71796  0.00738  Biso   1.000  H
  C41      1.0000 0.62462  0.79258  0.04754  Biso   1.000  C
  O8       1.0000 0.97957  0.62197  0.05246  Biso   1.000  O
  H46      1.0000 0.88434  0.50688  0.95538  Biso   1.000  H
  H47      1.0000 0.58813  0.77947  0.09501  Biso   1.000  H
  H48      1.0000 0.62723  0.86314  0.03741  Biso   1.000  H
  C42      1.0000 0.55649  0.79443  0.98318  Biso   1.000  C
  H49      1.0000 0.93247  0.62159  0.02591  Biso   1.000  H
  H50      1.0000 0.56294  0.71993  0.98999  Biso   1.000  H
  C43      1.0000 0.59688  0.83360  0.90590  Biso   1.000  C
  C44      1.0000 0.43721  0.86352  0.98707  Biso   1.000  C
  H51      1.0000 0.58439  0.90842  0.89618  Biso   1.000  H
  H52      1.0000 0.67418  0.79165  0.90510  Biso   1.000  H
  H53      1.0000 0.55787  0.82581  0.86717  Biso   1.000  H
  H54      1.0000 0.42063  0.86116  0.03941  Biso   1.000  H
  H55      1.0000 0.42226  0.93681  0.95767  Biso   1.000  H
  H56      1.0000 0.39255  0.83685  0.96665  Biso   1.000  H
  C45      1.0000 0.44875  0.36539  0.55624  Biso   1.000  C
  C46      1.0000 0.48468  0.27828  0.51437  Biso   1.000  C
  C47      1.0000 0.32921  0.44647  0.53965  Biso   1.000  C
  H57      1.0000 0.46016  0.32995  0.61081  Biso   1.000  H
  H58      1.0000 0.49606  0.40496  0.54257  Biso   1.000  H
  C48      1.0000 0.46755  0.32518  0.42891  Biso   1.000  C
  H59      1.0000 0.43899  0.23596  0.53101  Biso   1.000  H
  C49      1.0000 0.60328  0.20149  0.53668  Biso   1.000  C
  C50      1.0000 0.29470  0.53378  0.58084  Biso   1.000  C
  C51      1.0000 0.24919  0.38971  0.55538  Biso   1.000  C
  H60      1.0000 0.32094  0.48401  0.48468  Biso   1.000  H
  H61      1.0000 0.51118  0.36696  0.41089  Biso   1.000  H
  H62      1.0000 0.39128  0.37090  0.41592  Biso   1.000  H
  H63      1.0000 0.48929  0.26757  0.40540  Biso   1.000  H
  H64      1.0000 0.62289  0.14409  0.51322  Biso   1.000  H
  H65      1.0000 0.61196  0.17161  0.59131  Biso   1.000  H
  H66      1.0000 0.65018  0.24005  0.51992  Biso   1.000  H
  C52      1.0000 0.20724  0.63209  0.55075  Biso   1.000  C
  C53      1.0000 0.34463  0.52001  0.64937  Biso   1.000  C
  C54      1.0000 0.16838  0.41204  0.50138  Biso   1.000  C
  C55      1.0000 0.25551  0.31228  0.62443  Biso   1.000  C
  O9       1.0000 0.15243  0.65841  0.48188  Biso   1.000  O
  C56      1.0000 0.17016  0.71108  0.58873  Biso   1.000  C
  H67      1.0000 0.40394  0.45519  0.67007  Biso   1.000  H
  C57      1.0000 0.31088  0.59797  0.68912  Biso   1.000  C
  O10      1.0000 0.15964  0.49070  0.43388  Biso   1.000  O
  C58      1.0000 0.09906  0.35754  0.51574  Biso   1.000  C
  C59      1.0000 0.18917  0.25497  0.64056  Biso   1.000  C
  H68      1.0000 0.30734  0.29840  0.66189  Biso   1.000  H
  H69      1.0000 0.17940  0.60786  0.46300  Biso   1.000  H
  C60      1.0000 0.22007  0.69395  0.65732  Biso   1.000  C
  H70      1.0000 0.11108  0.77596  0.56768  Biso   1.000  H
  C61      1.0000 0.36794  0.58196  0.76377  Biso   1.000  C
  H71      1.0000 0.10861  0.49870  0.40677  Biso   1.000  H
  H72      1.0000 0.04538  0.37313  0.47902  Biso   1.000  H
  C62      1.0000 0.10947  0.28010  0.58461  Biso   1.000  C
  C63      1.0000 0.20266  0.16865  0.71704  Biso   1.000  C
  O11      1.0000 0.17564  0.77577  0.69118  Biso   1.000  O
  C64      1.0000 0.30465  0.54825  0.83213  Biso   1.000  C
  H73      1.0000 0.36395  0.65295  0.76297  Biso   1.000  H
  C65      1.0000 0.48928  0.50703  0.77321  Biso   1.000  C
  O12      1.0000 0.04102  0.22476  0.60143  Biso   1.000  O
  C66      1.0000 0.15628  0.22324  0.77973  Biso   1.000  C
  H74      1.0000 0.15696  0.13096  0.71240  Biso   1.000  H
  C67      1.0000 0.32074  0.08441  0.73300  Biso   1.000  C
  H75      1.0000 0.20989  0.75872  0.73168  Biso   1.000  H
  C68      1.0000 0.24445  0.61895  0.87412  Biso   1.000  C
  C69      1.0000 0.30574  0.44361  0.85598  Biso   1.000  C
  H76      1.0000 0.52459  0.52723  0.72642  Biso   1.000  H
  H77      1.0000 0.49585  0.43355  0.78059  Biso   1.000  H
  C70      1.0000 0.54967  0.50959  0.83991  Biso   1.000  C
  H78      1.0000 0.99635  0.24636  0.56539  Biso   1.000  H
  C71      1.0000 0.04306  0.26803  0.78808  Biso   1.000  C
  C72      1.0000 0.22324  0.23294  0.83007  Biso   1.000  C
  H79      1.0000 0.32657  0.03474  0.78362  Biso   1.000  H
  H80      1.0000 0.36909  0.12087  0.73357  Biso   1.000  H
  C73      1.0000 0.36089  0.01900  0.67522  Biso   1.000  C
  O13      1.0000 0.23858  0.72274  0.84815  Biso   1.000  O
  C74      1.0000 0.19148  0.58537  0.93813  Biso   1.000  C
  H81      1.0000 0.34295  0.39625  0.82727  Biso   1.000  H
  C75      1.0000 0.25437  0.40722  0.91965  Biso   1.000  C
  H82      1.0000 0.51498  0.48695  0.88699  Biso   1.000  H
  C76      1.0000 0.54841  0.61542  0.83482  Biso   1.000  C
  C77      1.0000 0.66966  0.42695  0.84557  Biso   1.000  C
  C78      1.0000 0.00109  0.31876  0.84460  Biso   1.000  C
  O14      1.0000 0.96713  0.26387  0.74381  Biso   1.000  O
  C79      1.0000 0.18384  0.28284  0.88785  Biso   1.000  C
  H83      1.0000 0.29888  0.20435  0.82481  Biso   1.000  H
  H84      1.0000 0.34394  0.07001  0.62397  Biso   1.000  H
  C80      1.0000 0.30438  0.94501  0.68060  Biso   1.000  C
  C81      1.0000 0.48464  0.95636  0.68397  Biso   1.000  C
  H85      1.0000 0.20026  0.75816  0.87589  Biso   1.000  H
  C82      1.0000 0.19802  0.48007  0.96072  Biso   1.000  C
  H86      1.0000 0.15168  0.63322  0.96581  Biso   1.000  H
  C83      1.0000 0.25808  0.29288  0.94236  Biso   1.000  C
  H87      1.0000 0.57172  0.64447  0.78551  Biso   1.000  H
  H88      1.0000 0.59733  0.60837  0.87400  Biso   1.000  H
  H89      1.0000 0.47514  0.66341  0.84140  Biso   1.000  H
  H90      1.0000 0.70110  0.43934  0.79661  Biso   1.000  H
  H91      1.0000 0.67128  0.35502  0.86142  Biso   1.000  H
  H92      1.0000 0.71122  0.43517  0.88247  Biso   1.000  H
  C84      1.0000 0.07019  0.32647  0.89334  Biso   1.000  C
  H93      1.0000 0.92543  0.34776  0.84981  Biso   1.000  H
  H94      1.0000 0.99858  0.23245  0.71212  Biso   1.000  H
  H95      1.0000 0.31838  0.89482  0.73077  Biso   1.000  H
  H96      1.0000 0.33159  0.90604  0.64319  Biso   1.000  H
  H97      1.0000 0.22666  0.98656  0.67122  Biso   1.000  H
  H98      1.0000 0.51979  0.00479  0.68237  Biso   1.000  H
  H99      1.0000 0.50348  0.90093  0.73197  Biso   1.000  H
  H100     1.0000 0.50896  0.92364  0.64302  Biso   1.000  H
  O15      1.0000 0.14599  0.44426  0.02468  Biso   1.000  O
  H101     1.0000 0.22596  0.28200  0.99258  Biso   1.000  H
  C85      1.0000 0.37539  0.20735  0.95249  Biso   1.000  C
  O16      1.0000 0.02036  0.37798  0.94751  Biso   1.000  O
  H102     1.0000 0.11559  0.49306  0.04464  Biso   1.000  H
  H103     1.0000 0.41188  0.22046  0.90501  Biso   1.000  H
  H104     1.0000 0.37281  0.13672  0.96261  Biso   1.000  H
  C86      1.0000 0.44345  0.20551  0.01684  Biso   1.000  C
  H105     1.0000 0.06746  0.37834  0.97411  Biso   1.000  H
  H106     1.0000 0.43699  0.28000  0.01003  Biso   1.000  H
  C87      1.0000 0.40306  0.16633  0.09412  Biso   1.000  C
  C88      1.0000 0.56280  0.13642  0.01295  Biso   1.000  C
  H107     1.0000 0.41554  0.09152  0.10384  Biso   1.000  H
  H108     1.0000 0.32575  0.20828  0.09492  Biso   1.000  H
  H109     1.0000 0.44209  0.17405  0.13285  Biso   1.000  H
  H110     1.0000 0.57938  0.13877  0.96061  Biso   1.000  H
  H111     1.0000 0.57767  0.06315  0.04229  Biso   1.000  H
  H112     1.0000 0.60738  0.16310  0.03331  Biso   1.000  H
