data_image0
_cell_length_a       17.416
_cell_length_b       9.225
_cell_length_c       19.609
_cell_angle_alpha    90
_cell_angle_beta     93.52
_cell_angle_gamma    90

_symmetry_space_group_name_H-M    "P 1"
_symmetry_int_tables_number       1

loop_
  _symmetry_equiv_pos_as_xyz
  'x, y, z'

loop_
  _atom_site_label
  _atom_site_occupancy
  _atom_site_fract_x
  _atom_site_fract_y
  _atom_site_fract_z
  _atom_site_thermal_displace_type
  _atom_site_B_iso_or_equiv
  _atom_site_type_symbol
  C1       1.0000 0.52128  0.61680  0.41089  Biso   1.000  C
  C2       1.0000 0.45387  0.66211  0.42162  Biso   1.000  C
  C3       1.0000 0.45287  0.66678  0.37058  Biso   1.000  C
  C4       1.0000 0.37969  0.58038  0.39265  Biso   1.000  C
  C5       1.0000 0.43487  0.82407  0.42341  Biso   1.000  C
  C6       1.0000 0.52219  0.63870  0.37743  Biso   1.000  C
  C7       1.0000 0.43361  0.83220  0.37441  Biso   1.000  C
  C8       1.0000 0.38766  0.41355  0.39413  Biso   1.000  C
  H1       1.0000 0.32900  0.62678  0.39199  Biso   1.000  H
  C9       1.0000 0.42269  0.35154  0.33103  Biso   1.000  C
  C10      1.0000 0.31132  0.33832  0.40619  Biso   1.000  C
  H2       1.0000 0.42310  0.38992  0.43332  Biso   1.000  H
  C11      1.0000 0.40047  0.39935  0.26543  Biso   1.000  C
  C12      1.0000 0.47832  0.24195  0.33681  Biso   1.000  C
  C13      1.0000 0.30841  0.21171  0.44456  Biso   1.000  C
  C14      1.0000 0.24136  0.39393  0.37916  Biso   1.000  C
  H3       1.0000 0.36317  0.47165  0.26078  Biso   1.000  H
  C15      1.0000 0.43065  0.34558  0.20611  Biso   1.000  C
  O1       1.0000 0.50171  0.19393  0.40098  Biso   1.000  O
  C16      1.0000 0.50871  0.18266  0.27887  Biso   1.000  C
  O2       1.0000 0.37347  0.14547  0.47456  Biso   1.000  O
  C17      1.0000 0.23879  0.14580  0.45586  Biso   1.000  C
  H4       1.0000 0.24238  0.47577  0.35162  Biso   1.000  H
  C18      1.0000 0.16972  0.33366  0.39112  Biso   1.000  C
  C19      1.0000 0.48438  0.23274  0.21423  Biso   1.000  C
  C20      1.0000 0.40527  0.40499  0.13555  Biso   1.000  C
  H5       1.0000 0.53389  0.12976  0.39802  Biso   1.000  H
  H6       1.0000 0.54537  0.10949  0.28341  Biso   1.000  H
  H7       1.0000 0.41030  0.16173  0.45161  Biso   1.000  H
  C21      1.0000 0.17005  0.20629  0.42985  Biso   1.000  C
  H8       1.0000 0.23806  0.06038  0.48099  Biso   1.000  H
  C22      1.0000 0.09473  0.40499  0.36445  Biso   1.000  C
  O3       1.0000 0.51243  0.17247  0.15660  Biso   1.000  O
  C23      1.0000 0.33028  0.33366  0.10888  Biso   1.000  C
  H9       1.0000 0.44470  0.37680  0.10459  Biso   1.000  H
  C24      1.0000 0.40166  0.57214  0.13489  Biso   1.000  C
  O4       1.0000 0.10387  0.13854  0.44686  Biso   1.000  O
  C25      1.0000 0.06935  0.34558  0.29389  Biso   1.000  C
  H10      1.0000 0.05530  0.37680  0.39541  Biso   1.000  H
  C26      1.0000 0.09833  0.57214  0.36511  Biso   1.000  C
  H11      1.0000 0.54323  0.10808  0.16769  Biso   1.000  H
  C27      1.0000 0.32995  0.20629  0.07015  Biso   1.000  C
  C28      1.0000 0.25864  0.39393  0.12084  Biso   1.000  C
  H12      1.0000 0.45127  0.60976  0.15149  Biso   1.000  H
  H13      1.0000 0.36411  0.60325  0.16641  Biso   1.000  H
  C29      1.0000 0.38020  0.63978  0.06366  Biso   1.000  C
  H14      1.0000 0.07039  0.14959  0.41610  Biso   1.000  H
  C30      1.0000 0.09953  0.39935  0.23457  Biso   1.000  C
  C31      1.0000 0.01562  0.23274  0.28577  Biso   1.000  C
  H15      1.0000 0.04867  0.60976  0.34851  Biso   1.000  H
  H16      1.0000 0.13589  0.60325  0.33359  Biso   1.000  H
  C32      1.0000 0.11979  0.63978  0.43634  Biso   1.000  C
  O5       1.0000 0.39613  0.13854  0.05314  Biso   1.000  O
  C33      1.0000 0.26121  0.14580  0.04414  Biso   1.000  C
  C34      1.0000 0.18862  0.33832  0.09381  Biso   1.000  C
  H17      1.0000 0.25762  0.47577  0.14843  Biso   1.000  H
  C35      1.0000 0.43000  0.61322  0.01150  Biso   1.000  C
  C36      1.0000 0.38531  0.81344  0.07439  Biso   1.000  C
  C37      1.0000 0.45989  0.70894  0.04021  Biso   1.000  C
  C38      1.0000 0.33871  0.78027  0.07138  Biso   1.000  C
  C39      1.0000 0.07731  0.35154  0.16897  Biso   1.000  C
  H18      1.0000 0.13677  0.47165  0.23922  Biso   1.000  H
  O6       1.0000 0.98756  0.17247  0.34340  Biso   1.000  O
  C40      1.0000 0.99129  0.18266  0.22113  Biso   1.000  C
  C41      1.0000 0.07000  0.61322  0.48850  Biso   1.000  C
  C42      1.0000 0.11469  0.81344  0.42561  Biso   1.000  C
  C43      1.0000 0.04011  0.70894  0.45979  Biso   1.000  C
  C44      1.0000 0.16129  0.78027  0.42862  Biso   1.000  C
  H19      1.0000 0.42961  0.14959  0.08390  Biso   1.000  H
  H20      1.0000 0.26188  0.06038  0.01901  Biso   1.000  H
  C45      1.0000 0.19159  0.21171  0.05544  Biso   1.000  C
  C46      1.0000 0.11234  0.41355  0.10587  Biso   1.000  C
  C47      1.0000 0.02167  0.24195  0.16319  Biso   1.000  C
  H21      1.0000 0.95683  0.10808  0.33231  Biso   1.000  H
  H22      1.0000 0.95463  0.10949  0.21658  Biso   1.000  H
  O7       1.0000 0.12653  0.14547  0.02544  Biso   1.000  O
  H23      1.0000 0.07690  0.38992  0.06668  Biso   1.000  H
  C48      1.0000 0.12031  0.58038  0.10735  Biso   1.000  C
  O8       1.0000 0.99829  0.19393  0.09902  Biso   1.000  O
  H24      1.0000 0.08970  0.16173  0.04839  Biso   1.000  H
  H25      1.0000 0.17099  0.62678  0.10801  Biso   1.000  H
  C49      1.0000 0.04607  0.66211  0.07838  Biso   1.000  C
  C50      1.0000 0.04707  0.66678  0.12942  Biso   1.000  C
  H26      1.0000 0.96611  0.12976  0.10198  Biso   1.000  H
  C51      1.0000 0.06512  0.82407  0.07659  Biso   1.000  C
  C52      1.0000 0.97871  0.61680  0.08911  Biso   1.000  C
  C53      1.0000 0.97782  0.63870  0.12262  Biso   1.000  C
  C54      1.0000 0.06639  0.83220  0.12559  Biso   1.000  C
  C55      1.0000 0.47871  0.38320  0.58911  Biso   1.000  C
  C56      1.0000 0.54607  0.33789  0.57843  Biso   1.000  C
  C57      1.0000 0.54707  0.33322  0.62942  Biso   1.000  C
  C58      1.0000 0.62031  0.41962  0.60740  Biso   1.000  C
  C59      1.0000 0.56507  0.17593  0.57659  Biso   1.000  C
  C60      1.0000 0.47781  0.36130  0.62262  Biso   1.000  C
  C61      1.0000 0.56639  0.16780  0.62559  Biso   1.000  C
  C62      1.0000 0.61228  0.58634  0.60587  Biso   1.000  C
  H27      1.0000 0.67099  0.37322  0.60801  Biso   1.000  H
  C63      1.0000 0.68861  0.66168  0.59381  Biso   1.000  C
  C64      1.0000 0.57731  0.64835  0.66897  Biso   1.000  C
  H28      1.0000 0.57690  0.61008  0.56673  Biso   1.000  H
  C65      1.0000 0.69159  0.78829  0.55544  Biso   1.000  C
  C66      1.0000 0.75864  0.60607  0.62084  Biso   1.000  C
  C67      1.0000 0.52161  0.75794  0.66319  Biso   1.000  C
  C68      1.0000 0.59953  0.60054  0.73457  Biso   1.000  C
  O9       1.0000 0.62653  0.85453  0.52544  Biso   1.000  O
  C69      1.0000 0.76120  0.85420  0.54414  Biso   1.000  C
  H29      1.0000 0.75762  0.52423  0.64843  Biso   1.000  H
  C70      1.0000 0.83022  0.66623  0.60888  Biso   1.000  C
  O10      1.0000 0.49823  0.80607  0.59902  Biso   1.000  O
  C71      1.0000 0.49128  0.81724  0.72113  Biso   1.000  C
  H30      1.0000 0.63677  0.52824  0.73922  Biso   1.000  H
  C72      1.0000 0.56935  0.65442  0.79389  Biso   1.000  C
  H31      1.0000 0.58970  0.83827  0.54839  Biso   1.000  H
  C73      1.0000 0.82995  0.79371  0.57015  Biso   1.000  C
  H32      1.0000 0.76188  0.93951  0.51901  Biso   1.000  H
  C74      1.0000 0.90527  0.59501  0.63555  Biso   1.000  C
  H33      1.0000 0.46611  0.87014  0.60198  Biso   1.000  H
  C75      1.0000 0.51556  0.76715  0.78577  Biso   1.000  C
  H34      1.0000 0.45457  0.89051  0.71658  Biso   1.000  H
  C76      1.0000 0.59473  0.59501  0.86445  Biso   1.000  C
  O11      1.0000 0.89613  0.86146  0.55314  Biso   1.000  O
  C77      1.0000 0.93064  0.65442  0.70611  Biso   1.000  C
  H35      1.0000 0.94470  0.62320  0.60459  Biso   1.000  H
  C78      1.0000 0.90161  0.42775  0.63489  Biso   1.000  C
  O12      1.0000 0.48751  0.82743  0.84340  Biso   1.000  O
  C79      1.0000 0.66972  0.66623  0.89117  Biso   1.000  C
  H36      1.0000 0.55529  0.62320  0.89541  Biso   1.000  H
  C80      1.0000 0.59833  0.42775  0.86511  Biso   1.000  C
  H37      1.0000 0.92960  0.85041  0.58390  Biso   1.000  H
  C81      1.0000 0.90047  0.60054  0.76543  Biso   1.000  C
  C82      1.0000 0.98438  0.76715  0.71423  Biso   1.000  C
  H38      1.0000 0.95127  0.39014  0.65149  Biso   1.000  H
  H39      1.0000 0.86411  0.39664  0.66641  Biso   1.000  H
  C83      1.0000 0.88020  0.36022  0.56366  Biso   1.000  C
  H40      1.0000 0.45677  0.89182  0.83231  Biso   1.000  H
  C84      1.0000 0.67004  0.79371  0.92985  Biso   1.000  C
  C85      1.0000 0.74136  0.60607  0.87916  Biso   1.000  C
  H41      1.0000 0.54866  0.39014  0.84851  Biso   1.000  H
  H42      1.0000 0.63589  0.39664  0.83359  Biso   1.000  H
  C86      1.0000 0.61979  0.36022  0.93634  Biso   1.000  C
  C87      1.0000 0.92263  0.64835  0.83103  Biso   1.000  C
  H43      1.0000 0.86317  0.52824  0.76083  Biso   1.000  H
  O13      1.0000 0.01243  0.82743  0.65660  Biso   1.000  O
  C88      1.0000 0.00871  0.81724  0.77887  Biso   1.000  C
  C89      1.0000 0.93000  0.38667  0.51150  Biso   1.000  C
  C90      1.0000 0.88531  0.18645  0.57439  Biso   1.000  C
  C91      1.0000 0.95989  0.29095  0.54021  Biso   1.000  C
  C92      1.0000 0.83871  0.21973  0.57143  Biso   1.000  C
  O14      1.0000 0.60387  0.86146  0.94686  Biso   1.000  O
  C93      1.0000 0.73879  0.85420  0.95586  Biso   1.000  C
  C94      1.0000 0.81132  0.66168  0.90619  Biso   1.000  C
  H44      1.0000 0.74238  0.52423  0.85162  Biso   1.000  H
  C95      1.0000 0.57000  0.38667  0.98850  Biso   1.000  C
  C96      1.0000 0.61469  0.18645  0.92561  Biso   1.000  C
  C97      1.0000 0.54005  0.29095  0.95979  Biso   1.000  C
  C98      1.0000 0.66129  0.21973  0.92862  Biso   1.000  C
  C99      1.0000 0.97832  0.75794  0.83681  Biso   1.000  C
  C100     1.0000 0.88766  0.58634  0.89413  Biso   1.000  C
  H45      1.0000 0.04317  0.89182  0.66769  Biso   1.000  H
  H46      1.0000 0.04537  0.89051  0.78341  Biso   1.000  H
  H47      1.0000 0.57039  0.85041  0.91610  Biso   1.000  H
  H48      1.0000 0.73806  0.93951  0.98099  Biso   1.000  H
  C101     1.0000 0.80835  0.78829  0.94456  Biso   1.000  C
  O15      1.0000 0.00171  0.80607  0.90098  Biso   1.000  O
  H49      1.0000 0.92310  0.61008  0.93332  Biso   1.000  H
  C102     1.0000 0.87969  0.41962  0.89265  Biso   1.000  C
  O16      1.0000 0.87347  0.85453  0.97456  Biso   1.000  O
  H50      1.0000 0.03389  0.87014  0.89802  Biso   1.000  H
  H51      1.0000 0.82900  0.37322  0.89199  Biso   1.000  H
  C103     1.0000 0.95387  0.33789  0.92162  Biso   1.000  C
  C104     1.0000 0.95287  0.33322  0.87063  Biso   1.000  C
  H52      1.0000 0.91029  0.83827  0.95161  Biso   1.000  H
  C105     1.0000 0.93487  0.17593  0.92341  Biso   1.000  C
  C106     1.0000 0.02128  0.38320  0.91089  Biso   1.000  C
  C107     1.0000 0.02218  0.36130  0.87743  Biso   1.000  C
  C108     1.0000 0.93361  0.16780  0.87441  Biso   1.000  C
