data_image0
_cell_length_a       18.108
_cell_length_b       20.262
_cell_length_c       21.408
_cell_angle_alpha    90
_cell_angle_beta     105.28
_cell_angle_gamma    90

_symmetry_space_group_name_H-M    "P 1"
_symmetry_int_tables_number       1

loop_
  _symmetry_equiv_pos_as_xyz
  'x, y, z'

loop_
  _atom_site_label
  _atom_site_occupancy
  _atom_site_fract_x
  _atom_site_fract_y
  _atom_site_fract_z
  _atom_site_thermal_displace_type
  _atom_site_B_iso_or_equiv
  _atom_site_type_symbol
  C1       1.0000 0.53902  0.47360  0.32889  Biso   1.000  C
  C2       1.0000 0.50153  0.45119  0.26725  Biso   1.000  C
  C3       1.0000 0.61855  0.47907  0.34734  Biso   1.000  C
  H1       1.0000 0.51030  0.48529  0.35848  Biso   1.000  H
  O1       1.0000 0.42315  0.44625  0.25442  Biso   1.000  O
  C4       1.0000 0.54460  0.43535  0.22415  Biso   1.000  C
  C5       1.0000 0.66251  0.46210  0.30516  Biso   1.000  C
  H2       1.0000 0.64327  0.49472  0.38947  Biso   1.000  H
  C6       1.0000 0.38279  0.42424  0.19118  Biso   1.000  C
  H3       1.0000 0.51991  0.42069  0.18159  Biso   1.000  H
  C7       1.0000 0.62406  0.44122  0.24362  Biso   1.000  C
  C8       1.0000 0.75100  0.46970  0.32632  Biso   1.000  C
  C9       1.0000 0.29812  0.43140  0.18512  Biso   1.000  C
  H4       1.0000 0.39536  0.37750  0.18507  Biso   1.000  H
  H5       1.0000 0.39741  0.45119  0.15781  Biso   1.000  H
  H6       1.0000 0.65278  0.43051  0.21369  Biso   1.000  H
  C10      1.0000 0.78164  0.45765  0.39862  Biso   1.000  C
  C11      1.0000 0.78889  0.42291  0.28841  Biso   1.000  C
  C12      1.0000 0.76971  0.54131  0.31141  Biso   1.000  C
  O2       1.0000 0.27208  0.37859  0.21974  Biso   1.000  O
  H7       1.0000 0.28820  0.47448  0.20309  Biso   1.000  H
  H8       1.0000 0.26941  0.43012  0.13888  Biso   1.000  H
  C13      1.0000 0.82859  0.49442  0.44685  Biso   1.000  C
  N1       1.0000 0.76213  0.40213  0.42763  Biso   1.000  N
  C14      1.0000 0.84145  0.43397  0.25345  Biso   1.000  C
  N2       1.0000 0.77406  0.35623  0.28531  Biso   1.000  N
  H9       1.0000 0.82537  0.54748  0.32308  Biso   1.000  H
  H10      1.0000 0.74688  0.57191  0.33649  Biso   1.000  H
  H11      1.0000 0.74877  0.55009  0.26512  Biso   1.000  H
  C15      1.0000 0.20200  0.39379  0.23253  Biso   1.000  C
  C16      1.0000 0.83711  0.46062  0.50612  Biso   1.000  C
  H12      1.0000 0.85146  0.53549  0.44138  Biso   1.000  H
  C17      1.0000 0.79514  0.40337  0.49353  Biso   1.000  C
  H13      1.0000 0.73267  0.37020  0.40700  Biso   1.000  H
  H14      1.0000 0.86289  0.47542  0.24730  Biso   1.000  H
  C18      1.0000 0.85790  0.37272  0.22827  Biso   1.000  C
  C19      1.0000 0.81522  0.32489  0.24798  Biso   1.000  C
  H15      1.0000 0.74267  0.33629  0.30439  Biso   1.000  H
  C20      1.0000 0.13395  0.38298  0.18498  Biso   1.000  C
  C21      1.0000 0.20289  0.41822  0.29369  Biso   1.000  C
  H16      1.0000 0.86675  0.47488  0.54738  Biso   1.000  H
  C22      1.0000 0.77517  0.35288  0.53915  Biso   1.000  C
  H17      1.0000 0.89239  0.36591  0.20231  Biso   1.000  H
  C23      1.0000 0.80289  0.25279  0.22841  Biso   1.000  C
  C24      1.0000 0.13109  0.34636  0.12174  Biso   1.000  C
  C25      1.0000 0.06542  0.40159  0.19844  Biso   1.000  C
  C26      1.0000 0.27570  0.42079  0.34889  Biso   1.000  C
  C27      1.0000 0.13349  0.43668  0.30492  Biso   1.000  C
  C28      1.0000 0.80205  0.28339  0.53043  Biso   1.000  C
  C29      1.0000 0.81137  0.37440  0.60960  Biso   1.000  C
  C30      1.0000 0.68644  0.35229  0.52680  Biso   1.000  C
  C31      1.0000 0.82240  0.20398  0.28395  Biso   1.000  C
  C32      1.0000 0.85213  0.23695  0.18139  Biso   1.000  C
  C33      1.0000 0.71709  0.24356  0.19127  Biso   1.000  C
  C34      1.0000 0.09190  0.28023  0.12038  Biso   1.000  C
  H18      1.0000 0.10298  0.37331  0.08450  Biso   1.000  H
  H19      1.0000 0.18382  0.33960  0.11781  Biso   1.000  H
  H20      1.0000 0.01838  0.39498  0.16658  Biso   1.000  H
  C35      1.0000 0.06509  0.42957  0.25747  Biso   1.000  C
  C36      1.0000 0.27429  0.36887  0.40002  Biso   1.000  C
  H21      1.0000 0.28097  0.46511  0.36899  Biso   1.000  H
  H22      1.0000 0.32057  0.41319  0.33160  Biso   1.000  H
  H23      1.0000 0.13295  0.45450  0.34589  Biso   1.000  H
  N3       1.0000 0.77424  0.24849  0.47377  Biso   1.000  N
  C37      1.0000 0.84532  0.23986  0.57430  Biso   1.000  C
  H24      1.0000 0.79607  0.34370  0.63919  Biso   1.000  H
  H25      1.0000 0.79384  0.41901  0.61628  Biso   1.000  H
  H26      1.0000 0.86724  0.37430  0.61807  Biso   1.000  H
  H27      1.0000 0.66279  0.33940  0.48191  Biso   1.000  H
  H28      1.0000 0.66877  0.39651  0.53459  Biso   1.000  H
  H29      1.0000 0.67207  0.32070  0.55619  Biso   1.000  H
  N4       1.0000 0.78330  0.20176  0.33146  Biso   1.000  N
  C38      1.0000 0.87169  0.15073  0.29485  Biso   1.000  C
  H30      1.0000 0.90639  0.24272  0.20381  Biso   1.000  H
  H31      1.0000 0.83819  0.26680  0.14411  Biso   1.000  H
  H32      1.0000 0.84307  0.19120  0.16648  Biso   1.000  H
  H33      1.0000 0.70879  0.19830  0.17471  Biso   1.000  H
  H34      1.0000 0.70358  0.27470  0.15500  Biso   1.000  H
  H35      1.0000 0.68490  0.25190  0.22071  Biso   1.000  H
  C39      1.0000 0.13030  0.22806  0.15801  Biso   1.000  C
  C40      1.0000 0.01652  0.26991  0.08280  Biso   1.000  C
  H36      1.0000 0.01836  0.44369  0.26541  Biso   1.000  H
  C41      1.0000 0.28320  0.30160  0.38768  Biso   1.000  C
  C42      1.0000 0.26361  0.38644  0.46022  Biso   1.000  C
  C43      1.0000 0.79821  0.18394  0.48123  Biso   1.000  C
  H37      1.0000 0.74508  0.26532  0.43780  Biso   1.000  H
  C44      1.0000 0.84279  0.17777  0.54350  Biso   1.000  C
  H38      1.0000 0.87226  0.24968  0.61769  Biso   1.000  H
  C45      1.0000 0.80609  0.14821  0.37092  Biso   1.000  C
  H39      1.0000 0.74876  0.23068  0.33582  Biso   1.000  H
  C46      1.0000 0.86119  0.11583  0.34942  Biso   1.000  C
  H40      1.0000 0.90647  0.13952  0.27020  Biso   1.000  H
  O3       1.0000 0.20474  0.23813  0.19205  Biso   1.000  O
  C47      1.0000 0.09491  0.16647  0.15893  Biso   1.000  C
  C48      1.0000 0.98074  0.20955  0.08300  Biso   1.000  C
  H41      1.0000 0.98978  0.30491  0.05690  Biso   1.000  H
  C49      1.0000 0.28274  0.25338  0.43441  Biso   1.000  C
  O4       1.0000 0.29268  0.28225  0.32913  Biso   1.000  O
  H42      1.0000 0.25726  0.43169  0.46927  Biso   1.000  H
  C50      1.0000 0.26197  0.33931  0.50723  Biso   1.000  C
  C51      1.0000 0.77135  0.13395  0.42729  Biso   1.000  C
  H43      1.0000 0.86766  0.13858  0.56268  Biso   1.000  H
  H44      1.0000 0.88758  0.07699  0.36768  Biso   1.000  H
  H45      1.0000 0.21937  0.20659  0.21790  Biso   1.000  H
  C52      1.0000 0.01970  0.15897  0.12120  Biso   1.000  C
  C53      1.0000 0.13798  0.10922  0.19757  Biso   1.000  C
  H46      1.0000 0.92993  0.20299  0.05709  Biso   1.000  H
  C54      1.0000 0.29537  0.18083  0.42123  Biso   1.000  C
  C55      1.0000 0.27190  0.27332  0.49392  Biso   1.000  C
  H47      1.0000 0.30570  0.31492  0.31030  Biso   1.000  H
  H48      1.0000 0.25413  0.35209  0.54767  Biso   1.000  H
  C56      1.0000 0.68302  0.13330  0.40414  Biso   1.000  C
  C57      1.0000 0.79768  0.06446  0.45436  Biso   1.000  C
  H49      1.0000 0.99459  0.11791  0.12178  Biso   1.000  H
  C58      1.0000 0.14783  0.11564  0.27011  Biso   1.000  C
  H50      1.0000 0.18919  0.10601  0.18929  Biso   1.000  H
  H51      1.0000 0.11017  0.06781  0.18222  Biso   1.000  H
  C59      1.0000 0.22400  0.14929  0.37828  Biso   1.000  C
  H52      1.0000 0.33765  0.17708  0.40007  Biso   1.000  H
  H53      1.0000 0.31066  0.15670  0.46288  Biso   1.000  H
  H54      1.0000 0.27134  0.24099  0.52597  Biso   1.000  H
  C60      1.0000 0.64528  0.11021  0.34274  Biso   1.000  C
  C61      1.0000 0.63770  0.15250  0.44482  Biso   1.000  C
  H55      1.0000 0.85366  0.06342  0.46937  Biso   1.000  H
  H56      1.0000 0.78018  0.03149  0.42017  Biso   1.000  H
  H57      1.0000 0.77589  0.05458  0.49058  Biso   1.000  H
  C62      1.0000 0.21646  0.13656  0.31262  Biso   1.000  C
  C63      1.0000 0.08655  0.10300  0.29640  Biso   1.000  C
  C64      1.0000 0.16136  0.13399  0.40216  Biso   1.000  C
  C65      1.0000 0.56547  0.10576  0.32216  Biso   1.000  C
  H58      1.0000 0.67456  0.09708  0.31407  Biso   1.000  H
  C66      1.0000 0.55886  0.14831  0.42520  Biso   1.000  C
  H59      1.0000 0.66175  0.16879  0.48690  Biso   1.000  H
  O5       1.0000 0.28092  0.14589  0.28889  Biso   1.000  O
  C67      1.0000 0.09351  0.11031  0.36182  Biso   1.000  C
  H60      1.0000 0.03907  0.08898  0.26880  Biso   1.000  H
  H61      1.0000 0.16525  0.13992  0.44690  Biso   1.000  H
  C68      1.0000 0.52217  0.12457  0.36361  Biso   1.000  C
  H62      1.0000 0.54118  0.08992  0.27998  Biso   1.000  H
  H63      1.0000 0.52944  0.16168  0.45377  Biso   1.000  H
  C69      1.0000 0.32253  0.08504  0.28826  Biso   1.000  C
  H64      1.0000 0.05199  0.09920  0.37920  Biso   1.000  H
  O6       1.0000 0.44370  0.12180  0.34981  Biso   1.000  O
  C70      1.0000 0.40345  0.09945  0.28657  Biso   1.000  C
  H65      1.0000 0.29669  0.05858  0.24982  Biso   1.000  H
  H66      1.0000 0.32290  0.05888  0.32739  Biso   1.000  H
  H67      1.0000 0.42788  0.05908  0.27509  Biso   1.000  H
  H68      1.0000 0.40407  0.13390  0.25398  Biso   1.000  H
  C71      1.0000 0.46091  0.52640  0.67110  Biso   1.000  C
  C72      1.0000 0.38138  0.52093  0.65265  Biso   1.000  C
  C73      1.0000 0.49840  0.54881  0.73274  Biso   1.000  C
  H69      1.0000 0.48963  0.51471  0.64151  Biso   1.000  H
  C74      1.0000 0.33742  0.53790  0.69483  Biso   1.000  C
  H70      1.0000 0.35665  0.50528  0.61047  Biso   1.000  H
  C75      1.0000 0.45533  0.56465  0.77584  Biso   1.000  C
  O7       1.0000 0.57678  0.55375  0.74557  Biso   1.000  O
  C76      1.0000 0.24893  0.53030  0.67366  Biso   1.000  C
  C77      1.0000 0.37587  0.55878  0.75637  Biso   1.000  C
  H71      1.0000 0.48002  0.57931  0.81840  Biso   1.000  H
  C78      1.0000 0.61714  0.57576  0.80881  Biso   1.000  C
  C79      1.0000 0.21829  0.54235  0.60137  Biso   1.000  C
  C80      1.0000 0.21104  0.57709  0.71158  Biso   1.000  C
  C81      1.0000 0.23022  0.45869  0.68858  Biso   1.000  C
  H72      1.0000 0.34715  0.56949  0.78630  Biso   1.000  H
  C82      1.0000 0.70179  0.56860  0.81482  Biso   1.000  C
  H73      1.0000 0.60456  0.62250  0.81487  Biso   1.000  H
  H74      1.0000 0.60252  0.54881  0.84218  Biso   1.000  H
  C83      1.0000 0.17134  0.50558  0.55314  Biso   1.000  C
  N5       1.0000 0.23780  0.59787  0.57236  Biso   1.000  N
  C84      1.0000 0.15848  0.56603  0.74654  Biso   1.000  C
  N6       1.0000 0.22587  0.64377  0.71468  Biso   1.000  N
  H75      1.0000 0.17456  0.45252  0.67691  Biso   1.000  H
  H76      1.0000 0.25305  0.42809  0.66350  Biso   1.000  H
  H77      1.0000 0.25116  0.44991  0.73487  Biso   1.000  H
  H78      1.0000 0.71173  0.52552  0.79690  Biso   1.000  H
  H79      1.0000 0.73050  0.56988  0.86106  Biso   1.000  H
  O8       1.0000 0.72785  0.62141  0.78024  Biso   1.000  O
  C85      1.0000 0.16280  0.53938  0.49382  Biso   1.000  C
  H80      1.0000 0.14847  0.46451  0.55861  Biso   1.000  H
  C86      1.0000 0.20479  0.59663  0.50646  Biso   1.000  C
  H81      1.0000 0.26726  0.62980  0.59299  Biso   1.000  H
  H82      1.0000 0.13704  0.52458  0.75269  Biso   1.000  H
  C87      1.0000 0.14203  0.62728  0.77172  Biso   1.000  C
  C88      1.0000 0.18471  0.67511  0.75201  Biso   1.000  C
  H83      1.0000 0.25726  0.66371  0.69560  Biso   1.000  H
  C89      1.0000 0.79793  0.60621  0.76746  Biso   1.000  C
  H84      1.0000 0.13318  0.52512  0.45261  Biso   1.000  H
  C90      1.0000 0.22476  0.64712  0.46084  Biso   1.000  C
  H85      1.0000 0.10754  0.63409  0.79768  Biso   1.000  H
  C91      1.0000 0.19704  0.74721  0.77158  Biso   1.000  C
  C92      1.0000 0.79704  0.58178  0.70630  Biso   1.000  C
  C93      1.0000 0.86596  0.61702  0.81496  Biso   1.000  C
  C94      1.0000 0.19786  0.71661  0.46951  Biso   1.000  C
  C95      1.0000 0.18856  0.62560  0.39039  Biso   1.000  C
  C96      1.0000 0.31349  0.64771  0.47319  Biso   1.000  C
  C97      1.0000 0.17753  0.79602  0.71604  Biso   1.000  C
  C98      1.0000 0.14780  0.76305  0.81860  Biso   1.000  C
  C99      1.0000 0.28284  0.75644  0.80872  Biso   1.000  C
  C100     1.0000 0.72422  0.57921  0.65105  Biso   1.000  C
  C101     1.0000 0.86642  0.56332  0.69502  Biso   1.000  C
  C102     1.0000 0.93451  0.59841  0.80155  Biso   1.000  C
  C103     1.0000 0.86884  0.65364  0.87825  Biso   1.000  C
  C104     1.0000 0.15461  0.76014  0.42569  Biso   1.000  C
  N7       1.0000 0.22568  0.75151  0.52617  Biso   1.000  N
  H86      1.0000 0.20386  0.65630  0.36080  Biso   1.000  H
  H87      1.0000 0.20609  0.58099  0.38371  Biso   1.000  H
  H88      1.0000 0.13269  0.62570  0.38191  Biso   1.000  H
  H89      1.0000 0.33714  0.66060  0.51808  Biso   1.000  H
  H90      1.0000 0.33116  0.60349  0.46540  Biso   1.000  H
  H91      1.0000 0.32786  0.67930  0.44380  Biso   1.000  H
  N8       1.0000 0.21661  0.79824  0.66848  Biso   1.000  N
  C105     1.0000 0.12824  0.84927  0.70514  Biso   1.000  C
  H92      1.0000 0.09354  0.75728  0.79618  Biso   1.000  H
  H93      1.0000 0.16174  0.73320  0.85588  Biso   1.000  H
  H94      1.0000 0.15685  0.80880  0.83346  Biso   1.000  H
  H95      1.0000 0.29114  0.80170  0.82528  Biso   1.000  H
  H96      1.0000 0.29635  0.72530  0.84499  Biso   1.000  H
  H97      1.0000 0.31503  0.74810  0.77928  Biso   1.000  H
  C106     1.0000 0.72562  0.63113  0.59992  Biso   1.000  C
  H98      1.0000 0.71896  0.53489  0.63100  Biso   1.000  H
  H99      1.0000 0.67936  0.58681  0.66839  Biso   1.000  H
  C107     1.0000 0.93483  0.57043  0.74247  Biso   1.000  C
  H100     1.0000 0.86698  0.54550  0.65410  Biso   1.000  H
  H101     1.0000 0.98154  0.60502  0.83336  Biso   1.000  H
  H102     1.0000 0.89695  0.62669  0.91549  Biso   1.000  H
  H103     1.0000 0.81611  0.66040  0.88218  Biso   1.000  H
  C108     1.0000 0.90803  0.71977  0.87961  Biso   1.000  C
  C109     1.0000 0.15712  0.82223  0.45644  Biso   1.000  C
  H104     1.0000 0.12767  0.75032  0.38230  Biso   1.000  H
  C110     1.0000 0.20172  0.81606  0.51876  Biso   1.000  C
  H105     1.0000 0.25485  0.73468  0.56219  Biso   1.000  H
  C111     1.0000 0.19384  0.85179  0.62907  Biso   1.000  C
  H106     1.0000 0.25117  0.76932  0.66417  Biso   1.000  H
  C112     1.0000 0.13874  0.88417  0.65057  Biso   1.000  C
  H107     1.0000 0.09346  0.86048  0.72979  Biso   1.000  H
  C113     1.0000 0.71671  0.69840  0.61226  Biso   1.000  C
  C114     1.0000 0.73632  0.61356  0.53977  Biso   1.000  C
  H108     1.0000 0.98152  0.55631  0.73458  Biso   1.000  H
  C115     1.0000 0.86963  0.77194  0.84198  Biso   1.000  C
  C116     1.0000 0.98335  0.73009  0.91719  Biso   1.000  C
  H109     1.0000 0.13227  0.86142  0.43731  Biso   1.000  H
  C117     1.0000 0.22858  0.86605  0.57270  Biso   1.000  C
  H110     1.0000 0.11235  0.92301  0.63231  Biso   1.000  H
  C118     1.0000 0.71718  0.74662  0.56554  Biso   1.000  C
  O9       1.0000 0.70725  0.71775  0.67086  Biso   1.000  O
  H111     1.0000 0.74265  0.56831  0.53067  Biso   1.000  H
  C119     1.0000 0.73796  0.66069  0.49276  Biso   1.000  C
  C120     1.0000 0.90502  0.83353  0.84106  Biso   1.000  C
  O10      1.0000 0.79519  0.76187  0.80794  Biso   1.000  O
  C121     1.0000 0.01919  0.79045  0.91699  Biso   1.000  C
  H112     1.0000 0.01015  0.69509  0.94309  Biso   1.000  H
  C122     1.0000 0.20225  0.93554  0.54563  Biso   1.000  C
  C123     1.0000 0.31690  0.86670  0.59580  Biso   1.000  C
  C124     1.0000 0.70455  0.81917  0.57871  Biso   1.000  C
  C125     1.0000 0.72803  0.72668  0.50607  Biso   1.000  C
  H113     1.0000 0.69423  0.68508  0.68969  Biso   1.000  H
  H114     1.0000 0.74578  0.64791  0.45227  Biso   1.000  H
  C126     1.0000 0.86193  0.89078  0.80237  Biso   1.000  C
  C127     1.0000 0.98023  0.84103  0.87879  Biso   1.000  C
  H115     1.0000 0.78056  0.79341  0.78208  Biso   1.000  H
  H116     1.0000 0.07000  0.79701  0.94290  Biso   1.000  H
  H117     1.0000 0.14625  0.93658  0.53057  Biso   1.000  H
  H118     1.0000 0.21973  0.96851  0.57977  Biso   1.000  H
  H119     1.0000 0.22404  0.94542  0.50941  Biso   1.000  H
  C128     1.0000 0.35464  0.88979  0.65720  Biso   1.000  C
  C129     1.0000 0.36222  0.84750  0.55517  Biso   1.000  C
  C130     1.0000 0.77593  0.85071  0.62171  Biso   1.000  C
  H120     1.0000 0.66227  0.82292  0.59987  Biso   1.000  H
  H121     1.0000 0.68927  0.84330  0.53711  Biso   1.000  H
  H122     1.0000 0.72857  0.75901  0.47397  Biso   1.000  H
  C131     1.0000 0.85210  0.88436  0.72988  Biso   1.000  C
  H123     1.0000 0.81074  0.89399  0.81070  Biso   1.000  H
  H124     1.0000 0.88976  0.93219  0.81777  Biso   1.000  H
  H125     1.0000 0.00534  0.88209  0.87820  Biso   1.000  H
  H126     1.0000 0.32535  0.90292  0.68587  Biso   1.000  H
  C132     1.0000 0.43446  0.89424  0.67783  Biso   1.000  C
  C133     1.0000 0.44101  0.85169  0.57478  Biso   1.000  C
  H127     1.0000 0.33818  0.83121  0.51309  Biso   1.000  H
  C134     1.0000 0.78347  0.86344  0.68737  Biso   1.000  C
  C135     1.0000 0.83857  0.86601  0.59783  Biso   1.000  C
  C136     1.0000 0.91338  0.89700  0.70359  Biso   1.000  C
  H128     1.0000 0.45875  0.91008  0.72001  Biso   1.000  H
  C137     1.0000 0.47776  0.87543  0.63638  Biso   1.000  C
  H129     1.0000 0.47047  0.83832  0.54617  Biso   1.000  H
  O11      1.0000 0.71901  0.85411  0.71110  Biso   1.000  O
  H130     1.0000 0.83468  0.86008  0.55309  Biso   1.000  H
  C138     1.0000 0.90642  0.88969  0.63817  Biso   1.000  C
  H131     1.0000 0.96086  0.91102  0.73119  Biso   1.000  H
  O12      1.0000 0.55621  0.87820  0.65013  Biso   1.000  O
  C139     1.0000 0.67740  0.91496  0.71173  Biso   1.000  C
  H132     1.0000 0.94794  0.90080  0.62079  Biso   1.000  H
  C140     1.0000 0.59647  0.90055  0.71342  Biso   1.000  C
  H133     1.0000 0.70324  0.94142  0.75017  Biso   1.000  H
  H134     1.0000 0.67703  0.94112  0.67260  Biso   1.000  H
  H135     1.0000 0.57205  0.94092  0.72490  Biso   1.000  H
  H136     1.0000 0.59586  0.86610  0.74601  Biso   1.000  H
  C141     1.0000 0.48030  0.65897  0.37882  Biso   1.000  C
  C142     1.0000 0.40509  0.66647  0.34109  Biso   1.000  C
  H137     1.0000 0.50539  0.61791  0.37819  Biso   1.000  H
  C143     1.0000 0.51926  0.70955  0.41702  Biso   1.000  C
  C144     1.0000 0.36194  0.60922  0.30240  Biso   1.000  C
  C145     1.0000 0.36963  0.72806  0.34197  Biso   1.000  C
  C146     1.0000 0.48342  0.76991  0.41722  Biso   1.000  C
  H138     1.0000 0.57006  0.70299  0.44288  Biso   1.000  H
  C147     1.0000 0.35210  0.61564  0.22987  Biso   1.000  C
  H139     1.0000 0.31079  0.60601  0.31068  Biso   1.000  H
  H140     1.0000 0.38977  0.56781  0.31780  Biso   1.000  H
  C148     1.0000 0.40810  0.78023  0.37964  Biso   1.000  C
  O13      1.0000 0.29520  0.73813  0.30797  Biso   1.000  O
  H141     1.0000 0.51015  0.80491  0.44307  Biso   1.000  H
  C149     1.0000 0.28347  0.63656  0.18735  Biso   1.000  C
  C150     1.0000 0.41338  0.60300  0.20357  Biso   1.000  C
  C151     1.0000 0.36889  0.84636  0.37823  Biso   1.000  C
  H142     1.0000 0.28057  0.70659  0.28211  Biso   1.000  H
  O14      1.0000 0.21907  0.64589  0.21108  Biso   1.000  O
  C152     1.0000 0.27600  0.64929  0.12174  Biso   1.000  C
  C153     1.0000 0.40647  0.61031  0.13815  Biso   1.000  C
  H143     1.0000 0.46086  0.58898  0.23117  Biso   1.000  H
  C154     1.0000 0.36603  0.88298  0.31499  Biso   1.000  C
  H144     1.0000 0.39695  0.87331  0.41547  Biso   1.000  H
  H145     1.0000 0.31618  0.83960  0.38221  Biso   1.000  H
  C155     1.0000 0.17746  0.58504  0.21171  Biso   1.000  C
  C156     1.0000 0.33857  0.63399  0.09782  Biso   1.000  C
  C157     1.0000 0.20456  0.68083  0.07874  Biso   1.000  C
  H146     1.0000 0.44801  0.59920  0.12082  Biso   1.000  H
  C158     1.0000 0.29798  0.89379  0.26744  Biso   1.000  C
  C159     1.0000 0.43453  0.90159  0.30158  Biso   1.000  C
  C160     1.0000 0.09647  0.59945  0.21340  Biso   1.000  C
  H147     1.0000 0.20326  0.55858  0.25020  Biso   1.000  H
  H148     1.0000 0.17709  0.55888  0.17258  Biso   1.000  H
  H149     1.0000 0.33470  0.63992  0.05312  Biso   1.000  H
  H150     1.0000 0.16228  0.67708  0.09990  Biso   1.000  H
  H151     1.0000 0.18932  0.65670  0.03709  Biso   1.000  H
  C161     1.0000 0.21719  0.75338  0.06557  Biso   1.000  C
  C162     1.0000 0.29710  0.91822  0.20628  Biso   1.000  C
  O15      1.0000 0.22785  0.87859  0.28023  Biso   1.000  O
  C163     1.0000 0.43484  0.92957  0.24250  Biso   1.000  C
  H152     1.0000 0.48155  0.89498  0.33339  Biso   1.000  H
  H153     1.0000 0.07205  0.55908  0.22488  Biso   1.000  H
  H154     1.0000 0.09586  0.63390  0.24599  Biso   1.000  H
  O16      1.0000 0.05623  0.62180  0.15016  Biso   1.000  O
  C164     1.0000 0.21678  0.80160  0.11229  Biso   1.000  C
  C165     1.0000 0.22803  0.77332  0.00605  Biso   1.000  C
  C166     1.0000 0.22429  0.92079  0.15108  Biso   1.000  C
  C167     1.0000 0.36649  0.93668  0.19505  Biso   1.000  C
  C168     1.0000 0.20186  0.93140  0.31485  Biso   1.000  C
  H155     1.0000 0.48159  0.94369  0.23461  Biso   1.000  H
  C169     1.0000 0.97782  0.62457  0.13636  Biso   1.000  C
  C170     1.0000 0.22564  0.86887  0.09995  Biso   1.000  C
  O17      1.0000 0.20730  0.78225  0.17084  Biso   1.000  O
  C171     1.0000 0.23792  0.83931  0.99278  Biso   1.000  C
  H156     1.0000 0.22853  0.74099  0.97400  Biso   1.000  H
  H157     1.0000 0.21896  0.96511  0.13099  Biso   1.000  H
  H158     1.0000 0.17938  0.91319  0.16842  Biso   1.000  H
  H159     1.0000 0.36698  0.95450  0.15408  Biso   1.000  H
  H160     1.0000 0.21178  0.97448  0.29688  Biso   1.000  H
  H161     1.0000 0.23057  0.93012  0.36109  Biso   1.000  H
  C172     1.0000 0.11721  0.92424  0.30884  Biso   1.000  C
  C173     1.0000 0.93453  0.60576  0.17786  Biso   1.000  C
  C174     1.0000 0.94107  0.64831  0.07477  Biso   1.000  C
  C175     1.0000 0.23639  0.88644  0.03980  Biso   1.000  C
  H162     1.0000 0.19428  0.81492  0.18967  Biso   1.000  H
  H163     1.0000 0.24574  0.85209  0.95230  Biso   1.000  H
  H164     1.0000 0.10457  0.87750  0.31490  Biso   1.000  H
  H165     1.0000 0.10259  0.95119  0.34221  Biso   1.000  H
  O18      1.0000 0.07684  0.94625  0.24555  Biso   1.000  O
  C176     1.0000 0.85471  0.61021  0.15723  Biso   1.000  C
  H166     1.0000 0.95881  0.58992  0.21999  Biso   1.000  H
  H167     1.0000 0.97049  0.66168  0.04620  Biso   1.000  H
  C177     1.0000 0.86222  0.65250  0.05515  Biso   1.000  C
  H168     1.0000 0.24272  0.93169  0.03070  Biso   1.000  H
  C178     1.0000 0.99845  0.95119  0.23272  Biso   1.000  C
  C179     1.0000 0.81697  0.63330  0.09583  Biso   1.000  C
  H169     1.0000 0.82537  0.59708  0.18590  Biso   1.000  H
  H170     1.0000 0.83820  0.66879  0.01312  Biso   1.000  H
  C180     1.0000 0.95540  0.93535  0.27587  Biso   1.000  C
  C181     1.0000 0.96097  0.97360  0.17108  Biso   1.000  C
  C182     1.0000 0.72865  0.63395  0.07273  Biso   1.000  C
  C183     1.0000 0.87594  0.94122  0.25640  Biso   1.000  C
  H171     1.0000 0.98008  0.92069  0.31838  Biso   1.000  H
  C184     1.0000 0.88145  0.97907  0.15268  Biso   1.000  C
  H172     1.0000 0.98969  0.98529  0.14149  Biso   1.000  H
  C185     1.0000 0.69384  0.64821  0.12905  Biso   1.000  C
  C186     1.0000 0.70179  0.68394  0.01879  Biso   1.000  C
  C187     1.0000 0.70231  0.56446  0.04561  Biso   1.000  C
  C188     1.0000 0.83744  0.96210  0.19486  Biso   1.000  C
  H173     1.0000 0.84720  0.93051  0.28628  Biso   1.000  H
  H174     1.0000 0.85672  0.99472  0.11050  Biso   1.000  H
  C189     1.0000 0.63880  0.61583  0.15055  Biso   1.000  C
  N9       1.0000 0.71663  0.70176  0.16851  Biso   1.000  N
  C190     1.0000 0.65708  0.67777  0.95647  Biso   1.000  C
  N10      1.0000 0.72575  0.74849  0.02620  Biso   1.000  N
  H175     1.0000 0.64633  0.56342  0.03060  Biso   1.000  H
  H176     1.0000 0.71980  0.53149  0.07980  Biso   1.000  H
  H177     1.0000 0.72410  0.55458  0.00939  Biso   1.000  H
  C191     1.0000 0.74899  0.96970  0.17365  Biso   1.000  C
  C192     1.0000 0.62830  0.65073  0.20512  Biso   1.000  C
  H178     1.0000 0.61240  0.57699  0.13229  Biso   1.000  H
  C193     1.0000 0.67760  0.70398  0.21606  Biso   1.000  C
  H179     1.0000 0.75118  0.73068  0.16420  Biso   1.000  H
  H180     1.0000 0.63222  0.63858  0.93729  Biso   1.000  H
  C194     1.0000 0.65455  0.73986  0.92567  Biso   1.000  C
  C195     1.0000 0.69788  0.78339  0.96954  Biso   1.000  C
  H181     1.0000 0.75490  0.76532  0.06218  Biso   1.000  H
  C196     1.0000 0.71106  0.92291  0.21161  Biso   1.000  C
  C197     1.0000 0.71835  0.95765  0.10135  Biso   1.000  C
  C198     1.0000 0.73029  0.04131  0.18861  Biso   1.000  C
  H182     1.0000 0.59347  0.63952  0.22982  Biso   1.000  H
  C199     1.0000 0.69706  0.75279  0.27161  Biso   1.000  C
  H183     1.0000 0.62762  0.74968  0.88228  Biso   1.000  H
  C200     1.0000 0.72476  0.85288  0.96083  Biso   1.000  C
  N11      1.0000 0.72594  0.85623  0.21471  Biso   1.000  N
  C201     1.0000 0.65855  0.93397  0.24657  Biso   1.000  C
  N12      1.0000 0.73787  0.90213  0.07239  Biso   1.000  N
  C202     1.0000 0.67134  0.99442  0.05312  Biso   1.000  C
  H184     1.0000 0.67462  0.04748  0.17689  Biso   1.000  H
  H185     1.0000 0.75311  0.07191  0.16348  Biso   1.000  H
  H186     1.0000 0.75117  0.05009  0.23490  Biso   1.000  H
  C203     1.0000 0.68476  0.82489  0.25199  Biso   1.000  C
  C204     1.0000 0.64780  0.73695  0.31858  Biso   1.000  C
  C205     1.0000 0.78285  0.74356  0.30875  Biso   1.000  C
  C206     1.0000 0.68851  0.87440  0.89037  Biso   1.000  C
  C207     1.0000 0.81349  0.85229  0.97317  Biso   1.000  C
  C208     1.0000 0.70485  0.90337  0.00644  Biso   1.000  C
  H187     1.0000 0.75731  0.83629  0.19558  Biso   1.000  H
  C209     1.0000 0.64205  0.87272  0.27175  Biso   1.000  C
  H188     1.0000 0.63710  0.97542  0.25267  Biso   1.000  H
  H189     1.0000 0.76733  0.87020  0.09302  Biso   1.000  H
  C210     1.0000 0.66276  0.96062  0.99385  Biso   1.000  C
  H190     1.0000 0.64847  0.03549  0.05859  Biso   1.000  H
  H191     1.0000 0.59361  0.74272  0.29621  Biso   1.000  H
  H192     1.0000 0.66181  0.76680  0.35591  Biso   1.000  H
  H193     1.0000 0.65686  0.69120  0.33349  Biso   1.000  H
  H194     1.0000 0.79116  0.69830  0.32531  Biso   1.000  H
  H195     1.0000 0.79636  0.77470  0.34502  Biso   1.000  H
  H196     1.0000 0.81510  0.75190  0.27931  Biso   1.000  H
  H197     1.0000 0.70386  0.84370  0.86078  Biso   1.000  H
  H198     1.0000 0.70603  0.91901  0.88369  Biso   1.000  H
  H199     1.0000 0.63263  0.87430  0.88190  Biso   1.000  H
  H200     1.0000 0.83116  0.89651  0.96538  Biso   1.000  H
  H201     1.0000 0.82786  0.82070  0.94378  Biso   1.000  H
  H202     1.0000 0.83721  0.83940  0.01811  Biso   1.000  H
  H203     1.0000 0.60761  0.86591  0.29771  Biso   1.000  H
  H204     1.0000 0.63312  0.97488  0.95259  Biso   1.000  H
  C211     1.0000 0.51963  0.34103  0.62117  Biso   1.000  C
  C212     1.0000 0.48067  0.29045  0.58297  Biso   1.000  C
  C213     1.0000 0.59484  0.33353  0.65890  Biso   1.000  C
  H205     1.0000 0.49454  0.38209  0.62180  Biso   1.000  H
  H206     1.0000 0.42987  0.29701  0.55711  Biso   1.000  H
  C214     1.0000 0.51651  0.23009  0.58277  Biso   1.000  C
  C215     1.0000 0.63030  0.27194  0.65802  Biso   1.000  C
  C216     1.0000 0.63798  0.39078  0.69759  Biso   1.000  C
  C217     1.0000 0.59183  0.21977  0.62035  Biso   1.000  C
  H207     1.0000 0.48977  0.19509  0.55687  Biso   1.000  H
  O19      1.0000 0.70473  0.26187  0.69202  Biso   1.000  O
  C218     1.0000 0.64783  0.38436  0.77012  Biso   1.000  C
  H208     1.0000 0.68914  0.39399  0.68931  Biso   1.000  H
  H209     1.0000 0.61016  0.43219  0.68219  Biso   1.000  H
  C219     1.0000 0.63102  0.15364  0.62171  Biso   1.000  C
  H210     1.0000 0.71936  0.29341  0.71788  Biso   1.000  H
  C220     1.0000 0.71645  0.36344  0.81259  Biso   1.000  C
  C221     1.0000 0.58655  0.39700  0.79642  Biso   1.000  C
  C222     1.0000 0.63390  0.11702  0.68500  Biso   1.000  C
  H211     1.0000 0.60296  0.12669  0.58447  Biso   1.000  H
  H212     1.0000 0.68375  0.16040  0.61778  Biso   1.000  H
  C223     1.0000 0.72393  0.35071  0.87825  Biso   1.000  C
  O20      1.0000 0.78085  0.35411  0.78886  Biso   1.000  O
  C224     1.0000 0.59344  0.38969  0.86179  Biso   1.000  C
  H213     1.0000 0.53906  0.41102  0.76877  Biso   1.000  H
  C225     1.0000 0.70195  0.10621  0.73255  Biso   1.000  C
  C226     1.0000 0.56540  0.09841  0.69841  Biso   1.000  C
  C227     1.0000 0.66136  0.36601  0.90217  Biso   1.000  C
  C228     1.0000 0.79537  0.31917  0.92125  Biso   1.000  C
  C229     1.0000 0.82246  0.41496  0.78823  Biso   1.000  C
  H214     1.0000 0.55192  0.40080  0.87917  Biso   1.000  H
  C230     1.0000 0.70282  0.08178  0.79366  Biso   1.000  C
  O21      1.0000 0.77208  0.12141  0.71976  Biso   1.000  O
  H215     1.0000 0.51838  0.10502  0.66660  Biso   1.000  H
  C231     1.0000 0.56509  0.07043  0.75749  Biso   1.000  C
  H216     1.0000 0.66523  0.36008  0.94687  Biso   1.000  H
  H217     1.0000 0.83765  0.32292  0.90009  Biso   1.000  H
  H218     1.0000 0.81061  0.34330  0.96290  Biso   1.000  H
  C232     1.0000 0.78274  0.24662  0.93442  Biso   1.000  C
  C233     1.0000 0.90340  0.40055  0.78659  Biso   1.000  C
  H219     1.0000 0.79667  0.44142  0.74979  Biso   1.000  H
  H220     1.0000 0.82283  0.44112  0.82736  Biso   1.000  H
  C234     1.0000 0.77564  0.07921  0.84891  Biso   1.000  C
  C235     1.0000 0.63344  0.06332  0.80494  Biso   1.000  C
  C236     1.0000 0.79807  0.06860  0.68514  Biso   1.000  C
  H221     1.0000 0.51834  0.05631  0.76538  Biso   1.000  H
  C237     1.0000 0.78315  0.19840  0.88770  Biso   1.000  C
  C238     1.0000 0.77190  0.22668  0.99394  Biso   1.000  C
  H222     1.0000 0.92786  0.44092  0.77506  Biso   1.000  H
  H223     1.0000 0.90407  0.36610  0.75400  Biso   1.000  H
  O22      1.0000 0.94370  0.37820  0.84983  Biso   1.000  O
  C239     1.0000 0.77429  0.13113  0.90004  Biso   1.000  C
  H224     1.0000 0.78097  0.03489  0.86900  Biso   1.000  H
  H225     1.0000 0.82055  0.08681  0.83157  Biso   1.000  H
  H226     1.0000 0.63295  0.04550  0.84591  Biso   1.000  H
  H227     1.0000 0.78815  0.02552  0.70311  Biso   1.000  H
  H228     1.0000 0.76936  0.06988  0.63890  Biso   1.000  H
  C240     1.0000 0.88272  0.07576  0.69115  Biso   1.000  C
  O23      1.0000 0.79263  0.21775  0.82915  Biso   1.000  O
  C241     1.0000 0.76201  0.16069  0.00720  Biso   1.000  C
  H229     1.0000 0.77140  0.25901  0.02599  Biso   1.000  H
  C242     1.0000 0.02210  0.37543  0.86358  Biso   1.000  C
  C243     1.0000 0.76354  0.11356  0.96019  Biso   1.000  C
  H230     1.0000 0.89536  0.12250  0.68509  Biso   1.000  H
  H231     1.0000 0.89734  0.04881  0.65778  Biso   1.000  H
  O24      1.0000 0.92309  0.05375  0.75443  Biso   1.000  O
  H232     1.0000 0.80563  0.18508  0.81027  Biso   1.000  H
  H233     1.0000 0.75419  0.14791  0.04769  Biso   1.000  H
  C244     1.0000 0.06540  0.39424  0.82213  Biso   1.000  C
  C245     1.0000 0.05885  0.35169  0.92518  Biso   1.000  C
  H234     1.0000 0.75721  0.06831  0.96929  Biso   1.000  H
  C246     1.0000 0.00146  0.04881  0.76722  Biso   1.000  C
  C247     1.0000 0.14522  0.38979  0.84276  Biso   1.000  C
  H235     1.0000 0.04112  0.41008  0.78000  Biso   1.000  H
  H236     1.0000 0.02944  0.33832  0.95379  Biso   1.000  H
  C248     1.0000 0.13770  0.34750  0.94484  Biso   1.000  C
  C249     1.0000 0.04453  0.06465  0.72412  Biso   1.000  C
  C250     1.0000 0.03895  0.02640  0.82886  Biso   1.000  C
  C251     1.0000 0.18296  0.36670  0.90416  Biso   1.000  C
  H237     1.0000 0.17456  0.40292  0.81409  Biso   1.000  H
  H238     1.0000 0.16173  0.33121  0.98687  Biso   1.000  H
  H239     1.0000 0.01985  0.07931  0.68161  Biso   1.000  H
  C252     1.0000 0.12399  0.05878  0.74359  Biso   1.000  C
  C253     1.0000 0.11848  0.02093  0.84731  Biso   1.000  C
  H240     1.0000 0.01024  0.01471  0.85850  Biso   1.000  H
  C254     1.0000 0.27128  0.36605  0.92726  Biso   1.000  C
  H241     1.0000 0.15271  0.06949  0.71366  Biso   1.000  H
  C255     1.0000 0.16244  0.03790  0.80513  Biso   1.000  C
  H242     1.0000 0.14321  0.00528  0.88949  Biso   1.000  H
  C256     1.0000 0.30609  0.35179  0.87094  Biso   1.000  C
  C257     1.0000 0.29814  0.31606  0.98120  Biso   1.000  C
  C258     1.0000 0.29762  0.43554  0.95437  Biso   1.000  C
  C259     1.0000 0.25093  0.03030  0.82630  Biso   1.000  C
  C260     1.0000 0.36113  0.38417  0.84944  Biso   1.000  C
  N13      1.0000 0.28330  0.29824  0.83148  Biso   1.000  N
  N14      1.0000 0.27418  0.25151  0.97379  Biso   1.000  N
  C261     1.0000 0.34285  0.32223  0.04352  Biso   1.000  C
  H243     1.0000 0.35360  0.43658  0.96939  Biso   1.000  H
  H244     1.0000 0.28012  0.46851  0.92019  Biso   1.000  H
  H245     1.0000 0.27583  0.44542  0.99060  Biso   1.000  H
  C262     1.0000 0.26964  0.95869  0.81138  Biso   1.000  C
  C263     1.0000 0.28157  0.04235  0.89859  Biso   1.000  C
  C264     1.0000 0.28887  0.07709  0.78838  Biso   1.000  C
  C265     1.0000 0.37163  0.34927  0.79487  Biso   1.000  C
  H246     1.0000 0.38753  0.42301  0.86770  Biso   1.000  H
  C266     1.0000 0.32233  0.29602  0.78392  Biso   1.000  C
  H247     1.0000 0.24875  0.26932  0.83579  Biso   1.000  H
  H248     1.0000 0.24501  0.23468  0.93777  Biso   1.000  H
  C267     1.0000 0.30205  0.21661  0.03045  Biso   1.000  C
  H249     1.0000 0.36771  0.36142  0.06270  Biso   1.000  H
  C268     1.0000 0.34538  0.26014  0.07432  Biso   1.000  C
  H250     1.0000 0.32531  0.95252  0.82310  Biso   1.000  H
  H251     1.0000 0.24681  0.92809  0.83646  Biso   1.000  H
  H252     1.0000 0.24876  0.94991  0.76509  Biso   1.000  H
  C269     1.0000 0.32853  0.00558  0.94687  Biso   1.000  C
  N15      1.0000 0.26206  0.09787  0.92760  Biso   1.000  N
  C270     1.0000 0.34138  0.06603  0.75342  Biso   1.000  C
  N16      1.0000 0.27399  0.14377  0.78528  Biso   1.000  N
  H253     1.0000 0.40646  0.36048  0.77017  Biso   1.000  H
  C271     1.0000 0.30287  0.24721  0.72838  Biso   1.000  C
  C272     1.0000 0.27515  0.14712  0.03912  Biso   1.000  C
  H254     1.0000 0.37226  0.25032  0.11771  Biso   1.000  H
  H255     1.0000 0.35140  0.96451  0.94140  Biso   1.000  H
  C273     1.0000 0.33717  0.03938  0.00614  Biso   1.000  C
  C274     1.0000 0.29508  0.09663  0.99355  Biso   1.000  C
  H256     1.0000 0.23260  0.12980  0.90697  Biso   1.000  H
  H257     1.0000 0.36282  0.02458  0.74727  Biso   1.000  H
  C275     1.0000 0.35788  0.12728  0.72824  Biso   1.000  C
  C276     1.0000 0.31517  0.17511  0.74799  Biso   1.000  C
  H258     1.0000 0.24262  0.16371  0.80441  Biso   1.000  H
  C277     1.0000 0.35212  0.26305  0.68136  Biso   1.000  C
  C278     1.0000 0.21708  0.25644  0.69124  Biso   1.000  C
  C279     1.0000 0.31142  0.12560  0.10962  Biso   1.000  C
  C280     1.0000 0.18643  0.14771  0.02677  Biso   1.000  C
  H259     1.0000 0.36681  0.02512  0.04740  Biso   1.000  H
  H260     1.0000 0.39232  0.13409  0.70228  Biso   1.000  H
  H261     1.0000 0.40632  0.25728  0.70378  Biso   1.000  H
  H262     1.0000 0.33812  0.23320  0.64408  Biso   1.000  H
  H263     1.0000 0.34307  0.30880  0.66650  Biso   1.000  H
  H264     1.0000 0.20877  0.30170  0.67468  Biso   1.000  H
  H265     1.0000 0.20357  0.22530  0.65497  Biso   1.000  H
  H266     1.0000 0.18483  0.24810  0.72068  Biso   1.000  H
  H267     1.0000 0.29607  0.15630  0.13921  Biso   1.000  H
  H268     1.0000 0.29390  0.08099  0.11630  Biso   1.000  H
  H269     1.0000 0.36730  0.12570  0.11809  Biso   1.000  H
  H270     1.0000 0.16272  0.16060  0.98188  Biso   1.000  H
  H271     1.0000 0.16877  0.10349  0.03461  Biso   1.000  H
  H272     1.0000 0.17207  0.17930  0.05621  Biso   1.000  H
