data_image0
_cell_length_a       17.707
_cell_length_b       19.239
_cell_length_c       27.821
_cell_angle_alpha    71.9
_cell_angle_beta     75.38
_cell_angle_gamma    69.25

_symmetry_space_group_name_H-M    "P 1"
_symmetry_int_tables_number       1

loop_
  _symmetry_equiv_pos_as_xyz
  'x, y, z'

loop_
  _atom_site_label
  _atom_site_occupancy
  _atom_site_fract_x
  _atom_site_fract_y
  _atom_site_fract_z
  _atom_site_thermal_displace_type
  _atom_site_B_iso_or_equiv
  _atom_site_type_symbol
  C1       1.0000 0.56002  0.70600  0.34613  Biso   1.000  C
  C2       1.0000 0.62362  0.67921  0.31042  Biso   1.000  C
  H1       1.0000 0.56242  0.70186  0.38068  Biso   1.000  H
  C3       1.0000 0.49070  0.74046  0.32226  Biso   1.000  C
  C4       1.0000 0.71191  0.63047  0.31510  Biso   1.000  C
  N1       1.0000 0.59414  0.69765  0.26549  Biso   1.000  N
  C5       1.0000 0.51221  0.73505  0.27158  Biso   1.000  C
  H2       1.0000 0.43732  0.76397  0.33808  Biso   1.000  H
  C6       1.0000 0.72891  0.55923  0.29441  Biso   1.000  C
  C7       1.0000 0.76943  0.67774  0.28709  Biso   1.000  C
  C8       1.0000 0.72208  0.60159  0.37218  Biso   1.000  C
  H3       1.0000 0.62398  0.68689  0.23672  Biso   1.000  H
  C9       1.0000 0.46202  0.75430  0.23036  Biso   1.000  C
  C10      1.0000 0.79928  0.53009  0.26330  Biso   1.000  C
  C11      1.0000 0.66933  0.52226  0.30778  Biso   1.000  C
  N2       1.0000 0.78024  0.70469  0.23469  Biso   1.000  N
  C12      1.0000 0.81540  0.70549  0.30544  Biso   1.000  C
  H4       1.0000 0.71102  0.64547  0.38639  Biso   1.000  H
  H5       1.0000 0.77812  0.56835  0.37521  Biso   1.000  H
  H6       1.0000 0.68349  0.57258  0.39099  Biso   1.000  H
  C13      1.0000 0.48002  0.81637  0.18438  Biso   1.000  C
  C14      1.0000 0.37009  0.78080  0.25288  Biso   1.000  C
  C15      1.0000 0.47799  0.68091  0.21220  Biso   1.000  C
  C16      1.0000 0.81161  0.46462  0.24748  Biso   1.000  C
  H7       1.0000 0.84040  0.55518  0.25231  Biso   1.000  H
  C17      1.0000 0.68048  0.45708  0.29238  Biso   1.000  C
  H8       1.0000 0.61912  0.54247  0.32820  Biso   1.000  H
  H9       1.0000 0.75679  0.69537  0.21400  Biso   1.000  H
  C18      1.0000 0.83298  0.74847  0.21925  Biso   1.000  C
  C19      1.0000 0.85512  0.74956  0.26292  Biso   1.000  C
  H10      1.0000 0.81971  0.69659  0.34038  Biso   1.000  H
  N3       1.0000 0.55465  0.80522  0.15270  Biso   1.000  N
  C20      1.0000 0.43142  0.88730  0.16232  Biso   1.000  C
  H11      1.0000 0.35812  0.74267  0.28418  Biso   1.000  H
  H12      1.0000 0.33714  0.78595  0.22771  Biso   1.000  H
  H13      1.0000 0.35690  0.83029  0.26089  Biso   1.000  H
  H14      1.0000 0.53410  0.66637  0.19389  Biso   1.000  H
  H15      1.0000 0.43940  0.69098  0.18921  Biso   1.000  H
  H16      1.0000 0.47039  0.63899  0.24200  Biso   1.000  H
  C21      1.0000 0.75242  0.42771  0.26254  Biso   1.000  C
  H17      1.0000 0.86108  0.44516  0.22622  Biso   1.000  H
  H18      1.0000 0.63881  0.43279  0.30242  Biso   1.000  H
  C22      1.0000 0.86483  0.77761  0.16377  Biso   1.000  C
  H19      1.0000 0.89100  0.77550  0.26418  Biso   1.000  H
  C23      1.0000 0.55349  0.86672  0.11087  Biso   1.000  C
  H20      1.0000 0.59722  0.76437  0.15849  Biso   1.000  H
  C24      1.0000 0.47680  0.91867  0.11654  Biso   1.000  C
  H21      1.0000 0.37640  0.91100  0.17580  Biso   1.000  H
  O1       1.0000 0.76941  0.36365  0.24499  Biso   1.000  O
  C25      1.0000 0.80024  0.83600  0.13270  Biso   1.000  C
  C26      1.0000 0.93198  0.81280  0.16010  Biso   1.000  C
  C27      1.0000 0.90289  0.70911  0.13830  Biso   1.000  C
  C28      1.0000 0.62611  0.86919  0.06934  Biso   1.000  C
  H22      1.0000 0.45790  0.96710  0.09371  Biso   1.000  H
  C29      1.0000 0.70617  0.32890  0.25733  Biso   1.000  C
  N4       1.0000 0.73808  0.81768  0.12351  Biso   1.000  N
  C30      1.0000 0.79651  0.90904  0.10367  Biso   1.000  C
  H23      1.0000 0.90822  0.85848  0.17381  Biso   1.000  H
  H24      1.0000 0.95674  0.82709  0.12409  Biso   1.000  H
  H25      1.0000 0.97412  0.77521  0.17990  Biso   1.000  H
  H26      1.0000 0.94699  0.67088  0.15619  Biso   1.000  H
  H27      1.0000 0.92502  0.72729  0.10229  Biso   1.000  H
  H28      1.0000 0.86080  0.68582  0.14029  Biso   1.000  H
  C31      1.0000 0.65823  0.79674  0.04842  Biso   1.000  C
  C32      1.0000 0.69543  0.87688  0.08857  Biso   1.000  C
  C33      1.0000 0.60133  0.93821  0.02410  Biso   1.000  C
  C34      1.0000 0.73758  0.25746  0.23821  Biso   1.000  C
  H29      1.0000 0.65844  0.36476  0.24120  Biso   1.000  H
  H30      1.0000 0.68857  0.31609  0.29491  Biso   1.000  H
  H31      1.0000 0.72702  0.77398  0.13799  Biso   1.000  H
  C35      1.0000 0.73021  0.93470  0.07578  Biso   1.000  C
  H32      1.0000 0.83171  0.93730  0.10240  Biso   1.000  H
  C36      1.0000 0.60781  0.75288  0.05195  Biso   1.000  C
  C37      1.0000 0.73770  0.77520  0.02345  Biso   1.000  C
  H33      1.0000 0.55871  0.93268  0.01019  Biso   1.000  H
  H34      1.0000 0.58043  0.98547  0.03590  Biso   1.000  H
  H35      1.0000 0.64919  0.94032  0.99736  Biso   1.000  H
  O2       1.0000 0.75400  0.27810  0.18362  Biso   1.000  O
  H36      1.0000 0.78832  0.22350  0.25189  Biso   1.000  H
  H37      1.0000 0.69642  0.22940  0.24989  Biso   1.000  H
  H38      1.0000 0.71331  0.98307  0.05248  Biso   1.000  H
  C38      1.0000 0.63711  0.69090  0.03038  Biso   1.000  C
  H39      1.0000 0.55302  0.76598  0.06930  Biso   1.000  H
  C39      1.0000 0.76790  0.71310  0.00130  Biso   1.000  C
  H40      1.0000 0.77301  0.80378  0.02130  Biso   1.000  H
  C40      1.0000 0.75731  0.22152  0.16098  Biso   1.000  C
  C41      1.0000 0.71601  0.67128  0.00456  Biso   1.000  C
  H41      1.0000 0.60240  0.66117  0.03341  Biso   1.000  H
  H42      1.0000 0.82293  0.69941  0.98433  Biso   1.000  H
  C42      1.0000 0.68640  0.22590  0.14611  Biso   1.000  C
  C43      1.0000 0.83140  0.16638  0.15155  Biso   1.000  C
  O3       1.0000 0.73879  0.60945  0.98349  Biso   1.000  O
  C44      1.0000 0.60788  0.29071  0.15190  Biso   1.000  C
  C45      1.0000 0.69068  0.17147  0.12125  Biso   1.000  C
  C46      1.0000 0.83279  0.11260  0.12734  Biso   1.000  C
  C47      1.0000 0.91010  0.16797  0.16362  Biso   1.000  C
  C48      1.0000 0.82179  0.58304  0.96135  Biso   1.000  C
  C49      1.0000 0.58064  0.33457  0.10083  Biso   1.000  C
  H43      1.0000 0.56439  0.26949  0.17481  Biso   1.000  H
  H44      1.0000 0.61649  0.32609  0.16791  Biso   1.000  H
  H45      1.0000 0.64321  0.17367  0.11022  Biso   1.000  H
  C50      1.0000 0.76178  0.11538  0.11259  Biso   1.000  C
  H46      1.0000 0.88239  0.07370  0.12079  Biso   1.000  H
  C51      1.0000 0.96639  0.18017  0.11252  Biso   1.000  C
  C52      1.0000 0.93877  0.24260  0.13010  Biso   1.000  C
  C53      1.0000 0.83121  0.51533  0.94208  Biso   1.000  C
  H47      1.0000 0.85782  0.56795  0.98724  Biso   1.000  H
  H48      1.0000 0.83701  0.62402  0.93273  Biso   1.000  H
  C54      1.0000 0.51161  0.33028  0.08811  Biso   1.000  C
  C55      1.0000 0.62778  0.37639  0.06371  Biso   1.000  C
  H49      1.0000 0.76311  0.07801  0.09639  Biso   1.000  H
  C56      1.0000 0.94978  0.24819  0.07670  Biso   1.000  C
  C57      1.0000 0.95991  0.25152  0.07838  Biso   1.000  C
  O4       1.0000 0.97852  0.18908  0.05762  Biso   1.000  O
  C58      1.0000 0.03732  0.12268  0.10010  Biso   1.000  C
  O5       1.0000 0.87929  0.30618  0.08850  Biso   1.000  O
  C59      1.0000 0.92831  0.30421  0.14979  Biso   1.000  C
  O6       1.0000 0.82147  0.45378  0.98663  Biso   1.000  O
  H50      1.0000 0.78911  0.52804  0.92055  Biso   1.000  H
  H51      1.0000 0.88582  0.50011  0.92124  Biso   1.000  H
  C60      1.0000 0.49207  0.36621  0.03911  Biso   1.000  C
  H52      1.0000 0.47778  0.30280  0.11278  Biso   1.000  H
  O7       1.0000 0.69602  0.38121  0.07635  Biso   1.000  O
  C61      1.0000 0.60993  0.40907  0.01433  Biso   1.000  C
  C62      1.0000 0.99398  0.26082  0.02789  Biso   1.000  C
  C63      1.0000 0.97166  0.31831  0.04501  Biso   1.000  C
  C64      1.0000 0.06350  0.20259  0.01720  Biso   1.000  C
  C65      1.0000 0.06433  0.14718  0.04938  Biso   1.000  C
  H53      1.0000 0.05169  0.07509  0.12458  Biso   1.000  H
  C66      1.0000 0.08440  0.13279  0.05559  Biso   1.000  C
  H54      1.0000 0.07918  0.10969  0.08122  Biso   1.000  H
  C67      1.0000 0.89114  0.35808  0.11148  Biso   1.000  C
  H55      1.0000 0.90730  0.33051  0.14519  Biso   1.000  H
  H56      1.0000 0.91213  0.29958  0.18569  Biso   1.000  H
  C68      1.0000 0.94049  0.36869  0.11999  Biso   1.000  C
  C69      1.0000 0.82238  0.38990  0.97314  Biso   1.000  C
  C70      1.0000 0.54033  0.40269  0.00322  Biso   1.000  C
  H57      1.0000 0.44369  0.36458  0.03111  Biso   1.000  H
  C71      1.0000 0.68161  0.44716  0.09482  Biso   1.000  C
  C72      1.0000 0.67009  0.44642  0.97349  Biso   1.000  C
  C73      1.0000 0.97111  0.33172  0.98740  Biso   1.000  C
  C74      1.0000 0.96002  0.37819  0.06608  Biso   1.000  C
  H58      1.0000 0.09717  0.20885  0.98475  Biso   1.000  H
  H59      1.0000 0.09680  0.18293  0.03888  Biso   1.000  H
  H60      1.0000 0.13311  0.09318  0.04869  Biso   1.000  H
  H61      1.0000 0.07510  0.12042  0.02241  Biso   1.000  H
  H62      1.0000 0.84003  0.39957  0.11550  Biso   1.000  H
  H63      1.0000 0.93408  0.37980  0.08949  Biso   1.000  H
  H64      1.0000 0.93609  0.40890  0.13451  Biso   1.000  H
  C75      1.0000 0.75112  0.38561  0.96391  Biso   1.000  C
  C76      1.0000 0.89579  0.33021  0.97131  Biso   1.000  C
  H65      1.0000 0.52710  0.42453  0.96966  Biso   1.000  H
  H66      1.0000 0.65178  0.49312  0.07160  Biso   1.000  H
  H67      1.0000 0.73400  0.45238  0.09620  Biso   1.000  H
  H68      1.0000 0.64899  0.44130  0.12922  Biso   1.000  H
  H69      1.0000 0.64711  0.47156  0.94123  Biso   1.000  H
  H70      1.0000 0.67888  0.48605  0.98533  Biso   1.000  H
  H71      1.0000 0.96502  0.42588  0.04452  Biso   1.000  H
  C77      1.0000 0.75501  0.32213  0.94920  Biso   1.000  C
  C78      1.0000 0.89678  0.26705  0.95663  Biso   1.000  C
  C79      1.0000 0.82818  0.26340  0.94503  Biso   1.000  C
  H72      1.0000 0.70717  0.31842  0.94185  Biso   1.000  H
  H73      1.0000 0.94587  0.22582  0.95476  Biso   1.000  H
  H74      1.0000 0.83028  0.22065  0.93395  Biso   1.000  H
  C80      1.0000 0.43999  0.29392  0.65387  Biso   1.000  C
  C81      1.0000 0.37638  0.32071  0.68957  Biso   1.000  C
  H75      1.0000 0.43759  0.29806  0.61931  Biso   1.000  H
  C82      1.0000 0.50931  0.25946  0.67774  Biso   1.000  C
  C83      1.0000 0.28809  0.36945  0.68490  Biso   1.000  C
  N5       1.0000 0.40587  0.30227  0.73451  Biso   1.000  N
  C84      1.0000 0.48780  0.26487  0.72842  Biso   1.000  C
  H76      1.0000 0.56269  0.23595  0.66192  Biso   1.000  H
  C85      1.0000 0.27792  0.39833  0.62782  Biso   1.000  C
  C86      1.0000 0.23057  0.32218  0.71291  Biso   1.000  C
  C87      1.0000 0.27110  0.44069  0.70559  Biso   1.000  C
  H77      1.0000 0.37603  0.31303  0.76328  Biso   1.000  H
  C88      1.0000 0.53799  0.24562  0.76964  Biso   1.000  C
  H78      1.0000 0.28899  0.35445  0.61361  Biso   1.000  H
  H79      1.0000 0.22188  0.43157  0.62479  Biso   1.000  H
  H80      1.0000 0.31652  0.42734  0.60901  Biso   1.000  H
  N6       1.0000 0.21977  0.29523  0.76531  Biso   1.000  N
  C89      1.0000 0.18460  0.29443  0.69456  Biso   1.000  C
  C90      1.0000 0.20073  0.46983  0.73670  Biso   1.000  C
  C91      1.0000 0.33073  0.47766  0.69222  Biso   1.000  C
  C92      1.0000 0.51999  0.18355  0.81561  Biso   1.000  C
  C93      1.0000 0.62992  0.21912  0.74712  Biso   1.000  C
  C94      1.0000 0.52202  0.31901  0.78780  Biso   1.000  C
  H81      1.0000 0.24322  0.30455  0.78600  Biso   1.000  H
  C95      1.0000 0.16702  0.25145  0.78075  Biso   1.000  C
  C96      1.0000 0.14489  0.25036  0.73708  Biso   1.000  C
  H82      1.0000 0.18030  0.30333  0.65962  Biso   1.000  H
  H83      1.0000 0.15960  0.44474  0.74769  Biso   1.000  H
  C97      1.0000 0.18840  0.53530  0.75252  Biso   1.000  C
  C98      1.0000 0.31953  0.54284  0.70762  Biso   1.000  C
  H84      1.0000 0.38089  0.45745  0.67180  Biso   1.000  H
  N7       1.0000 0.44536  0.19470  0.84730  Biso   1.000  N
  C99      1.0000 0.56858  0.11260  0.83772  Biso   1.000  C
  H85      1.0000 0.64189  0.25725  0.71582  Biso   1.000  H
  H86      1.0000 0.66287  0.21397  0.77229  Biso   1.000  H
  H87      1.0000 0.64311  0.16963  0.73911  Biso   1.000  H
  H88      1.0000 0.46590  0.33355  0.80611  Biso   1.000  H
  H89      1.0000 0.56061  0.30894  0.81079  Biso   1.000  H
  H90      1.0000 0.52962  0.36093  0.75800  Biso   1.000  H
  C100     1.0000 0.13523  0.22231  0.83622  Biso   1.000  C
  H91      1.0000 0.10901  0.22442  0.73581  Biso   1.000  H
  H92      1.0000 0.13892  0.55474  0.77382  Biso   1.000  H
  C101     1.0000 0.24759  0.57221  0.73746  Biso   1.000  C
  H93      1.0000 0.36120  0.56713  0.69758  Biso   1.000  H
  H94      1.0000 0.40279  0.23555  0.84151  Biso   1.000  H
  C102     1.0000 0.44651  0.13320  0.88913  Biso   1.000  C
  H95      1.0000 0.62361  0.08892  0.82420  Biso   1.000  H
  C103     1.0000 0.52320  0.08125  0.88346  Biso   1.000  C
  C104     1.0000 0.19983  0.16392  0.86729  Biso   1.000  C
  C105     1.0000 0.06803  0.18712  0.83990  Biso   1.000  C
  C106     1.0000 0.09712  0.29081  0.86170  Biso   1.000  C
  O8       1.0000 0.23060  0.63627  0.75501  Biso   1.000  O
  C107     1.0000 0.37390  0.13073  0.93066  Biso   1.000  C
  H96      1.0000 0.54211  0.03282  0.90629  Biso   1.000  H
  N8       1.0000 0.26193  0.18224  0.87649  Biso   1.000  N
  C108     1.0000 0.20350  0.09088  0.89633  Biso   1.000  C
  H97      1.0000 0.09178  0.14144  0.82619  Biso   1.000  H
  H98      1.0000 0.04332  0.17283  0.87591  Biso   1.000  H
  H99      1.0000 0.02589  0.22471  0.82010  Biso   1.000  H
  H100     1.0000 0.05302  0.32904  0.84381  Biso   1.000  H
  H101     1.0000 0.07499  0.27263  0.89771  Biso   1.000  H
  H102     1.0000 0.13921  0.31410  0.85971  Biso   1.000  H
  C109     1.0000 0.29384  0.67102  0.74267  Biso   1.000  C
  C110     1.0000 0.30457  0.12304  0.91143  Biso   1.000  C
  C111     1.0000 0.39868  0.06171  0.97590  Biso   1.000  C
  C112     1.0000 0.34178  0.20318  0.95157  Biso   1.000  C
  H103     1.0000 0.27298  0.22594  0.86201  Biso   1.000  H
  C113     1.0000 0.26980  0.06522  0.92422  Biso   1.000  C
  H104     1.0000 0.16830  0.06262  0.89760  Biso   1.000  H
  H105     1.0000 0.34164  0.63511  0.75880  Biso   1.000  H
  H106     1.0000 0.31143  0.68383  0.70509  Biso   1.000  H
  C114     1.0000 0.26243  0.74246  0.76179  Biso   1.000  C
  H107     1.0000 0.44130  0.06724  0.98981  Biso   1.000  H
  H108     1.0000 0.41957  0.01445  0.96410  Biso   1.000  H
  H109     1.0000 0.35082  0.05960  0.00264  Biso   1.000  H
  C115     1.0000 0.39219  0.24703  0.94809  Biso   1.000  C
  C116     1.0000 0.26231  0.22472  0.97655  Biso   1.000  C
  H110     1.0000 0.28672  0.01679  0.94751  Biso   1.000  H
  O9       1.0000 0.24601  0.72182  0.81638  Biso   1.000  O
  H111     1.0000 0.21169  0.77642  0.74811  Biso   1.000  H
  H112     1.0000 0.30364  0.77052  0.75010  Biso   1.000  H
  C117     1.0000 0.36289  0.30902  0.96962  Biso   1.000  C
  H113     1.0000 0.44699  0.23394  0.93070  Biso   1.000  H
  H114     1.0000 0.22700  0.19614  0.97870  Biso   1.000  H
  C118     1.0000 0.23211  0.28682  0.99870  Biso   1.000  C
  C119     1.0000 0.24270  0.77840  0.83902  Biso   1.000  C
  C120     1.0000 0.28399  0.32863  0.99548  Biso   1.000  C
  H115     1.0000 0.39763  0.33870  0.96659  Biso   1.000  H
  H116     1.0000 0.17713  0.30051  0.01567  Biso   1.000  H
  C121     1.0000 0.31360  0.77402  0.85389  Biso   1.000  C
  C122     1.0000 0.16860  0.83354  0.84845  Biso   1.000  C
  O10      1.0000 0.26121  0.39045  0.01655  Biso   1.000  O
  C123     1.0000 0.30933  0.82845  0.87875  Biso   1.000  C
  C124     1.0000 0.39212  0.70921  0.84810  Biso   1.000  C
  C125     1.0000 0.16721  0.88732  0.87266  Biso   1.000  C
  C126     1.0000 0.08991  0.83195  0.83638  Biso   1.000  C
  C127     1.0000 0.17822  0.41688  0.03865  Biso   1.000  C
  H117     1.0000 0.35680  0.82625  0.88978  Biso   1.000  H
  C128     1.0000 0.23823  0.88454  0.88741  Biso   1.000  C
  H118     1.0000 0.43562  0.73043  0.82519  Biso   1.000  H
  H119     1.0000 0.38352  0.67383  0.83209  Biso   1.000  H
  C129     1.0000 0.41942  0.66535  0.89917  Biso   1.000  C
  H120     1.0000 0.11762  0.92622  0.87921  Biso   1.000  H
  C130     1.0000 0.03362  0.81975  0.88748  Biso   1.000  C
  C131     1.0000 0.06124  0.75732  0.86990  Biso   1.000  C
  C132     1.0000 0.16880  0.48459  0.05792  Biso   1.000  C
  H121     1.0000 0.14225  0.43197  0.01276  Biso   1.000  H
  H122     1.0000 0.16300  0.37590  0.06727  Biso   1.000  H
  H123     1.0000 0.23690  0.92191  0.90361  Biso   1.000  H
  C133     1.0000 0.37223  0.62353  0.93629  Biso   1.000  C
  C134     1.0000 0.48840  0.66964  0.91189  Biso   1.000  C
  C135     1.0000 0.05023  0.75173  0.92330  Biso   1.000  C
  C136     1.0000 0.04009  0.74840  0.92162  Biso   1.000  C
  O11      1.0000 0.02148  0.81083  0.94242  Biso   1.000  O
  C137     1.0000 0.96269  0.87724  0.89990  Biso   1.000  C
  O12      1.0000 0.12072  0.69374  0.91150  Biso   1.000  O
  C138     1.0000 0.07170  0.69571  0.85021  Biso   1.000  C
  O13      1.0000 0.17853  0.54614  0.01337  Biso   1.000  O
  H124     1.0000 0.21090  0.47188  0.07945  Biso   1.000  H
  H125     1.0000 0.11421  0.49976  0.07876  Biso   1.000  H
  O14      1.0000 0.30404  0.61871  0.92365  Biso   1.000  O
  C139     1.0000 0.39012  0.59083  0.98571  Biso   1.000  C
  C140     1.0000 0.50793  0.63371  0.96088  Biso   1.000  C
  H126     1.0000 0.52223  0.69712  0.88721  Biso   1.000  H
  C141     1.0000 0.00603  0.73910  0.97211  Biso   1.000  C
  C142     1.0000 0.02834  0.68161  0.95498  Biso   1.000  C
  C143     1.0000 0.93651  0.79733  0.98280  Biso   1.000  C
  C144     1.0000 0.93568  0.85274  0.95062  Biso   1.000  C
  H127     1.0000 0.94831  0.92483  0.87542  Biso   1.000  H
  C145     1.0000 0.91561  0.86713  0.94441  Biso   1.000  C
  H128     1.0000 0.92083  0.89023  0.91878  Biso   1.000  H
  C146     1.0000 0.10892  0.64184  0.88852  Biso   1.000  C
  H129     1.0000 0.09271  0.66941  0.85480  Biso   1.000  H
  H130     1.0000 0.08788  0.70034  0.81431  Biso   1.000  H
  C147     1.0000 0.05951  0.63123  0.88001  Biso   1.000  C
  C148     1.0000 0.17763  0.61002  0.02685  Biso   1.000  C
  C149     1.0000 0.31842  0.55270  0.90518  Biso   1.000  C
  C150     1.0000 0.45973  0.59722  0.99682  Biso   1.000  C
  C151     1.0000 0.32992  0.55350  0.02651  Biso   1.000  C
  H131     1.0000 0.55631  0.63534  0.96889  Biso   1.000  H
  C152     1.0000 0.02890  0.66820  0.01260  Biso   1.000  C
  C153     1.0000 0.03998  0.62173  0.93391  Biso   1.000  C
  H132     1.0000 0.90321  0.81699  0.96111  Biso   1.000  H
  H133     1.0000 0.90284  0.79107  0.01525  Biso   1.000  H
  H134     1.0000 0.86690  0.90674  0.95131  Biso   1.000  H
  H135     1.0000 0.92491  0.87950  0.97759  Biso   1.000  H
  H136     1.0000 0.15998  0.60035  0.88449  Biso   1.000  H
  H137     1.0000 0.06592  0.62012  0.91051  Biso   1.000  H
  H138     1.0000 0.06392  0.59102  0.86549  Biso   1.000  H
  C154     1.0000 0.24889  0.61431  0.03609  Biso   1.000  C
  C155     1.0000 0.10422  0.66971  0.02869  Biso   1.000  C
  H139     1.0000 0.34823  0.50680  0.92840  Biso   1.000  H
  H140     1.0000 0.26601  0.54754  0.90380  Biso   1.000  H
  H141     1.0000 0.35101  0.55861  0.87082  Biso   1.000  H
  H142     1.0000 0.47290  0.57538  0.03038  Biso   1.000  H
  H143     1.0000 0.35295  0.52836  0.05877  Biso   1.000  H
  H144     1.0000 0.32112  0.51387  0.01467  Biso   1.000  H
  H145     1.0000 0.03499  0.57404  0.95548  Biso   1.000  H
  C156     1.0000 0.24499  0.67779  0.05080  Biso   1.000  C
  C157     1.0000 0.10323  0.73287  0.04337  Biso   1.000  C
  C158     1.0000 0.17185  0.73646  0.05497  Biso   1.000  C
  H146     1.0000 0.29283  0.68150  0.05815  Biso   1.000  H
  H147     1.0000 0.05414  0.77410  0.04524  Biso   1.000  H
  H148     1.0000 0.16973  0.77927  0.06604  Biso   1.000  H
