data_image0
_cell_length_a       19.123
_cell_length_b       21.138
_cell_length_c       12.799
_cell_angle_alpha    90
_cell_angle_beta     90
_cell_angle_gamma    90

_symmetry_space_group_name_H-M    "P 1"
_symmetry_int_tables_number       1

loop_
  _symmetry_equiv_pos_as_xyz
  'x, y, z'

loop_
  _atom_site_label
  _atom_site_occupancy
  _atom_site_fract_x
  _atom_site_fract_y
  _atom_site_fract_z
  _atom_site_thermal_displace_type
  _atom_site_B_iso_or_equiv
  _atom_site_type_symbol
  C1       1.0000 0.50651  0.62740  0.71435  Biso   1.000  C
  C2       1.0000 0.51179  0.61761  0.82835  Biso   1.000  C
  H1       1.0000 0.49778  0.67130  0.70029  Biso   1.000  H
  H2       1.0000 0.46870  0.60237  0.68716  Biso   1.000  H
  H3       1.0000 0.54939  0.61482  0.68169  Biso   1.000  H
  C3       1.0000 0.44240  0.62258  0.88765  Biso   1.000  C
  C4       1.0000 0.53501  0.54527  0.83686  Biso   1.000  C
  C5       1.0000 0.57172  0.64930  0.88296  Biso   1.000  C
  C6       1.0000 0.37761  0.62338  0.83686  Biso   1.000  C
  C7       1.0000 0.44130  0.62399  0.99758  Biso   1.000  C
  H4       1.0000 0.50311  0.51940  0.79780  Biso   1.000  H
  H5       1.0000 0.53449  0.53250  0.90874  Biso   1.000  H
  H6       1.0000 0.58139  0.54050  0.80905  Biso   1.000  H
  H7       1.0000 0.61089  0.65200  0.83639  Biso   1.000  H
  H8       1.0000 0.58448  0.62518  0.94359  Biso   1.000  H
  H9       1.0000 0.55791  0.69108  0.90390  Biso   1.000  H
  C8       1.0000 0.31423  0.62295  0.89085  Biso   1.000  C
  H10      1.0000 0.37672  0.62418  0.76428  Biso   1.000  H
  C9       1.0000 0.37949  0.62347  0.05446  Biso   1.000  C
  H11      1.0000 0.48361  0.62532  0.03336  Biso   1.000  H
  C10      1.0000 0.24552  0.63085  0.83038  Biso   1.000  C
  C11      1.0000 0.31679  0.61983  0.99883  Biso   1.000  C
  C12      1.0000 0.38221  0.63043  0.17275  Biso   1.000  C
  C13      1.0000 0.24661  0.69273  0.77115  Biso   1.000  C
  H12      1.0000 0.23971  0.59599  0.78186  Biso   1.000  H
  H13      1.0000 0.20640  0.63048  0.87866  Biso   1.000  H
  O1       1.0000 0.25336  0.61766  0.05602  Biso   1.000  O
  C14      1.0000 0.41421  0.69254  0.20619  Biso   1.000  C
  H14      1.0000 0.33509  0.62750  0.20056  Biso   1.000  H
  H15      1.0000 0.40930  0.59589  0.20189  Biso   1.000  H
  C15      1.0000 0.25655  0.69359  0.66240  Biso   1.000  C
  C16      1.0000 0.24233  0.74998  0.82421  Biso   1.000  C
  P1       1.0000 0.21958  0.55161  0.08516  Biso   1.000  P
  C17      1.0000 0.38352  0.74998  0.17923  Biso   1.000  C
  C18      1.0000 0.47409  0.69387  0.26885  Biso   1.000  C
  C19      1.0000 0.26199  0.74998  0.60630  Biso   1.000  C
  H16      1.0000 0.25958  0.65541  0.62661  Biso   1.000  H
  C20      1.0000 0.24661  0.80727  0.77115  Biso   1.000  C
  O2       1.0000 0.23365  0.74998  0.93140  Biso   1.000  O
  S1       1.0000 0.28400  0.48278  0.10165  Biso   1.000  S
  O3       1.0000 0.17832  0.57489  0.18447  Biso   1.000  O
  O4       1.0000 0.16085  0.54158  0.00148  Biso   1.000  O
  C21      1.0000 0.41421  0.80746  0.20619  Biso   1.000  C
  O5       1.0000 0.32113  0.74998  0.12462  Biso   1.000  O
  C22      1.0000 0.50442  0.74998  0.30385  Biso   1.000  C
  H17      1.0000 0.49469  0.65569  0.28783  Biso   1.000  H
  C23      1.0000 0.27951  0.74998  0.48918  Biso   1.000  C
  C24      1.0000 0.25655  0.80641  0.66240  Biso   1.000  C
  C25      1.0000 0.24552  0.86910  0.83038  Biso   1.000  C
  H18      1.0000 0.24510  0.71128  0.96109  Biso   1.000  H
  H19      1.0000 0.24510  0.78867  0.96109  Biso   1.000  H
  C26      1.0000 0.14271  0.53699  0.24807  Biso   1.000  C
  C27      1.0000 0.15421  0.48860  0.93117  Biso   1.000  C
  C28      1.0000 0.38221  0.86952  0.17275  Biso   1.000  C
  C29      1.0000 0.47409  0.80608  0.26885  Biso   1.000  C
  H20      1.0000 0.31031  0.71620  0.09134  Biso   1.000  H
  H21      1.0000 0.31031  0.78380  0.09134  Biso   1.000  H
  C30      1.0000 0.56832  0.74998  0.37683  Biso   1.000  C
  C31      1.0000 0.24918  0.69240  0.43472  Biso   1.000  C
  C32      1.0000 0.35852  0.74998  0.48019  Biso   1.000  C
  C33      1.0000 0.24918  0.80760  0.43472  Biso   1.000  C
  H22      1.0000 0.25958  0.84459  0.62661  Biso   1.000  H
  C34      1.0000 0.31423  0.87700  0.89085  Biso   1.000  C
  H23      1.0000 0.23971  0.90401  0.78186  Biso   1.000  H
  H24      1.0000 0.20640  0.86948  0.87866  Biso   1.000  H
  H25      1.0000 0.17220  0.50118  0.26557  Biso   1.000  H
  H26      1.0000 0.10249  0.52082  0.21049  Biso   1.000  H
  C35      1.0000 0.11808  0.56581  0.34526  Biso   1.000  C
  H27      1.0000 0.19720  0.46428  0.93164  Biso   1.000  H
  H28      1.0000 0.14668  0.50402  0.86069  Biso   1.000  H
  C36      1.0000 0.09638  0.44839  0.96156  Biso   1.000  C
  C37      1.0000 0.37949  0.87653  0.05446  Biso   1.000  C
  H29      1.0000 0.33509  0.87250  0.20056  Biso   1.000  H
  H30      1.0000 0.40930  0.90411  0.20189  Biso   1.000  H
  H31      1.0000 0.49469  0.84431  0.28783  Biso   1.000  H
  C38      1.0000 0.63499  0.74998  0.31002  Biso   1.000  C
  C39      1.0000 0.56843  0.80859  0.44816  Biso   1.000  C
  C40      1.0000 0.56843  0.69141  0.44816  Biso   1.000  C
  H32      1.0000 0.26042  0.69411  0.36159  Biso   1.000  H
  H33      1.0000 0.19939  0.69198  0.44332  Biso   1.000  H
  H34      1.0000 0.26879  0.65470  0.46457  Biso   1.000  H
  H35      1.0000 0.37709  0.78678  0.51442  Biso   1.000  H
  H36      1.0000 0.37159  0.74998  0.40769  Biso   1.000  H
  H37      1.0000 0.37709  0.71322  0.51442  Biso   1.000  H
  H38      1.0000 0.37698  0.71260  0.51270  Biso   1.000  H
  H39      1.0000 0.37698  0.78740  0.51270  Biso   1.000  H
  H40      1.0000 0.26042  0.80589  0.36159  Biso   1.000  H
  H41      1.0000 0.19939  0.80798  0.44332  Biso   1.000  H
  H42      1.0000 0.26879  0.84530  0.46457  Biso   1.000  H
  C41      1.0000 0.31679  0.88017  0.99883  Biso   1.000  C
  C42      1.0000 0.37761  0.87657  0.83686  Biso   1.000  C
  H43      1.0000 0.15761  0.57820  0.38683  Biso   1.000  H
  H44      1.0000 0.09052  0.53572  0.38331  Biso   1.000  H
  H45      1.0000 0.09021  0.60228  0.32948  Biso   1.000  H
  H46      1.0000 0.09721  0.41040  0.92046  Biso   1.000  H
  H47      1.0000 0.05308  0.47029  0.95007  Biso   1.000  H
  H48      1.0000 0.10061  0.43779  0.03422  Biso   1.000  H
  C43      1.0000 0.44130  0.87601  0.99758  Biso   1.000  C
  H49      1.0000 0.63949  0.71000  0.27510  Biso   1.000  H
  H50      1.0000 0.67500  0.75669  0.35417  Biso   1.000  H
  H51      1.0000 0.63233  0.78328  0.25916  Biso   1.000  H
  H52      1.0000 0.63949  0.79000  0.27510  Biso   1.000  H
  H53      1.0000 0.67500  0.74331  0.35417  Biso   1.000  H
  H54      1.0000 0.63233  0.71672  0.25916  Biso   1.000  H
  H55      1.0000 0.57198  0.84611  0.40613  Biso   1.000  H
  H56      1.0000 0.52581  0.80977  0.48785  Biso   1.000  H
  H57      1.0000 0.60749  0.80641  0.49504  Biso   1.000  H
  H58      1.0000 0.57198  0.65389  0.40613  Biso   1.000  H
  H59      1.0000 0.52581  0.69018  0.48785  Biso   1.000  H
  H60      1.0000 0.60749  0.69359  0.49504  Biso   1.000  H
  O6       1.0000 0.25336  0.88234  0.05602  Biso   1.000  O
  H61      1.0000 0.37672  0.87582  0.76428  Biso   1.000  H
  C44      1.0000 0.44240  0.87738  0.88765  Biso   1.000  C
  H62      1.0000 0.48361  0.87468  0.03336  Biso   1.000  H
  P2       1.0000 0.21958  0.94839  0.08516  Biso   1.000  P
  C45      1.0000 0.51179  0.88239  0.82835  Biso   1.000  C
  O7       1.0000 0.17832  0.92511  0.18447  Biso   1.000  O
  O8       1.0000 0.16085  0.95842  0.00148  Biso   1.000  O
  S2       1.0000 0.28400  0.01717  0.10165  Biso   1.000  S
  C46      1.0000 0.53501  0.95468  0.83686  Biso   1.000  C
  C47      1.0000 0.50651  0.87260  0.71435  Biso   1.000  C
  C48      1.0000 0.57172  0.85070  0.88296  Biso   1.000  C
  C49      1.0000 0.14271  0.96301  0.24807  Biso   1.000  C
  C50      1.0000 0.15421  0.01140  0.93117  Biso   1.000  C
  H63      1.0000 0.50311  0.98060  0.79780  Biso   1.000  H
  H64      1.0000 0.53449  0.96750  0.90874  Biso   1.000  H
  H65      1.0000 0.58139  0.95950  0.80905  Biso   1.000  H
  H66      1.0000 0.49778  0.82870  0.70029  Biso   1.000  H
  H67      1.0000 0.46870  0.89758  0.68716  Biso   1.000  H
  H68      1.0000 0.54939  0.88518  0.68169  Biso   1.000  H
  H69      1.0000 0.61089  0.84800  0.83639  Biso   1.000  H
  H70      1.0000 0.58448  0.87478  0.94359  Biso   1.000  H
  H71      1.0000 0.55791  0.80888  0.90390  Biso   1.000  H
  H72      1.0000 0.17220  0.99882  0.26557  Biso   1.000  H
  H73      1.0000 0.10249  0.97918  0.21049  Biso   1.000  H
  C51      1.0000 0.11808  0.93419  0.34526  Biso   1.000  C
  H74      1.0000 0.14668  0.99598  0.86069  Biso   1.000  H
  H75      1.0000 0.19720  0.03572  0.93164  Biso   1.000  H
  C52      1.0000 0.09638  0.05161  0.96156  Biso   1.000  C
  H76      1.0000 0.15761  0.92180  0.38683  Biso   1.000  H
  H77      1.0000 0.09052  0.96428  0.38331  Biso   1.000  H
  H78      1.0000 0.09021  0.89767  0.32948  Biso   1.000  H
  H79      1.0000 0.09721  0.08960  0.92046  Biso   1.000  H
  H80      1.0000 0.05308  0.02971  0.95007  Biso   1.000  H
  H81      1.0000 0.10061  0.06221  0.03422  Biso   1.000  H
  C53      1.0000 0.49349  0.37260  0.28557  Biso   1.000  C
  C54      1.0000 0.48821  0.38239  0.17158  Biso   1.000  C
  H82      1.0000 0.50222  0.32870  0.29971  Biso   1.000  H
  H83      1.0000 0.53130  0.39758  0.31276  Biso   1.000  H
  H84      1.0000 0.45061  0.38518  0.31831  Biso   1.000  H
  C55      1.0000 0.42828  0.35070  0.11696  Biso   1.000  C
  C56      1.0000 0.55760  0.37738  0.11227  Biso   1.000  C
  C57      1.0000 0.46499  0.45468  0.16306  Biso   1.000  C
  H85      1.0000 0.38911  0.34800  0.16361  Biso   1.000  H
  H86      1.0000 0.41552  0.37478  0.05641  Biso   1.000  H
  H87      1.0000 0.44209  0.30888  0.09610  Biso   1.000  H
  C58      1.0000 0.62239  0.37662  0.16306  Biso   1.000  C
  C59      1.0000 0.55870  0.37601  0.00242  Biso   1.000  C
  H88      1.0000 0.49689  0.48060  0.20220  Biso   1.000  H
  H89      1.0000 0.46551  0.46750  0.09118  Biso   1.000  H
  H90      1.0000 0.41861  0.45950  0.19087  Biso   1.000  H
  C60      1.0000 0.68577  0.37700  0.10907  Biso   1.000  C
  H91      1.0000 0.62328  0.37582  0.23572  Biso   1.000  H
  C61      1.0000 0.62051  0.37653  0.94546  Biso   1.000  C
  H92      1.0000 0.51639  0.37468  0.96656  Biso   1.000  H
  C62      1.0000 0.68321  0.38017  0.00109  Biso   1.000  C
  C63      1.0000 0.75448  0.36910  0.16962  Biso   1.000  C
  C64      1.0000 0.61779  0.36957  0.82710  Biso   1.000  C
  O9       1.0000 0.74664  0.38234  0.94398  Biso   1.000  O
  H93      1.0000 0.76029  0.40401  0.21806  Biso   1.000  H
  H94      1.0000 0.79360  0.36948  0.12126  Biso   1.000  H
  C65      1.0000 0.75339  0.30727  0.22877  Biso   1.000  C
  C66      1.0000 0.58579  0.30746  0.79373  Biso   1.000  C
  H95      1.0000 0.66491  0.37250  0.79936  Biso   1.000  H
  H96      1.0000 0.59070  0.40411  0.79803  Biso   1.000  H
  P3       1.0000 0.78042  0.44839  0.91476  Biso   1.000  P
  C67      1.0000 0.75773  0.24998  0.17579  Biso   1.000  C
  C68      1.0000 0.74345  0.30641  0.33760  Biso   1.000  C
  C69      1.0000 0.61648  0.24998  0.82077  Biso   1.000  C
  C70      1.0000 0.52591  0.30613  0.73107  Biso   1.000  C
  S3       1.0000 0.71605  0.51722  0.89827  Biso   1.000  S
  O10      1.0000 0.82168  0.42511  0.81553  Biso   1.000  O
  O11      1.0000 0.83915  0.45842  0.99844  Biso   1.000  O
  O12      1.0000 0.76641  0.24998  0.06860  Biso   1.000  O
  C71      1.0000 0.75339  0.19273  0.22877  Biso   1.000  C
  H97      1.0000 0.74042  0.34459  0.37339  Biso   1.000  H
  C72      1.0000 0.73801  0.24998  0.39370  Biso   1.000  C
  O13      1.0000 0.67887  0.24998  0.87522  Biso   1.000  O
  C73      1.0000 0.58579  0.19254  0.79373  Biso   1.000  C
  H98      1.0000 0.50531  0.34431  0.71209  Biso   1.000  H
  C74      1.0000 0.49558  0.24998  0.69607  Biso   1.000  C
  C75      1.0000 0.85729  0.46301  0.75186  Biso   1.000  C
  C76      1.0000 0.84579  0.51140  0.06883  Biso   1.000  C
  H99      1.0000 0.75490  0.21128  0.03875  Biso   1.000  H
  H100     1.0000 0.75490  0.28872  0.03875  Biso   1.000  H
  C77      1.0000 0.75448  0.13090  0.16962  Biso   1.000  C
  C78      1.0000 0.74345  0.19359  0.33760  Biso   1.000  C
  C79      1.0000 0.72049  0.24998  0.51074  Biso   1.000  C
  H101     1.0000 0.68969  0.21620  0.90866  Biso   1.000  H
  H102     1.0000 0.68969  0.28380  0.90866  Biso   1.000  H
  C80      1.0000 0.52591  0.19387  0.73107  Biso   1.000  C
  C81      1.0000 0.61779  0.13043  0.82710  Biso   1.000  C
  C82      1.0000 0.43168  0.24998  0.62302  Biso   1.000  C
  H103     1.0000 0.82780  0.49882  0.73435  Biso   1.000  H
  H104     1.0000 0.89751  0.47918  0.78944  Biso   1.000  H
  C83      1.0000 0.88192  0.43419  0.65474  Biso   1.000  C
  H105     1.0000 0.80280  0.53572  0.06829  Biso   1.000  H
  H106     1.0000 0.85332  0.49598  0.13931  Biso   1.000  H
  C84      1.0000 0.90362  0.55161  0.03836  Biso   1.000  C
  C85      1.0000 0.68577  0.12300  0.10907  Biso   1.000  C
  H107     1.0000 0.76029  0.09599  0.21806  Biso   1.000  H
  H108     1.0000 0.79360  0.13048  0.12126  Biso   1.000  H
  H109     1.0000 0.74042  0.15541  0.37339  Biso   1.000  H
  C86      1.0000 0.64148  0.24998  0.51981  Biso   1.000  C
  C87      1.0000 0.75082  0.30760  0.56528  Biso   1.000  C
  C88      1.0000 0.75082  0.19240  0.56528  Biso   1.000  C
  H110     1.0000 0.50531  0.15569  0.71209  Biso   1.000  H
  H111     1.0000 0.66491  0.12750  0.79936  Biso   1.000  H
  H112     1.0000 0.59070  0.09589  0.79803  Biso   1.000  H
  C89      1.0000 0.62051  0.12347  0.94546  Biso   1.000  C
  C90      1.0000 0.36501  0.24998  0.68982  Biso   1.000  C
  C91      1.0000 0.43163  0.30859  0.55184  Biso   1.000  C
  C92      1.0000 0.43163  0.19141  0.55184  Biso   1.000  C
  H113     1.0000 0.84239  0.42180  0.61302  Biso   1.000  H
  H114     1.0000 0.90948  0.46428  0.61661  Biso   1.000  H
  H115     1.0000 0.90979  0.39772  0.67052  Biso   1.000  H
  H116     1.0000 0.90279  0.58960  0.07946  Biso   1.000  H
  H117     1.0000 0.94692  0.52971  0.04993  Biso   1.000  H
  H118     1.0000 0.89939  0.56221  0.96570  Biso   1.000  H
  C93      1.0000 0.68321  0.11983  0.00109  Biso   1.000  C
  C94      1.0000 0.62239  0.12338  0.16306  Biso   1.000  C
  H119     1.0000 0.62291  0.28678  0.48558  Biso   1.000  H
  H120     1.0000 0.62841  0.24998  0.59231  Biso   1.000  H
  H121     1.0000 0.62291  0.21322  0.48558  Biso   1.000  H
  H122     1.0000 0.62302  0.21260  0.48723  Biso   1.000  H
  H123     1.0000 0.62302  0.28740  0.48723  Biso   1.000  H
  H124     1.0000 0.73958  0.30589  0.63841  Biso   1.000  H
  H125     1.0000 0.80061  0.30798  0.55668  Biso   1.000  H
  H126     1.0000 0.73121  0.34530  0.53535  Biso   1.000  H
  H127     1.0000 0.73958  0.19411  0.63841  Biso   1.000  H
  H128     1.0000 0.80061  0.19198  0.55668  Biso   1.000  H
  H129     1.0000 0.73121  0.15470  0.53535  Biso   1.000  H
  C95      1.0000 0.55870  0.12399  0.00242  Biso   1.000  C
  H130     1.0000 0.36051  0.21000  0.72490  Biso   1.000  H
  H131     1.0000 0.32500  0.25669  0.64575  Biso   1.000  H
  H132     1.0000 0.36772  0.28328  0.74076  Biso   1.000  H
  H133     1.0000 0.36051  0.29000  0.72490  Biso   1.000  H
  H134     1.0000 0.32500  0.24331  0.64575  Biso   1.000  H
  H135     1.0000 0.36772  0.21672  0.74076  Biso   1.000  H
  H136     1.0000 0.42802  0.34611  0.59380  Biso   1.000  H
  H137     1.0000 0.47419  0.30982  0.51223  Biso   1.000  H
  H138     1.0000 0.39251  0.30641  0.50488  Biso   1.000  H
  H139     1.0000 0.42802  0.15389  0.59380  Biso   1.000  H
  H140     1.0000 0.47419  0.19018  0.51223  Biso   1.000  H
  H141     1.0000 0.39251  0.19359  0.50488  Biso   1.000  H
  O14      1.0000 0.74664  0.11766  0.94398  Biso   1.000  O
  H142     1.0000 0.62328  0.12418  0.23572  Biso   1.000  H
  C96      1.0000 0.55760  0.12262  0.11227  Biso   1.000  C
  H143     1.0000 0.51639  0.12532  0.96656  Biso   1.000  H
  P4       1.0000 0.78042  0.05161  0.91476  Biso   1.000  P
  C97      1.0000 0.48821  0.11761  0.17158  Biso   1.000  C
  S4       1.0000 0.71605  0.98278  0.89827  Biso   1.000  S
  O15      1.0000 0.82168  0.07489  0.81553  Biso   1.000  O
  O16      1.0000 0.83915  0.04158  0.99844  Biso   1.000  O
  C98      1.0000 0.46499  0.04532  0.16306  Biso   1.000  C
  C99      1.0000 0.49349  0.12740  0.28557  Biso   1.000  C
  C100     1.0000 0.42828  0.14930  0.11696  Biso   1.000  C
  C101     1.0000 0.85729  0.03699  0.75186  Biso   1.000  C
  C102     1.0000 0.84579  0.98860  0.06883  Biso   1.000  C
  H144     1.0000 0.49689  0.01940  0.20220  Biso   1.000  H
  H145     1.0000 0.46551  0.03250  0.09118  Biso   1.000  H
  H146     1.0000 0.41861  0.04050  0.19087  Biso   1.000  H
  H147     1.0000 0.50222  0.17130  0.29971  Biso   1.000  H
  H148     1.0000 0.53130  0.10242  0.31276  Biso   1.000  H
  H149     1.0000 0.45061  0.11482  0.31831  Biso   1.000  H
  H150     1.0000 0.38911  0.15200  0.16361  Biso   1.000  H
  H151     1.0000 0.41552  0.12518  0.05641  Biso   1.000  H
  H152     1.0000 0.44209  0.19108  0.09610  Biso   1.000  H
  H153     1.0000 0.82780  0.00118  0.73435  Biso   1.000  H
  H154     1.0000 0.89751  0.02082  0.78944  Biso   1.000  H
  C103     1.0000 0.88192  0.06581  0.65474  Biso   1.000  C
  H155     1.0000 0.85332  0.00402  0.13931  Biso   1.000  H
  H156     1.0000 0.80280  0.96428  0.06829  Biso   1.000  H
  C104     1.0000 0.90362  0.94839  0.03836  Biso   1.000  C
  H157     1.0000 0.84239  0.07820  0.61302  Biso   1.000  H
  H158     1.0000 0.90948  0.03572  0.61661  Biso   1.000  H
  H159     1.0000 0.90979  0.10228  0.67052  Biso   1.000  H
  H160     1.0000 0.89939  0.93779  0.96570  Biso   1.000  H
  H161     1.0000 0.90279  0.91040  0.07946  Biso   1.000  H
  H162     1.0000 0.94692  0.97029  0.04993  Biso   1.000  H
