data_image0
_cell_length_a       10.133
_cell_length_b       10.976
_cell_length_c       23.914
_cell_angle_alpha    95.61
_cell_angle_beta     98.23
_cell_angle_gamma    114.1

_symmetry_space_group_name_H-M    "P 1"
_symmetry_int_tables_number       1

loop_
  _symmetry_equiv_pos_as_xyz
  'x, y, z'

loop_
  _atom_site_label
  _atom_site_occupancy
  _atom_site_fract_x
  _atom_site_fract_y
  _atom_site_fract_z
  _atom_site_thermal_displace_type
  _atom_site_B_iso_or_equiv
  _atom_site_type_symbol
  C1       1.0000 0.68911  0.59855  0.46480  Biso   1.000  C
  C2       1.0000 0.70451  0.56593  0.40178  Biso   1.000  C
  H1       1.0000 0.72815  0.69619  0.47561  Biso   1.000  H
  H2       1.0000 0.58490  0.56062  0.46600  Biso   1.000  H
  C3       1.0000 0.76572  0.54642  0.50920  Biso   1.000  C
  C4       1.0000 0.63805  0.41206  0.38110  Biso   1.000  C
  C5       1.0000 0.61828  0.62577  0.36527  Biso   1.000  C
  C6       1.0000 0.86437  0.62817  0.39826  Biso   1.000  C
  H3       1.0000 0.70949  0.45058  0.50619  Biso   1.000  H
  H4       1.0000 0.77343  0.59127  0.54690  Biso   1.000  H
  H5       1.0000 0.86271  0.56459  0.50259  Biso   1.000  H
  C7       1.0000 0.60467  0.34650  0.32371  Biso   1.000  C
  H6       1.0000 0.64774  0.39446  0.34168  Biso   1.000  H
  H7       1.0000 0.69278  0.37387  0.40440  Biso   1.000  H
  C8       1.0000 0.48600  0.34728  0.38449  Biso   1.000  C
  H8       1.0000 0.70424  0.38101  0.40208  Biso   1.000  H
  H9       1.0000 0.54681  0.37426  0.39509  Biso   1.000  H
  C9       1.0000 0.49975  0.64797  0.37124  Biso   1.000  C
  N1       1.0000 0.64093  0.64603  0.31028  Biso   1.000  N
  C10      1.0000 0.96331  0.57437  0.39728  Biso   1.000  C
  N2       1.0000 0.94444  0.76586  0.40182  Biso   1.000  N
  H10      1.0000 0.51597  0.26397  0.31761  Biso   1.000  H
  H11      1.0000 0.68453  0.32603  0.31611  Biso   1.000  H
  H12      1.0000 0.59069  0.40473  0.29840  Biso   1.000  H
  H13      1.0000 0.44254  0.40989  0.38042  Biso   1.000  H
  H14      1.0000 0.47774  0.31857  0.42100  Biso   1.000  H
  H15      1.0000 0.43535  0.27002  0.35442  Biso   1.000  H
  C11      1.0000 0.44620  0.68284  0.32075  Biso   1.000  C
  H16      1.0000 0.45917  0.64120  0.40401  Biso   1.000  H
  C12      1.0000 0.53478  0.68112  0.28257  Biso   1.000  C
  H17      1.0000 0.71031  0.63804  0.29561  Biso   1.000  H
  H18      1.0000 0.94164  0.48294  0.39530  Biso   1.000  H
  C13      1.0000 0.10332  0.67893  0.39964  Biso   1.000  C
  H19      1.0000 0.90762  0.82385  0.40328  Biso   1.000  H
  C14      1.0000 0.09049  0.79797  0.40272  Biso   1.000  C
  H20      1.0000 0.36547  0.70337  0.31431  Biso   1.000  H
  C15      1.0000 0.53057  0.71339  0.22230  Biso   1.000  C
  H21      1.0000 0.18992  0.66868  0.39921  Biso   1.000  H
  C16      1.0000 0.20386  0.94068  0.40393  Biso   1.000  C
  C17      1.0000 0.64437  0.85493  0.22281  Biso   1.000  C
  C18      1.0000 0.37557  0.70589  0.19952  Biso   1.000  C
  C19      1.0000 0.55083  0.60943  0.18060  Biso   1.000  C
  C20      1.0000 0.35752  0.95198  0.42915  Biso   1.000  C
  C21      1.0000 0.20273  0.97153  0.34383  Biso   1.000  C
  C22      1.0000 0.17631  0.04413  0.44168  Biso   1.000  C
  C23      1.0000 0.63160  0.97344  0.21826  Biso   1.000  C
  N3       1.0000 0.79388  0.88943  0.22933  Biso   1.000  N
  H22      1.0000 0.35821  0.76945  0.22440  Biso   1.000  H
  H23      1.0000 0.30159  0.61594  0.19849  Biso   1.000  H
  H24      1.0000 0.37095  0.72753  0.16160  Biso   1.000  H
  C24      1.0000 0.51183  0.47710  0.18845  Biso   1.000  C
  C25      1.0000 0.59504  0.64334  0.12947  Biso   1.000  C
  H25      1.0000 0.37869  0.88880  0.40568  Biso   1.000  H
  H26      1.0000 0.35967  0.93208  0.46741  Biso   1.000  H
  H27      1.0000 0.43046  0.04245  0.43022  Biso   1.000  H
  C26      1.0000 0.29109  0.97134  0.30620  Biso   1.000  C
  N4       1.0000 0.09779  0.00686  0.31646  Biso   1.000  N
  H28      1.0000 0.24875  0.13368  0.44099  Biso   1.000  H
  H29      1.0000 0.18344  0.02697  0.48028  Biso   1.000  H
  H30      1.0000 0.07952  0.03729  0.42760  Biso   1.000  H
  H31      1.0000 0.54369  0.98286  0.21419  Biso   1.000  H
  C27      1.0000 0.77227  0.07896  0.22075  Biso   1.000  C
  H32      1.0000 0.83239  0.83354  0.23422  Biso   1.000  H
  C28      1.0000 0.87295  0.02390  0.22719  Biso   1.000  C
  H33      1.0000 0.47625  0.45064  0.22118  Biso   1.000  H
  C29      1.0000 0.52357  0.38353  0.14997  Biso   1.000  C
  C30      1.0000 0.60820  0.54969  0.09004  Biso   1.000  C
  H34      1.0000 0.61604  0.73000  0.12170  Biso   1.000  H
  H35      1.0000 0.37166  0.95065  0.31298  Biso   1.000  H
  C31      1.0000 0.24105  0.00733  0.25528  Biso   1.000  C
  C32      1.0000 0.12079  0.02917  0.26185  Biso   1.000  C
  H36      1.0000 0.02814  0.01403  0.33108  Biso   1.000  H
  H37      1.0000 0.79322  0.16887  0.21852  Biso   1.000  H
  C33      1.0000 0.03414  0.08579  0.22453  Biso   1.000  C
  H38      1.0000 0.49564  0.29522  0.15662  Biso   1.000  H
  C34      1.0000 0.57815  0.42067  0.09991  Biso   1.000  C
  H39      1.0000 0.63792  0.57462  0.05628  Biso   1.000  H
  H40      1.0000 0.28293  0.01496  0.22290  Biso   1.000  H
  C35      1.0000 0.10352  0.24337  0.24405  Biso   1.000  C
  C36      1.0000 0.05269  0.06291  0.16215  Biso   1.000  C
  N5       1.0000 0.60390  0.33374  0.05860  Biso   1.000  N
  H41      1.0000 0.20417  0.28053  0.23800  Biso   1.000  H
  H42      1.0000 0.04955  0.27925  0.21899  Biso   1.000  H
  C37      1.0000 0.10673  0.29503  0.30479  Biso   1.000  C
  C38      1.0000 0.98787  0.91376  0.13225  Biso   1.000  C
  H43      1.0000 0.15722  0.10490  0.16160  Biso   1.000  H
  H44      1.0000 0.00656  0.10951  0.13989  Biso   1.000  H
  C39      1.0000 0.63983  0.24183  0.07378  Biso   1.000  C
  H45      1.0000 0.00762  0.26276  0.31131  Biso   1.000  H
  H46      1.0000 0.15187  0.39234  0.31161  Biso   1.000  H
  H47      1.0000 0.16238  0.26311  0.33048  Biso   1.000  H
  H48      1.0000 0.88389  0.87115  0.13178  Biso   1.000  H
  H49      1.0000 0.03568  0.86716  0.15280  Biso   1.000  H
  H50      1.0000 0.00350  0.91035  0.09360  Biso   1.000  H
  H51      1.0000 0.64937  0.23248  0.11222  Biso   1.000  H
  C40      1.0000 0.66644  0.15092  0.03350  Biso   1.000  C
  C41      1.0000 0.69873  0.04929  0.05152  Biso   1.000  C
  C42      1.0000 0.66082  0.16704  0.97619  Biso   1.000  C
  H52      1.0000 0.69957  0.03735  0.08948  Biso   1.000  H
  C43      1.0000 0.72996  0.96417  0.01467  Biso   1.000  C
  C44      1.0000 0.69135  0.07990  0.93758  Biso   1.000  C
  O1       1.0000 0.62510  0.26111  0.95556  Biso   1.000  O
  C45      1.0000 0.72570  0.97927  0.95805  Biso   1.000  C
  H53      1.0000 0.75366  0.89736  0.02801  Biso   1.000  H
  H54      1.0000 0.68859  0.08973  0.89932  Biso   1.000  H
  H55      1.0000 0.60220  0.30027  0.98082  Biso   1.000  H
  H56      1.0000 0.74603  0.92178  0.93312  Biso   1.000  H
  C46      1.0000 0.31105  0.40134  0.53519  Biso   1.000  C
  C47      1.0000 0.23443  0.45347  0.49079  Biso   1.000  C
  C48      1.0000 0.29564  0.43397  0.59821  Biso   1.000  C
  H57      1.0000 0.27201  0.30371  0.52438  Biso   1.000  H
  H58      1.0000 0.41525  0.43928  0.53399  Biso   1.000  H
  H59      1.0000 0.29067  0.54932  0.49380  Biso   1.000  H
  H60      1.0000 0.22673  0.40863  0.45309  Biso   1.000  H
  H61      1.0000 0.13744  0.43531  0.49740  Biso   1.000  H
  C49      1.0000 0.38187  0.37412  0.63472  Biso   1.000  C
  C50      1.0000 0.36210  0.58783  0.61889  Biso   1.000  C
  C51      1.0000 0.13580  0.37174  0.60177  Biso   1.000  C
  C52      1.0000 0.50041  0.35192  0.62875  Biso   1.000  C
  N6       1.0000 0.35924  0.35388  0.68975  Biso   1.000  N
  H62      1.0000 0.35241  0.60543  0.65831  Biso   1.000  H
  H63      1.0000 0.30737  0.62603  0.59559  Biso   1.000  H
  C53      1.0000 0.51415  0.65262  0.61550  Biso   1.000  C
  H64      1.0000 0.29587  0.61879  0.59791  Biso   1.000  H
  H65      1.0000 0.45344  0.62564  0.60490  Biso   1.000  H
  C54      1.0000 0.39549  0.65339  0.67628  Biso   1.000  C
  C55      1.0000 0.03685  0.42553  0.60271  Biso   1.000  C
  N7       1.0000 0.05571  0.23403  0.59817  Biso   1.000  N
  C56      1.0000 0.55395  0.31705  0.67924  Biso   1.000  C
  H66      1.0000 0.54101  0.35872  0.59602  Biso   1.000  H
  C57      1.0000 0.46537  0.31877  0.71742  Biso   1.000  C
  H67      1.0000 0.28985  0.36185  0.70438  Biso   1.000  H
  H68      1.0000 0.55763  0.59003  0.61962  Biso   1.000  H
  H69      1.0000 0.52241  0.68133  0.57899  Biso   1.000  H
  H70      1.0000 0.56482  0.72989  0.64561  Biso   1.000  H
  H71      1.0000 0.48421  0.73595  0.68242  Biso   1.000  H
  H72      1.0000 0.31564  0.67388  0.68392  Biso   1.000  H
  H73      1.0000 0.40947  0.59516  0.70159  Biso   1.000  H
  H74      1.0000 0.05851  0.51696  0.60469  Biso   1.000  H
  C58      1.0000 0.89684  0.32096  0.60035  Biso   1.000  C
  H75      1.0000 0.09254  0.17605  0.59671  Biso   1.000  H
  C59      1.0000 0.90968  0.20195  0.59731  Biso   1.000  C
  H76      1.0000 0.63470  0.29654  0.68572  Biso   1.000  H
  C60      1.0000 0.46958  0.28650  0.77769  Biso   1.000  C
  H77      1.0000 0.81033  0.33122  0.60078  Biso   1.000  H
  C61      1.0000 0.79629  0.05921  0.59606  Biso   1.000  C
  C62      1.0000 0.35581  0.14498  0.77722  Biso   1.000  C
  C63      1.0000 0.62458  0.29401  0.80047  Biso   1.000  C
  C64      1.0000 0.44934  0.39048  0.81943  Biso   1.000  C
  C65      1.0000 0.82384  0.95576  0.55831  Biso   1.000  C
  C66      1.0000 0.64259  0.04781  0.57084  Biso   1.000  C
  C67      1.0000 0.79743  0.02836  0.65616  Biso   1.000  C
  C68      1.0000 0.36856  0.02645  0.78173  Biso   1.000  C
  N8       1.0000 0.20628  0.11046  0.77066  Biso   1.000  N
  H78      1.0000 0.64195  0.23045  0.77559  Biso   1.000  H
  H79      1.0000 0.69856  0.38396  0.80150  Biso   1.000  H
  H80      1.0000 0.62920  0.27237  0.83839  Biso   1.000  H
  C69      1.0000 0.48832  0.52280  0.81154  Biso   1.000  C
  C70      1.0000 0.40511  0.35655  0.87052  Biso   1.000  C
  H81      1.0000 0.75140  0.86622  0.55900  Biso   1.000  H
  H82      1.0000 0.81671  0.97293  0.51971  Biso   1.000  H
  H83      1.0000 0.92064  0.96261  0.57238  Biso   1.000  H
  H84      1.0000 0.56972  0.95746  0.56981  Biso   1.000  H
  H85      1.0000 0.62147  0.11109  0.59431  Biso   1.000  H
  H86      1.0000 0.64051  0.06783  0.53262  Biso   1.000  H
  N9       1.0000 0.90239  0.99305  0.68358  Biso   1.000  N
  C71      1.0000 0.70907  0.02856  0.69379  Biso   1.000  C
  H87      1.0000 0.45646  0.01704  0.78580  Biso   1.000  H
  C72      1.0000 0.22791  0.92095  0.77928  Biso   1.000  C
  H88      1.0000 0.16779  0.16637  0.76581  Biso   1.000  H
  C73      1.0000 0.12720  0.97600  0.77280  Biso   1.000  C
  H89      1.0000 0.52390  0.54925  0.77881  Biso   1.000  H
  C74      1.0000 0.47654  0.61626  0.85002  Biso   1.000  C
  C75      1.0000 0.39206  0.45021  0.90995  Biso   1.000  C
  H90      1.0000 0.38411  0.26990  0.87829  Biso   1.000  H
  C76      1.0000 0.87937  0.97072  0.73814  Biso   1.000  C
  H91      1.0000 0.97211  0.98586  0.66890  Biso   1.000  H
  C77      1.0000 0.75910  0.99257  0.74470  Biso   1.000  C
  H92      1.0000 0.62849  0.04925  0.68701  Biso   1.000  H
  H93      1.0000 0.20695  0.83104  0.78151  Biso   1.000  H
  C78      1.0000 0.96601  0.91411  0.77546  Biso   1.000  C
  H94      1.0000 0.50454  0.70469  0.84341  Biso   1.000  H
  C79      1.0000 0.42202  0.57924  0.90012  Biso   1.000  C
  H95      1.0000 0.36219  0.42517  0.94371  Biso   1.000  H
  H96      1.0000 0.71723  0.98494  0.77709  Biso   1.000  H
  C80      1.0000 0.89663  0.75652  0.75594  Biso   1.000  C
  C81      1.0000 0.94742  0.93689  0.83784  Biso   1.000  C
  N10      1.0000 0.39621  0.66606  0.94139  Biso   1.000  N
  H97      1.0000 0.79599  0.71937  0.76199  Biso   1.000  H
  H98      1.0000 0.95070  0.72064  0.78100  Biso   1.000  H
  C82      1.0000 0.89342  0.70486  0.69520  Biso   1.000  C
  C83      1.0000 0.01229  0.08613  0.86774  Biso   1.000  C
  H99      1.0000 0.84293  0.89499  0.83839  Biso   1.000  H
  H100     1.0000 0.99355  0.89029  0.86010  Biso   1.000  H
  C84      1.0000 0.36032  0.75807  0.92621  Biso   1.000  C
  H101     1.0000 0.99254  0.73713  0.68868  Biso   1.000  H
  H102     1.0000 0.84830  0.60758  0.68842  Biso   1.000  H
  H103     1.0000 0.83778  0.73679  0.66951  Biso   1.000  H
  H104     1.0000 0.11626  0.12875  0.86821  Biso   1.000  H
  H105     1.0000 0.96457  0.13274  0.84719  Biso   1.000  H
  H106     1.0000 0.99665  0.08954  0.90639  Biso   1.000  H
  H107     1.0000 0.35080  0.76744  0.88781  Biso   1.000  H
  C85      1.0000 0.33371  0.84898  0.96649  Biso   1.000  C
  C86      1.0000 0.30142  0.95061  0.94847  Biso   1.000  C
  C87      1.0000 0.33935  0.83288  0.02384  Biso   1.000  C
  H108     1.0000 0.30068  0.96255  0.91050  Biso   1.000  H
  C88      1.0000 0.27020  0.03572  0.98532  Biso   1.000  C
  C89      1.0000 0.30880  0.91999  0.06241  Biso   1.000  C
  O2       1.0000 0.37506  0.73879  0.04443  Biso   1.000  O
  H109     1.0000 0.24651  0.10255  0.97202  Biso   1.000  H
  C90      1.0000 0.27446  0.02062  0.04194  Biso   1.000  C
  H110     1.0000 0.31156  0.91017  0.10067  Biso   1.000  H
  H111     1.0000 0.39797  0.69964  0.01921  Biso   1.000  H
  H112     1.0000 0.25415  0.07813  0.06691  Biso   1.000  H
