data_image0
_cell_length_a       10.08
_cell_length_b       10.08
_cell_length_c       24.38
_cell_angle_alpha    90
_cell_angle_beta     90
_cell_angle_gamma    90

_symmetry_space_group_name_H-M    "P 1"
_symmetry_int_tables_number       1

loop_
  _symmetry_equiv_pos_as_xyz
  'x, y, z'

loop_
  _atom_site_label
  _atom_site_occupancy
  _atom_site_fract_x
  _atom_site_fract_y
  _atom_site_fract_z
  _atom_site_thermal_displace_type
  _atom_site_B_iso_or_equiv
  _atom_site_type_symbol
  C1       1.0000 0.44474  0.51190  0.46833  Biso   1.000  C
  C2       1.0000 0.40030  0.47738  0.51809  Biso   1.000  C
  C3       1.0000 0.57966  0.55020  0.47473  Biso   1.000  C
  N1       1.0000 0.49980  0.49276  0.55632  Biso   1.000  N
  C4       1.0000 0.26855  0.43115  0.54233  Biso   1.000  C
  C5       1.0000 0.61121  0.53601  0.52773  Biso   1.000  C
  C6       1.0000 0.28194  0.29970  0.57092  Biso   1.000  C
  C7       1.0000 0.16696  0.41319  0.49409  Biso   1.000  C
  C8       1.0000 0.21062  0.53185  0.58109  Biso   1.000  C
  C9       1.0000 0.73373  0.55992  0.56255  Biso   1.000  C
  O1       1.0000 0.34246  0.19266  0.54377  Biso   1.000  O
  C10      1.0000 0.24702  0.26052  0.62244  Biso   1.000  C
  C11      1.0000 0.78204  0.42917  0.58560  Biso   1.000  C
  C12      1.0000 0.71518  0.65665  0.60915  Biso   1.000  C
  C13      1.0000 0.84187  0.61448  0.51907  Biso   1.000  C
  C14      1.0000 0.34504  0.08353  0.57990  Biso   1.000  C
  C15      1.0000 0.29048  0.12431  0.62912  Biso   1.000  C
  O2       1.0000 0.79127  0.31637  0.55217  Biso   1.000  O
  C16      1.0000 0.82808  0.39425  0.63667  Biso   1.000  C
  C17      1.0000 0.39732  0.95198  0.56042  Biso   1.000  C
  C18      1.0000 0.84474  0.21329  0.58331  Biso   1.000  C
  C19      1.0000 0.86806  0.25823  0.63421  Biso   1.000  C
  C20      1.0000 0.52738  0.97173  0.53269  Biso   1.000  C
  C21      1.0000 0.41230  0.85942  0.61226  Biso   1.000  C
  C22      1.0000 0.29702  0.89157  0.51719  Biso   1.000  C
  C23      1.0000 0.86419  0.08046  0.55779  Biso   1.000  C
  N2       1.0000 0.63065  0.02192  0.56427  Biso   1.000  N
  C24      1.0000 0.57312  0.94673  0.48052  Biso   1.000  C
  C25      1.0000 0.74167  0.03135  0.53007  Biso   1.000  C
  C26      1.0000 0.97520  0.09504  0.51095  Biso   1.000  C
  C27      1.0000 0.90982  0.98115  0.60062  Biso   1.000  C
  C28      1.0000 0.71002  0.98611  0.47925  Biso   1.000  C
  N3       1.0000 0.49276  0.50020  0.30632  Biso   1.000  N
  C29      1.0000 0.53601  0.38879  0.27773  Biso   1.000  C
  C30      1.0000 0.47738  0.59970  0.26809  Biso   1.000  C
  C31      1.0000 0.55992  0.26627  0.31255  Biso   1.000  C
  C32      1.0000 0.55020  0.42034  0.22473  Biso   1.000  C
  C33      1.0000 0.51190  0.55526  0.21833  Biso   1.000  C
  C34      1.0000 0.43115  0.73145  0.29233  Biso   1.000  C
  C35      1.0000 0.42917  0.21796  0.33560  Biso   1.000  C
  C36      1.0000 0.65665  0.28482  0.35915  Biso   1.000  C
  C37      1.0000 0.61448  0.15813  0.26907  Biso   1.000  C
  C38      1.0000 0.29970  0.71806  0.32092  Biso   1.000  C
  C39      1.0000 0.41319  0.83304  0.24409  Biso   1.000  C
  C40      1.0000 0.53185  0.78938  0.33109  Biso   1.000  C
  O3       1.0000 0.31637  0.20873  0.30217  Biso   1.000  O
  C41      1.0000 0.39425  0.17192  0.38667  Biso   1.000  C
  O4       1.0000 0.19266  0.65754  0.29377  Biso   1.000  O
  C42      1.0000 0.26052  0.75298  0.37244  Biso   1.000  C
  C43      1.0000 0.21329  0.15526  0.33331  Biso   1.000  C
  C44      1.0000 0.25823  0.13194  0.38421  Biso   1.000  C
  C45      1.0000 0.08353  0.65496  0.32990  Biso   1.000  C
  C46      1.0000 0.12431  0.70952  0.37912  Biso   1.000  C
  C47      1.0000 0.08046  0.13581  0.30779  Biso   1.000  C
  C48      1.0000 0.95198  0.60268  0.31042  Biso   1.000  C
  C49      1.0000 0.03135  0.25833  0.28007  Biso   1.000  C
  C50      1.0000 0.09504  0.02480  0.26095  Biso   1.000  C
  C51      1.0000 0.98115  0.09018  0.35062  Biso   1.000  C
  C52      1.0000 0.97173  0.47262  0.28269  Biso   1.000  C
  C53      1.0000 0.85942  0.58770  0.36226  Biso   1.000  C
  C54      1.0000 0.89157  0.70298  0.26719  Biso   1.000  C
  N4       1.0000 0.02192  0.36935  0.31427  Biso   1.000  N
  C55      1.0000 0.98611  0.28998  0.22925  Biso   1.000  C
  C56      1.0000 0.94673  0.42688  0.23052  Biso   1.000  C
  C57      1.0000 0.48810  0.44474  0.71833  Biso   1.000  C
  C58      1.0000 0.52262  0.40030  0.76809  Biso   1.000  C
  C59      1.0000 0.44980  0.57966  0.72473  Biso   1.000  C
  N5       1.0000 0.50724  0.49980  0.80632  Biso   1.000  N
  C60      1.0000 0.56885  0.26855  0.79233  Biso   1.000  C
  C61      1.0000 0.46399  0.61121  0.77773  Biso   1.000  C
  C62      1.0000 0.70030  0.28194  0.82092  Biso   1.000  C
  C63      1.0000 0.58681  0.16696  0.74409  Biso   1.000  C
  C64      1.0000 0.46815  0.21062  0.83109  Biso   1.000  C
  C65      1.0000 0.44008  0.73373  0.81255  Biso   1.000  C
  O5       1.0000 0.80734  0.34246  0.79377  Biso   1.000  O
  C66      1.0000 0.73948  0.24702  0.87244  Biso   1.000  C
  C67      1.0000 0.57083  0.78204  0.83560  Biso   1.000  C
  C68      1.0000 0.34335  0.71518  0.85915  Biso   1.000  C
  C69      1.0000 0.38552  0.84187  0.76907  Biso   1.000  C
  C70      1.0000 0.91647  0.34504  0.82990  Biso   1.000  C
  C71      1.0000 0.87569  0.29048  0.87912  Biso   1.000  C
  O6       1.0000 0.68363  0.79127  0.80217  Biso   1.000  O
  C72      1.0000 0.60575  0.82808  0.88667  Biso   1.000  C
  C73      1.0000 0.04802  0.39732  0.81042  Biso   1.000  C
  C74      1.0000 0.78671  0.84474  0.83331  Biso   1.000  C
  C75      1.0000 0.74177  0.86806  0.88421  Biso   1.000  C
  C76      1.0000 0.02827  0.52738  0.78269  Biso   1.000  C
  C77      1.0000 0.14058  0.41230  0.86226  Biso   1.000  C
  C78      1.0000 0.10843  0.29702  0.76719  Biso   1.000  C
  C79      1.0000 0.91954  0.86419  0.80779  Biso   1.000  C
  N6       1.0000 0.97808  0.63065  0.81427  Biso   1.000  N
  C80      1.0000 0.05327  0.57312  0.73052  Biso   1.000  C
  C81      1.0000 0.96865  0.74167  0.78007  Biso   1.000  C
  C82      1.0000 0.90496  0.97520  0.76095  Biso   1.000  C
  C83      1.0000 0.01885  0.90982  0.85062  Biso   1.000  C
  C84      1.0000 0.01389  0.71002  0.72925  Biso   1.000  C
  C85      1.0000 0.17192  0.60575  0.13667  Biso   1.000  C
  C86      1.0000 0.21796  0.57083  0.08560  Biso   1.000  C
  C87      1.0000 0.13194  0.74177  0.13421  Biso   1.000  C
  C88      1.0000 0.26627  0.44008  0.06255  Biso   1.000  C
  O7       1.0000 0.20873  0.68363  0.05217  Biso   1.000  O
  C89      1.0000 0.15526  0.78671  0.08331  Biso   1.000  C
  C90      1.0000 0.28482  0.34335  0.10915  Biso   1.000  C
  C91      1.0000 0.38879  0.46399  0.02773  Biso   1.000  C
  C92      1.0000 0.15813  0.38552  0.01907  Biso   1.000  C
  C93      1.0000 0.13581  0.91954  0.05779  Biso   1.000  C
  N7       1.0000 0.50020  0.50724  0.05632  Biso   1.000  N
  C94      1.0000 0.42034  0.44980  0.97473  Biso   1.000  C
  C95      1.0000 0.25833  0.96865  0.03007  Biso   1.000  C
  C96      1.0000 0.02480  0.90496  0.01095  Biso   1.000  C
  C97      1.0000 0.09018  0.01885  0.10062  Biso   1.000  C
  C98      1.0000 0.59970  0.52262  0.01809  Biso   1.000  C
  C99      1.0000 0.55526  0.48810  0.96833  Biso   1.000  C
  N8       1.0000 0.36935  0.97808  0.06427  Biso   1.000  N
  C100     1.0000 0.28998  0.01389  0.97925  Biso   1.000  C
  C101     1.0000 0.73145  0.56885  0.04233  Biso   1.000  C
  C102     1.0000 0.47262  0.02827  0.03269  Biso   1.000  C
  C103     1.0000 0.42688  0.05327  0.98052  Biso   1.000  C
  C104     1.0000 0.71806  0.70030  0.07092  Biso   1.000  C
  C105     1.0000 0.78938  0.46815  0.08109  Biso   1.000  C
  C106     1.0000 0.83304  0.58681  0.99409  Biso   1.000  C
  C107     1.0000 0.60268  0.04802  0.06042  Biso   1.000  C
  O8       1.0000 0.65754  0.80734  0.04377  Biso   1.000  O
  C108     1.0000 0.75298  0.73948  0.12244  Biso   1.000  C
  C109     1.0000 0.65496  0.91647  0.07990  Biso   1.000  C
  C110     1.0000 0.58770  0.14058  0.11226  Biso   1.000  C
  C111     1.0000 0.70298  0.10843  0.01719  Biso   1.000  C
  C112     1.0000 0.70952  0.87569  0.12912  Biso   1.000  C
