data_image0
_cell_length_a       14.317
_cell_length_b       19.722
_cell_length_c       19.99
_cell_angle_alpha    90
_cell_angle_beta     105.53
_cell_angle_gamma    90

_symmetry_space_group_name_H-M    "P 1"
_symmetry_int_tables_number       1

loop_
  _symmetry_equiv_pos_as_xyz
  'x, y, z'

loop_
  _atom_site_label
  _atom_site_occupancy
  _atom_site_fract_x
  _atom_site_fract_y
  _atom_site_fract_z
  _atom_site_thermal_displace_type
  _atom_site_B_iso_or_equiv
  _atom_site_type_symbol
  C1       1.0000 0.85551  0.39818  0.70726  Biso   1.000  C
  N1       1.0000 0.81005  0.45710  0.68317  Biso   1.000  N
  O1       1.0000 0.81994  0.35149  0.73374  Biso   1.000  O
  N2       1.0000 0.94534  0.39910  0.69719  Biso   1.000  N
  C2       1.0000 0.70743  0.46902  0.67549  Biso   1.000  C
  C3       1.0000 0.86651  0.49990  0.65036  Biso   1.000  C
  C4       1.0000 0.96393  0.46050  0.66339  Biso   1.000  C
  C5       1.0000 0.01053  0.34200  0.71126  Biso   1.000  C
  N3       1.0000 0.68975  0.52251  0.72029  Biso   1.000  N
  H1       1.0000 0.67742  0.42653  0.68618  Biso   1.000  H
  H2       1.0000 0.67574  0.48109  0.62658  Biso   1.000  H
  N4       1.0000 0.89367  0.56348  0.68416  Biso   1.000  N
  H3       1.0000 0.83478  0.50578  0.59968  Biso   1.000  H
  H4       1.0000 0.98157  0.45082  0.61921  Biso   1.000  H
  N5       1.0000 0.03244  0.50659  0.70820  Biso   1.000  N
  H5       1.0000 0.97402  0.30129  0.71858  Biso   1.000  H
  N6       1.0000 0.09144  0.35138  0.77055  Biso   1.000  N
  H6       1.0000 0.03495  0.33349  0.67009  Biso   1.000  H
  C6       1.0000 0.64006  0.50852  0.76749  Biso   1.000  C
  C7       1.0000 0.67713  0.59269  0.69719  Biso   1.000  C
  C8       1.0000 0.99044  0.56789  0.71469  Biso   1.000  C
  C9       1.0000 0.83384  0.62423  0.66910  Biso   1.000  C
  C10      1.0000 0.13626  0.50101  0.71837  Biso   1.000  C
  C11      1.0000 0.10720  0.31102  0.82896  Biso   1.000  C
  C12      1.0000 0.18158  0.38323  0.76448  Biso   1.000  C
  O2       1.0000 0.63074  0.45178  0.79096  Biso   1.000  O
  N7       1.0000 0.60373  0.56718  0.78577  Biso   1.000  N
  N8       1.0000 0.76547  0.63143  0.70929  Biso   1.000  N
  H7       1.0000 0.63735  0.59629  0.64776  Biso   1.000  H
  C13      1.0000 0.62408  0.62392  0.74828  Biso   1.000  C
  O3       1.0000 0.03403  0.61911  0.74309  Biso   1.000  O
  H8       1.0000 0.79803  0.62372  0.61926  Biso   1.000  H
  H9       1.0000 0.87686  0.66438  0.67710  Biso   1.000  H
  N9       1.0000 0.18263  0.45558  0.77346  Biso   1.000  N
  H10      1.0000 0.16572  0.54650  0.72860  Biso   1.000  H
  H11      1.0000 0.14884  0.48499  0.67466  Biso   1.000  H
  O4       1.0000 0.04664  0.27614  0.84428  Biso   1.000  O
  N10      1.0000 0.20295  0.31741  0.86536  Biso   1.000  N
  C14      1.0000 0.25855  0.35782  0.83005  Biso   1.000  C
  H12      1.0000 0.19774  0.36969  0.72066  Biso   1.000  H
  C15      1.0000 0.54263  0.56952  0.83198  Biso   1.000  C
  C16      1.0000 0.77333  0.67939  0.76059  Biso   1.000  C
  N11      1.0000 0.69473  0.67219  0.78779  Biso   1.000  N
  H13      1.0000 0.56306  0.64740  0.72258  Biso   1.000  H
  C17      1.0000 0.25152  0.47581  0.82995  Biso   1.000  C
  C18      1.0000 0.24650  0.26889  0.91946  Biso   1.000  C
  N12      1.0000 0.29685  0.41938  0.86396  Biso   1.000  N
  H14      1.0000 0.30997  0.33029  0.81739  Biso   1.000  H
  N13      1.0000 0.59153  0.59441  0.89999  Biso   1.000  N
  H15      1.0000 0.51774  0.52343  0.83639  Biso   1.000  H
  H16      1.0000 0.48632  0.59913  0.81157  Biso   1.000  H
  O5       1.0000 0.83600  0.72249  0.77725  Biso   1.000  O
  C19      1.0000 0.66956  0.72533  0.82995  Biso   1.000  C
  O6       1.0000 0.27284  0.53478  0.84755  Biso   1.000  O
  N14      1.0000 0.28493  0.29972  0.98639  Biso   1.000  N
  H17      1.0000 0.29953  0.24480  0.90607  Biso   1.000  H
  H18      1.0000 0.19724  0.23492  0.92279  Biso   1.000  H
  C20      1.0000 0.38704  0.42283  0.91816  Biso   1.000  C
  C21      1.0000 0.59983  0.55618  0.95825  Biso   1.000  C
  C22      1.0000 0.59381  0.66672  0.91505  Biso   1.000  C
  N15      1.0000 0.67053  0.70353  0.89927  Biso   1.000  N
  H19      1.0000 0.71586  0.76331  0.83348  Biso   1.000  H
  H20      1.0000 0.60417  0.74262  0.80638  Biso   1.000  H
  C23      1.0000 0.26380  0.27370  0.04329  Biso   1.000  C
  C24      1.0000 0.38051  0.33029  0.00477  Biso   1.000  C
  N16      1.0000 0.37915  0.40062  0.98488  Biso   1.000  N
  H21      1.0000 0.41074  0.47019  0.92216  Biso   1.000  H
  H22      1.0000 0.43590  0.39438  0.90446  Biso   1.000  H
  O7       1.0000 0.59136  0.49483  0.96006  Biso   1.000  O
  N17      1.0000 0.62080  0.59938  0.01510  Biso   1.000  N
  H23      1.0000 0.52965  0.68842  0.89366  Biso   1.000  H
  C25      1.0000 0.61942  0.66971  0.99516  Biso   1.000  C
  C26      1.0000 0.73614  0.72630  0.95669  Biso   1.000  C
  O8       1.0000 0.19450  0.23522  0.04251  Biso   1.000  O
  N18      1.0000 0.32940  0.29652  0.10067  Biso   1.000  N
  H24      1.0000 0.42850  0.30321  0.98779  Biso   1.000  H
  C27      1.0000 0.40612  0.33328  0.08488  Biso   1.000  C
  C28      1.0000 0.40010  0.44382  0.04168  Biso   1.000  C
  C29      1.0000 0.61289  0.57722  0.08177  Biso   1.000  C
  N19      1.0000 0.71502  0.70028  0.01359  Biso   1.000  N
  H25      1.0000 0.57138  0.69679  0.01219  Biso   1.000  H
  O9       1.0000 0.80544  0.76483  0.95747  Biso   1.000  O
  C30      1.0000 0.33037  0.27472  0.16998  Biso   1.000  C
  N20      1.0000 0.40842  0.40559  0.09999  Biso   1.000  N
  H26      1.0000 0.47028  0.31158  0.10627  Biso   1.000  H
  O10      1.0000 0.40857  0.50522  0.03987  Biso   1.000  O
  N21      1.0000 0.70307  0.58062  0.13597  Biso   1.000  N
  H27      1.0000 0.58919  0.52981  0.07777  Biso   1.000  H
  H28      1.0000 0.56403  0.60562  0.09547  Biso   1.000  H
  C31      1.0000 0.75343  0.73111  0.08047  Biso   1.000  C
  N22      1.0000 0.30522  0.32781  0.21219  Biso   1.000  N
  H29      1.0000 0.28409  0.23669  0.16650  Biso   1.000  H
  H30      1.0000 0.39578  0.25738  0.19360  Biso   1.000  H
  C32      1.0000 0.45732  0.43048  0.16801  Biso   1.000  C
  C33      1.0000 0.74841  0.52419  0.16998  Biso   1.000  C
  C34      1.0000 0.74138  0.64223  0.16988  Biso   1.000  C
  N23      1.0000 0.79698  0.68259  0.13457  Biso   1.000  N
  H31      1.0000 0.70039  0.75520  0.09386  Biso   1.000  H
  H32      1.0000 0.80271  0.76508  0.07720  Biso   1.000  H
  C35      1.0000 0.22662  0.32061  0.23940  Biso   1.000  C
  C36      1.0000 0.37587  0.37613  0.25170  Biso   1.000  C
  N24      1.0000 0.39620  0.43282  0.21416  Biso   1.000  N
  H33      1.0000 0.48221  0.47663  0.16359  Biso   1.000  H
  H34      1.0000 0.51363  0.40092  0.18841  Biso   1.000  H
  O11      1.0000 0.72709  0.46522  0.15238  Biso   1.000  O
  N25      1.0000 0.81730  0.54442  0.22647  Biso   1.000  N
  H35      1.0000 0.68998  0.66971  0.18260  Biso   1.000  H
  C37      1.0000 0.81837  0.61682  0.23550  Biso   1.000  C
  C38      1.0000 0.89266  0.68903  0.17097  Biso   1.000  C
  O12      1.0000 0.16386  0.27751  0.22268  Biso   1.000  O
  N26      1.0000 0.23448  0.36862  0.29069  Biso   1.000  N
  C39      1.0000 0.32282  0.40731  0.30279  Biso   1.000  C
  H36      1.0000 0.43689  0.35260  0.27740  Biso   1.000  H
  C40      1.0000 0.35989  0.49148  0.23249  Biso   1.000  C
  C41      1.0000 0.86369  0.49899  0.28161  Biso   1.000  C
  N27      1.0000 0.90849  0.64862  0.22938  Biso   1.000  N
  H37      1.0000 0.80219  0.63031  0.27927  Biso   1.000  H
  O13      1.0000 0.95331  0.72391  0.15570  Biso   1.000  O
  C42      1.0000 0.16610  0.37582  0.33088  Biso   1.000  C
  N28      1.0000 0.31020  0.47749  0.27969  Biso   1.000  N
  H38      1.0000 0.36258  0.40371  0.35217  Biso   1.000  H
  O14      1.0000 0.36919  0.54822  0.20897  Biso   1.000  O
  N29      1.0000 0.96751  0.49341  0.29178  Biso   1.000  N
  H39      1.0000 0.83416  0.45350  0.27138  Biso   1.000  H
  H40      1.0000 0.85109  0.51501  0.32527  Biso   1.000  H
  C43      1.0000 0.98940  0.65800  0.28867  Biso   1.000  C
  N30      1.0000 0.10625  0.43652  0.31577  Biso   1.000  N
  H41      1.0000 0.20190  0.37628  0.38067  Biso   1.000  H
  H42      1.0000 0.12309  0.33562  0.32289  Biso   1.000  H
  C44      1.0000 0.29251  0.53098  0.32449  Biso   1.000  C
  C45      1.0000 0.00951  0.43211  0.28529  Biso   1.000  C
  C46      1.0000 0.03602  0.53950  0.33659  Biso   1.000  C
  H43      1.0000 0.96500  0.66651  0.32989  Biso   1.000  H
  N31      1.0000 0.05460  0.60090  0.30279  Biso   1.000  N
  H44      1.0000 0.02586  0.69871  0.28140  Biso   1.000  H
  C47      1.0000 0.13335  0.50010  0.34957  Biso   1.000  C
  N32      1.0000 0.18988  0.54290  0.31676  Biso   1.000  N
  H45      1.0000 0.32246  0.57352  0.31380  Biso   1.000  H
  H46      1.0000 0.32421  0.51891  0.37340  Biso   1.000  H
  O15      1.0000 0.96592  0.38089  0.25689  Biso   1.000  O
  H47      1.0000 0.01838  0.54918  0.38078  Biso   1.000  H
  C48      1.0000 0.14442  0.60182  0.29267  Biso   1.000  C
  H48      1.0000 0.16516  0.49422  0.40030  Biso   1.000  H
  O16      1.0000 0.17999  0.64851  0.26619  Biso   1.000  O
  O17      1.0000 0.96585  0.11911  0.75690  Biso   1.000  O
  C49      1.0000 0.00943  0.06789  0.78530  Biso   1.000  C
  N33      1.0000 0.96744  0.00659  0.79179  Biso   1.000  N
  N34      1.0000 0.10625  0.06348  0.81578  Biso   1.000  N
  C50      1.0000 0.86366  0.00101  0.78156  Biso   1.000  C
  C51      1.0000 0.03594  0.96050  0.83660  Biso   1.000  C
  C52      1.0000 0.13334  0.99990  0.84958  Biso   1.000  C
  C53      1.0000 0.16603  0.12418  0.83089  Biso   1.000  C
  N35      1.0000 0.81723  0.95563  0.72647  Biso   1.000  N
  H49      1.0000 0.83415  0.04650  0.77138  Biso   1.000  H
  H50      1.0000 0.85102  0.98499  0.82528  Biso   1.000  H
  N36      1.0000 0.05453  0.89910  0.80280  Biso   1.000  N
  H51      1.0000 0.01831  0.95082  0.88078  Biso   1.000  H
  N37      1.0000 0.18981  0.95710  0.81676  Biso   1.000  N
  H52      1.0000 0.16514  0.00578  0.90025  Biso   1.000  H
  N38      1.0000 0.23447  0.13138  0.79070  Biso   1.000  N
  H53      1.0000 0.20183  0.12372  0.88068  Biso   1.000  H
  H54      1.0000 0.12302  0.16438  0.82289  Biso   1.000  H
  C54      1.0000 0.74833  0.97581  0.66998  Biso   1.000  C
  C55      1.0000 0.81835  0.88323  0.73546  Biso   1.000  C
  C56      1.0000 0.98932  0.84200  0.78867  Biso   1.000  C
  C57      1.0000 0.14434  0.89818  0.79267  Biso   1.000  C
  C58      1.0000 0.29244  0.96902  0.82450  Biso   1.000  C
  C59      1.0000 0.22654  0.17939  0.73940  Biso   1.000  C
  C60      1.0000 0.32274  0.09269  0.80280  Biso   1.000  C
  N39      1.0000 0.70307  0.91943  0.63598  Biso   1.000  N
  O18      1.0000 0.72708  0.03478  0.65238  Biso   1.000  O
  C61      1.0000 0.74138  0.85782  0.66988  Biso   1.000  C
  N40      1.0000 0.90842  0.85138  0.72938  Biso   1.000  N
  H55      1.0000 0.80211  0.86969  0.77928  Biso   1.000  H
  H56      1.0000 0.96492  0.83349  0.82990  Biso   1.000  H
  H57      1.0000 0.02584  0.80129  0.78135  Biso   1.000  H
  O19      1.0000 0.17991  0.85149  0.76619  Biso   1.000  O
  H58      1.0000 0.32244  0.92653  0.81375  Biso   1.000  H
  H59      1.0000 0.32412  0.98109  0.87336  Biso   1.000  H
  N41      1.0000 0.31012  0.02251  0.77969  Biso   1.000  N
  N42      1.0000 0.30515  0.17219  0.71220  Biso   1.000  N
  O20      1.0000 0.16386  0.22249  0.72268  Biso   1.000  O
  C62      1.0000 0.37585  0.12392  0.75165  Biso   1.000  C
  H60      1.0000 0.36250  0.09629  0.85217  Biso   1.000  H
  C63      1.0000 0.61282  0.92283  0.58177  Biso   1.000  C
  N43      1.0000 0.79698  0.81741  0.63457  Biso   1.000  N
  H61      1.0000 0.68998  0.83029  0.68260  Biso   1.000  H
  C64      1.0000 0.89266  0.81102  0.67097  Biso   1.000  C
  C65      1.0000 0.35988  0.00852  0.73250  Biso   1.000  C
  C66      1.0000 0.33037  0.22528  0.66998  Biso   1.000  C
  N44      1.0000 0.39613  0.06718  0.71417  Biso   1.000  N
  H62      1.0000 0.43686  0.14740  0.77736  Biso   1.000  H
  N45      1.0000 0.62080  0.90062  0.51510  Biso   1.000  N
  H63      1.0000 0.58918  0.97019  0.57777  Biso   1.000  H
  H64      1.0000 0.56395  0.89443  0.59548  Biso   1.000  H
  C67      1.0000 0.75336  0.76889  0.58047  Biso   1.000  C
  O21      1.0000 0.95323  0.77614  0.65571  Biso   1.000  O
  O22      1.0000 0.36911  0.95178  0.70898  Biso   1.000  O
  N46      1.0000 0.32932  0.20348  0.60067  Biso   1.000  N
  H65      1.0000 0.28409  0.26331  0.66650  Biso   1.000  H
  H66      1.0000 0.39576  0.24262  0.69356  Biso   1.000  H
  C68      1.0000 0.45722  0.06952  0.66796  Biso   1.000  C
  C69      1.0000 0.59984  0.94382  0.45830  Biso   1.000  C
  C70      1.0000 0.61949  0.83029  0.49517  Biso   1.000  C
  N47      1.0000 0.71495  0.79972  0.51360  Biso   1.000  N
  H67      1.0000 0.70032  0.74480  0.59387  Biso   1.000  H
  H68      1.0000 0.80263  0.73492  0.57720  Biso   1.000  H
  C71      1.0000 0.26373  0.22630  0.54330  Biso   1.000  C
  C72      1.0000 0.40605  0.16672  0.58489  Biso   1.000  C
  N48      1.0000 0.40835  0.09441  0.59999  Biso   1.000  N
  H69      1.0000 0.48213  0.02337  0.66360  Biso   1.000  H
  H70      1.0000 0.51353  0.09908  0.68836  Biso   1.000  H
  N49      1.0000 0.59159  0.90559  0.40000  Biso   1.000  N
  O23      1.0000 0.59135  0.00522  0.46007  Biso   1.000  O
  C73      1.0000 0.59389  0.83333  0.41511  Biso   1.000  C
  H71      1.0000 0.57137  0.80321  0.51220  Biso   1.000  H
  C74      1.0000 0.73614  0.77370  0.45669  Biso   1.000  C
  N50      1.0000 0.28499  0.20028  0.48639  Biso   1.000  N
  O24      1.0000 0.19448  0.26478  0.54247  Biso   1.000  O
  C75      1.0000 0.38043  0.16971  0.50477  Biso   1.000  C
  H72      1.0000 0.47027  0.18842  0.60628  Biso   1.000  H
  C76      1.0000 0.40003  0.05618  0.54169  Biso   1.000  C
  C77      1.0000 0.54270  0.93053  0.33198  Biso   1.000  C
  N51      1.0000 0.67053  0.79652  0.39927  Biso   1.000  N
  H73      1.0000 0.52967  0.81163  0.39371  Biso   1.000  H
  O25      1.0000 0.80544  0.73522  0.45747  Biso   1.000  O
  C78      1.0000 0.24656  0.23111  0.41947  Biso   1.000  C
  N52      1.0000 0.37914  0.09938  0.48489  Biso   1.000  N
  H74      1.0000 0.42856  0.19679  0.48779  Biso   1.000  H
  O26      1.0000 0.40857  0.99483  0.53987  Biso   1.000  O
  N53      1.0000 0.60379  0.93282  0.28577  Biso   1.000  N
  H75      1.0000 0.51781  0.97663  0.33639  Biso   1.000  H
  H76      1.0000 0.48639  0.90092  0.31158  Biso   1.000  H
  C79      1.0000 0.66957  0.77472  0.33001  Biso   1.000  C
  N54      1.0000 0.20294  0.18259  0.36537  Biso   1.000  N
  H77      1.0000 0.29953  0.25520  0.40607  Biso   1.000  H
  H78      1.0000 0.19724  0.26508  0.42279  Biso   1.000  H
  C80      1.0000 0.38703  0.07722  0.41817  Biso   1.000  C
  C81      1.0000 0.64006  0.99153  0.26750  Biso   1.000  C
  C82      1.0000 0.62407  0.87613  0.24828  Biso   1.000  C
  N55      1.0000 0.69479  0.82781  0.28780  Biso   1.000  N
  H79      1.0000 0.71585  0.73669  0.33349  Biso   1.000  H
  H80      1.0000 0.60416  0.75743  0.30638  Biso   1.000  H
  C83      1.0000 0.10726  0.18898  0.32897  Biso   1.000  C
  C84      1.0000 0.25856  0.14218  0.33011  Biso   1.000  C
  N56      1.0000 0.29685  0.08062  0.36396  Biso   1.000  N
  H81      1.0000 0.41074  0.02981  0.42217  Biso   1.000  H
  H82      1.0000 0.43599  0.10562  0.40451  Biso   1.000  H
  O27      1.0000 0.63076  0.04822  0.29102  Biso   1.000  O
  N57      1.0000 0.68981  0.97749  0.22030  Biso   1.000  N
  C85      1.0000 0.67720  0.90731  0.19719  Biso   1.000  C
  H83      1.0000 0.56306  0.85260  0.22258  Biso   1.000  H
  C86      1.0000 0.77340  0.82061  0.26059  Biso   1.000  C
  N58      1.0000 0.09145  0.14862  0.27061  Biso   1.000  N
  O28      1.0000 0.04671  0.22386  0.34429  Biso   1.000  O
  C87      1.0000 0.18157  0.11682  0.26448  Biso   1.000  C
  H84      1.0000 0.30996  0.16971  0.31739  Biso   1.000  H
  C88      1.0000 0.25161  0.02419  0.33001  Biso   1.000  C
  C89      1.0000 0.70750  0.03098  0.17549  Biso   1.000  C
  N59      1.0000 0.76547  0.86862  0.20929  Biso   1.000  N
  H85      1.0000 0.63736  0.90371  0.14782  Biso   1.000  H
  O29      1.0000 0.83608  0.77751  0.27731  Biso   1.000  O
  C90      1.0000 0.01062  0.15800  0.21132  Biso   1.000  C
  N60      1.0000 0.18271  0.04442  0.27352  Biso   1.000  N
  H86      1.0000 0.19776  0.13031  0.22071  Biso   1.000  H
  O30      1.0000 0.27285  0.96522  0.34761  Biso   1.000  O
  N61      1.0000 0.81011  0.04290  0.18318  Biso   1.000  N
  H87      1.0000 0.67748  0.07352  0.18619  Biso   1.000  H
  H88      1.0000 0.67580  0.01891  0.12658  Biso   1.000  H
  C91      1.0000 0.83391  0.87582  0.16911  Biso   1.000  C
  N62      1.0000 0.94541  0.10090  0.19719  Biso   1.000  N
  H89      1.0000 0.97408  0.19871  0.21859  Biso   1.000  H
  H90      1.0000 0.03502  0.16651  0.17009  Biso   1.000  H
  C92      1.0000 0.13626  0.99899  0.21838  Biso   1.000  C
  C93      1.0000 0.85560  0.10182  0.20732  Biso   1.000  C
  C94      1.0000 0.86660  0.00010  0.15041  Biso   1.000  C
  N63      1.0000 0.89369  0.93652  0.18421  Biso   1.000  N
  H91      1.0000 0.79811  0.87633  0.11931  Biso   1.000  H
  H92      1.0000 0.87692  0.83562  0.17710  Biso   1.000  H
  C95      1.0000 0.96399  0.03950  0.16339  Biso   1.000  C
  N64      1.0000 0.03250  0.99341  0.20820  Biso   1.000  N
  H93      1.0000 0.16578  0.95350  0.22861  Biso   1.000  H
  H94      1.0000 0.14892  0.01501  0.17471  Biso   1.000  H
  O31      1.0000 0.82001  0.14851  0.23375  Biso   1.000  O
  H95      1.0000 0.83478  0.99422  0.09969  Biso   1.000  H
  C96      1.0000 0.99051  0.93211  0.21469  Biso   1.000  C
  H96      1.0000 0.98156  0.04918  0.11921  Biso   1.000  H
  O32      1.0000 0.03409  0.88089  0.24309  Biso   1.000  O
  Ne1      1.0000 0.99996  0.00000  0.49999  Biso   1.000  Ne
  He1      1.0000 0.12097  0.82895  0.48565  Biso   1.000  He
  He2      1.0000 0.89338  0.15430  0.51469  Biso   1.000  He
  Ar1      1.0000 0.99997  0.00001  0.49998  Biso   1.000  Ar
  Ne2      1.0000 0.99997  0.50001  0.99998  Biso   1.000  Ne
  He3      1.0000 0.86994  0.35927  0.99380  Biso   1.000  He
  He4      1.0000 0.09504  0.63994  0.98546  Biso   1.000  He
  Ar2      1.0000 0.99996  0.50002  0.99999  Biso   1.000  Ar
