data_image0
_cell_length_a       15.292
_cell_length_b       22.693
_cell_length_c       26.547
_cell_angle_alpha    70.26
_cell_angle_beta     77.45
_cell_angle_gamma    80.45

_symmetry_space_group_name_H-M    "P 1"
_symmetry_int_tables_number       1

loop_
  _symmetry_equiv_pos_as_xyz
  'x, y, z'

loop_
  _atom_site_label
  _atom_site_occupancy
  _atom_site_fract_x
  _atom_site_fract_y
  _atom_site_fract_z
  _atom_site_thermal_displace_type
  _atom_site_B_iso_or_equiv
  _atom_site_type_symbol
  O1       1.0000 0.56666  0.72929  0.42350  Biso   1.000  O
  C1       1.0000 0.57938  0.78310  0.39330  Biso   1.000  C
  N1       1.0000 0.65543  0.80030  0.35539  Biso   1.000  N
  N2       1.0000 0.51968  0.83538  0.39282  Biso   1.000  N
  C2       1.0000 0.73630  0.75890  0.35299  Biso   1.000  C
  C3       1.0000 0.65301  0.86810  0.33161  Biso   1.000  C
  C4       1.0000 0.43359  0.83421  0.42659  Biso   1.000  C
  C5       1.0000 0.55820  0.89273  0.35449  Biso   1.000  C
  N3       1.0000 0.75899  0.74209  0.30451  Biso   1.000  N
  H1       1.0000 0.72946  0.72091  0.38379  Biso   1.000  H
  H2       1.0000 0.78541  0.77889  0.35592  Biso   1.000  H
  N4       1.0000 0.65313  0.89189  0.27431  Biso   1.000  N
  H3       1.0000 0.69998  0.88501  0.34202  Biso   1.000  H
  N5       1.0000 0.35866  0.83891  0.40009  Biso   1.000  N
  H4       1.0000 0.43318  0.79540  0.45682  Biso   1.000  H
  H5       1.0000 0.42466  0.86870  0.44162  Biso   1.000  H
  N6       1.0000 0.51598  0.92172  0.30760  Biso   1.000  N
  H6       1.0000 0.56096  0.92300  0.37302  Biso   1.000  H
  C6       1.0000 0.75987  0.68171  0.30292  Biso   1.000  C
  C7       1.0000 0.81260  0.77958  0.25391  Biso   1.000  C
  C8       1.0000 0.73661  0.89099  0.23530  Biso   1.000  C
  C9       1.0000 0.57684  0.92629  0.26151  Biso   1.000  C
  C10      1.0000 0.31488  0.78822  0.40692  Biso   1.000  C
  C11      1.0000 0.30890  0.89739  0.37441  Biso   1.000  C
  C12      1.0000 0.43258  0.96291  0.30800  Biso   1.000  C
  N7       1.0000 0.79574  0.67949  0.25229  Biso   1.000  N
  O2       1.0000 0.73277  0.63769  0.34161  Biso   1.000  O
  C13      1.0000 0.83791  0.73600  0.21872  Biso   1.000  C
  N8       1.0000 0.76092  0.83340  0.22160  Biso   1.000  N
  H7       1.0000 0.86597  0.79201  0.26102  Biso   1.000  H
  H8       1.0000 0.78521  0.89800  0.25009  Biso   1.000  H
  H9       1.0000 0.73065  0.92562  0.20230  Biso   1.000  H
  O3       1.0000 0.56224  0.95732  0.21530  Biso   1.000  O
  N9       1.0000 0.24369  0.80722  0.38249  Biso   1.000  N
  O4       1.0000 0.33709  0.73378  0.43402  Biso   1.000  O
  C14      1.0000 0.22726  0.87540  0.36282  Biso   1.000  C
  N10      1.0000 0.35394  0.93200  0.31979  Biso   1.000  N
  H10      1.0000 0.28998  0.92398  0.39802  Biso   1.000  H
  H11      1.0000 0.43443  0.99499  0.27281  Biso   1.000  H
  H12      1.0000 0.42878  0.98401  0.33482  Biso   1.000  H
  C15      1.0000 0.81293  0.62079  0.23932  Biso   1.000  C
  N11      1.0000 0.80044  0.77131  0.17020  Biso   1.000  N
  H13      1.0000 0.90298  0.72700  0.21002  Biso   1.000  H
  C16      1.0000 0.75890  0.82889  0.17320  Biso   1.000  C
  C17      1.0000 0.17577  0.76628  0.38782  Biso   1.000  C
  N12      1.0000 0.23279  0.90381  0.30499  Biso   1.000  N
  H14      1.0000 0.17097  0.89002  0.38201  Biso   1.000  H
  C18      1.0000 0.30580  0.93558  0.28122  Biso   1.000  C
  N13      1.0000 0.74831  0.61411  0.20921  Biso   1.000  N
  H15      1.0000 0.81137  0.58589  0.27281  Biso   1.000  H
  H16      1.0000 0.87288  0.61852  0.21811  Biso   1.000  H
  C19      1.0000 0.80662  0.75001  0.12472  Biso   1.000  C
  O5       1.0000 0.72932  0.86910  0.13541  Biso   1.000  O
  N14      1.0000 0.18196  0.74430  0.34311  Biso   1.000  N
  H17      1.0000 0.11682  0.78909  0.39330  Biso   1.000  H
  H18      1.0000 0.17990  0.73020  0.42000  Biso   1.000  H
  C20      1.0000 0.17059  0.89529  0.27541  Biso   1.000  C
  O6       1.0000 0.32622  0.96508  0.23282  Biso   1.000  O
  C21      1.0000 0.67570  0.57978  0.23201  Biso   1.000  C
  C22      1.0000 0.75372  0.64019  0.14992  Biso   1.000  C
  N15      1.0000 0.74160  0.70822  0.13090  Biso   1.000  N
  H19      1.0000 0.79971  0.78633  0.09298  Biso   1.000  H
  H20      1.0000 0.86636  0.72871  0.11789  Biso   1.000  H
  C23      1.0000 0.22611  0.68641  0.34169  Biso   1.000  C
  C24      1.0000 0.14460  0.77969  0.29459  Biso   1.000  C
  N16      1.0000 0.18672  0.83721  0.26171  Biso   1.000  N
  H21      1.0000 0.11063  0.89728  0.29662  Biso   1.000  H
  H22      1.0000 0.17140  0.93027  0.24192  Biso   1.000  H
  N17      1.0000 0.63120  0.58399  0.19259  Biso   1.000  N
  O7       1.0000 0.65652  0.55070  0.28000  Biso   1.000  O
  C25      1.0000 0.67380  0.62012  0.13809  Biso   1.000  C
  H23      1.0000 0.81003  0.62399  0.13102  Biso   1.000  H
  C26      1.0000 0.66693  0.72722  0.10599  Biso   1.000  C
  N18      1.0000 0.22510  0.68310  0.29158  Biso   1.000  N
  O8       1.0000 0.25688  0.64628  0.37802  Biso   1.000  O
  C27      1.0000 0.17279  0.73661  0.25940  Biso   1.000  C
  H24      1.0000 0.07902  0.78799  0.30300  Biso   1.000  H
  C28      1.0000 0.22307  0.83541  0.21002  Biso   1.000  C
  C29      1.0000 0.55053  0.55310  0.20161  Biso   1.000  C
  N19      1.0000 0.62546  0.67769  0.11269  Biso   1.000  N
  H25      1.0000 0.69200  0.59402  0.11399  Biso   1.000  H
  O9       1.0000 0.64557  0.78299  0.08148  Biso   1.000  O
  C30      1.0000 0.25058  0.62410  0.27919  Biso   1.000  C
  N20      1.0000 0.22461  0.77449  0.20982  Biso   1.000  N
  H26      1.0000 0.12003  0.72401  0.25200  Biso   1.000  H
  O10      1.0000 0.24910  0.87908  0.17182  Biso   1.000  O
  N21      1.0000 0.46899  0.59321  0.20401  Biso   1.000  N
  H27      1.0000 0.54830  0.51858  0.23542  Biso   1.000  H
  H28      1.0000 0.55480  0.53530  0.17259  Biso   1.000  H
  C31      1.0000 0.55053  0.68052  0.08620  Biso   1.000  C
  N22      1.0000 0.32877  0.62422  0.23859  Biso   1.000  N
  H29      1.0000 0.20062  0.61438  0.26732  Biso   1.000  H
  H30      1.0000 0.26099  0.59081  0.31231  Biso   1.000  H
  C32      1.0000 0.24901  0.75870  0.16012  Biso   1.000  C
  C33      1.0000 0.40808  0.58848  0.25310  Biso   1.000  C
  C34      1.0000 0.42604  0.62539  0.15731  Biso   1.000  C
  N23      1.0000 0.46272  0.68052  0.12029  Biso   1.000  N
  H31      1.0000 0.55960  0.64470  0.07270  Biso   1.000  H
  H32      1.0000 0.55117  0.71830  0.05498  Biso   1.000  H
  C35      1.0000 0.32999  0.64892  0.18040  Biso   1.000  C
  N24      1.0000 0.33111  0.71661  0.15752  Biso   1.000  N
  H33      1.0000 0.20009  0.73908  0.15630  Biso   1.000  H
  H34      1.0000 0.25636  0.79709  0.12980  Biso   1.000  H
  O11      1.0000 0.42126  0.55769  0.29841  Biso   1.000  O
  H35      1.0000 0.42304  0.59598  0.13801  Biso   1.000  H
  C36      1.0000 0.40499  0.73391  0.11871  Biso   1.000  C
  H36      1.0000 0.28302  0.63299  0.16902  Biso   1.000  H
  O12      1.0000 0.41781  0.78600  0.08920  Biso   1.000  O
  O13      1.0000 0.43325  0.27069  0.57650  Biso   1.000  O
  C37      1.0000 0.42052  0.21693  0.60670  Biso   1.000  C
  N25      1.0000 0.48022  0.16459  0.60723  Biso   1.000  N
  N26      1.0000 0.34454  0.19973  0.64461  Biso   1.000  N
  C38      1.0000 0.56631  0.16582  0.57341  Biso   1.000  C
  C39      1.0000 0.44170  0.10730  0.64551  Biso   1.000  C
  C40      1.0000 0.26360  0.24113  0.64701  Biso   1.000  C
  C41      1.0000 0.34688  0.13192  0.66843  Biso   1.000  C
  N27      1.0000 0.64124  0.16112  0.59991  Biso   1.000  N
  H37      1.0000 0.56671  0.20462  0.54322  Biso   1.000  H
  H38      1.0000 0.57523  0.13131  0.55842  Biso   1.000  H
  N28      1.0000 0.48392  0.07831  0.69240  Biso   1.000  N
  H39      1.0000 0.43893  0.07701  0.62702  Biso   1.000  H
  N29      1.0000 0.24091  0.25794  0.69549  Biso   1.000  N
  H40      1.0000 0.27044  0.27912  0.61621  Biso   1.000  H
  H41      1.0000 0.21448  0.22113  0.64413  Biso   1.000  H
  N30      1.0000 0.34676  0.10813  0.72573  Biso   1.000  N
  H42      1.0000 0.29991  0.11500  0.65802  Biso   1.000  H
  C42      1.0000 0.68501  0.21180  0.59312  Biso   1.000  C
  C43      1.0000 0.69102  0.10260  0.62559  Biso   1.000  C
  C44      1.0000 0.42313  0.07374  0.73849  Biso   1.000  C
  C45      1.0000 0.56732  0.03712  0.69200  Biso   1.000  C
  C46      1.0000 0.24002  0.31830  0.69712  Biso   1.000  C
  C47      1.0000 0.18730  0.22039  0.74613  Biso   1.000  C
  C48      1.0000 0.26330  0.10904  0.76470  Biso   1.000  C
  O14      1.0000 0.66282  0.26619  0.56602  Biso   1.000  O
  N31      1.0000 0.75622  0.19281  0.61751  Biso   1.000  N
  N32      1.0000 0.64603  0.06803  0.68021  Biso   1.000  N
  C49      1.0000 0.77263  0.12461  0.63722  Biso   1.000  C
  H43      1.0000 0.70991  0.07603  0.60202  Biso   1.000  H
  O15      1.0000 0.43766  0.04271  0.78470  Biso   1.000  O
  H44      1.0000 0.56548  0.00504  0.72719  Biso   1.000  H
  H45      1.0000 0.57111  0.01601  0.66522  Biso   1.000  H
  O16      1.0000 0.26713  0.36234  0.65839  Biso   1.000  O
  N33      1.0000 0.20417  0.32049  0.74771  Biso   1.000  N
  N34      1.0000 0.23898  0.16663  0.77840  Biso   1.000  N
  H46      1.0000 0.13392  0.20800  0.73902  Biso   1.000  H
  C50      1.0000 0.16198  0.26401  0.78132  Biso   1.000  C
  H47      1.0000 0.21469  0.10203  0.74991  Biso   1.000  H
  H48      1.0000 0.26931  0.07441  0.79770  Biso   1.000  H
  C51      1.0000 0.82413  0.23369  0.61222  Biso   1.000  C
  C52      1.0000 0.69409  0.06443  0.71882  Biso   1.000  C
  N35      1.0000 0.76711  0.09622  0.69501  Biso   1.000  N
  H49      1.0000 0.82893  0.11000  0.61800  Biso   1.000  H
  C53      1.0000 0.18696  0.37923  0.76072  Biso   1.000  C
  C54      1.0000 0.24100  0.17114  0.82680  Biso   1.000  C
  N36      1.0000 0.19946  0.22872  0.82980  Biso   1.000  N
  H50      1.0000 0.09691  0.27301  0.79002  Biso   1.000  H
  N37      1.0000 0.81793  0.25572  0.65693  Biso   1.000  N
  H51      1.0000 0.88315  0.21094  0.60670  Biso   1.000  H
  H52      1.0000 0.82006  0.26983  0.58000  Biso   1.000  H
  O17      1.0000 0.67367  0.03493  0.76722  Biso   1.000  O
  C55      1.0000 0.82932  0.10474  0.72459  Biso   1.000  C
  N38      1.0000 0.25160  0.38592  0.79079  Biso   1.000  N
  H53      1.0000 0.18853  0.41414  0.72719  Biso   1.000  H
  H54      1.0000 0.12702  0.38151  0.78189  Biso   1.000  H
  O18      1.0000 0.27058  0.13093  0.86459  Biso   1.000  O
  C56      1.0000 0.19327  0.25001  0.87532  Biso   1.000  C
  C57      1.0000 0.77379  0.31362  0.65831  Biso   1.000  C
  C58      1.0000 0.85531  0.22034  0.70541  Biso   1.000  C
  N39      1.0000 0.81317  0.16281  0.73833  Biso   1.000  N
  H55      1.0000 0.88933  0.10273  0.70342  Biso   1.000  H
  H56      1.0000 0.82850  0.06970  0.75812  Biso   1.000  H
  C59      1.0000 0.32421  0.42020  0.76799  Biso   1.000  C
  C60      1.0000 0.24617  0.35983  0.85012  Biso   1.000  C
  N40      1.0000 0.25830  0.29181  0.86910  Biso   1.000  N
  H57      1.0000 0.20019  0.21370  0.90702  Biso   1.000  H
  H58      1.0000 0.13361  0.27132  0.88211  Biso   1.000  H
  O19      1.0000 0.74302  0.35369  0.62202  Biso   1.000  O
  N41      1.0000 0.77481  0.31693  0.70842  Biso   1.000  N
  C61      1.0000 0.82711  0.26342  0.74060  Biso   1.000  C
  H59      1.0000 0.92088  0.21204  0.69700  Biso   1.000  H
  C62      1.0000 0.77682  0.16460  0.79002  Biso   1.000  C
  O20      1.0000 0.34338  0.44933  0.72000  Biso   1.000  O
  N42      1.0000 0.36870  0.41604  0.80741  Biso   1.000  N
  H60      1.0000 0.18986  0.37603  0.86902  Biso   1.000  H
  C63      1.0000 0.32611  0.37991  0.86191  Biso   1.000  C
  C64      1.0000 0.33297  0.27280  0.89401  Biso   1.000  C
  C65      1.0000 0.74933  0.37593  0.72081  Biso   1.000  C
  N43      1.0000 0.77528  0.22553  0.79022  Biso   1.000  N
  H61      1.0000 0.87994  0.27602  0.74800  Biso   1.000  H
  O21      1.0000 0.75079  0.12093  0.82822  Biso   1.000  O
  C66      1.0000 0.44938  0.44693  0.79839  Biso   1.000  C
  N44      1.0000 0.37445  0.32234  0.88731  Biso   1.000  N
  H62      1.0000 0.30791  0.40601  0.88601  Biso   1.000  H
  O22      1.0000 0.35433  0.21704  0.91852  Biso   1.000  O
  N45      1.0000 0.67113  0.37580  0.76141  Biso   1.000  N
  H63      1.0000 0.79935  0.38559  0.73272  Biso   1.000  H
  H64      1.0000 0.73891  0.40922  0.68769  Biso   1.000  H
  C67      1.0000 0.75088  0.24132  0.83992  Biso   1.000  C
  N46      1.0000 0.53091  0.40682  0.79599  Biso   1.000  N
  H65      1.0000 0.45160  0.48139  0.76462  Biso   1.000  H
  H66      1.0000 0.44510  0.46473  0.82741  Biso   1.000  H
  C68      1.0000 0.44937  0.31951  0.91381  Biso   1.000  C
  C69      1.0000 0.59183  0.41150  0.74690  Biso   1.000  C
  C70      1.0000 0.66991  0.35111  0.81960  Biso   1.000  C
  N47      1.0000 0.66878  0.28340  0.84252  Biso   1.000  N
  H67      1.0000 0.79982  0.26090  0.84370  Biso   1.000  H
  H68      1.0000 0.74361  0.20293  0.87020  Biso   1.000  H
  C71      1.0000 0.57392  0.37462  0.84273  Biso   1.000  C
  N48      1.0000 0.53718  0.31951  0.87971  Biso   1.000  N
  H69      1.0000 0.44031  0.35532  0.92730  Biso   1.000  H
  H70      1.0000 0.44880  0.28173  0.94502  Biso   1.000  H
  O23      1.0000 0.57864  0.44234  0.70159  Biso   1.000  O
  H71      1.0000 0.71687  0.36703  0.83102  Biso   1.000  H
  C72      1.0000 0.59491  0.26612  0.88129  Biso   1.000  C
  H72      1.0000 0.57688  0.40401  0.86199  Biso   1.000  H
  O24      1.0000 0.58209  0.21403  0.91080  Biso   1.000  O
  O25      1.0000 0.80358  0.44662  0.25590  Biso   1.000  O
  C73      1.0000 0.84291  0.46372  0.21051  Biso   1.000  C
  N49      1.0000 0.81478  0.46598  0.16451  Biso   1.000  N
  N50      1.0000 0.92987  0.48383  0.19499  Biso   1.000  N
  C74      1.0000 0.72973  0.44421  0.16601  Biso   1.000  C
  C75      1.0000 0.88195  0.48998  0.11501  Biso   1.000  C
  C76      1.0000 0.95272  0.50542  0.13610  Biso   1.000  C
  C77      1.0000 0.97421  0.49521  0.23160  Biso   1.000  C
  N51      1.0000 0.73759  0.37969  0.16560  Biso   1.000  N
  H73      1.0000 0.68850  0.44782  0.19840  Biso   1.000  H
  H74      1.0000 0.70372  0.47149  0.13480  Biso   1.000  H
  N52      1.0000 0.92260  0.44500  0.08689  Biso   1.000  N
  H75      1.0000 0.85599  0.52800  0.09002  Biso   1.000  H
  H76      1.0000 0.95605  0.55102  0.12301  Biso   1.000  H
  N53      1.0000 0.03543  0.47309  0.11338  Biso   1.000  N
  H77      1.0000 0.93177  0.49412  0.26488  Biso   1.000  H
  H78      1.0000 0.99391  0.53711  0.21600  Biso   1.000  H
  N54      1.0000 0.05079  0.45042  0.24469  Biso   1.000  N
  C78      1.0000 0.70830  0.33160  0.21120  Biso   1.000  C
  C79      1.0000 0.75413  0.36192  0.11879  Biso   1.000  C
  C80      1.0000 0.87891  0.42212  0.05608  Biso   1.000  C
  C81      1.0000 0.01444  0.44149  0.08461  Biso   1.000  C
  C82      1.0000 0.12733  0.47930  0.11501  Biso   1.000  C
  C83      1.0000 0.05138  0.40991  0.29731  Biso   1.000  C
  C84      1.0000 0.14019  0.45709  0.21189  Biso   1.000  C
  N55      1.0000 0.71688  0.27903  0.19710  Biso   1.000  N
  O26      1.0000 0.68071  0.33641  0.25692  Biso   1.000  O
  C85      1.0000 0.73633  0.29249  0.13919  Biso   1.000  C
  N56      1.0000 0.84015  0.36328  0.08611  Biso   1.000  N
  H79      1.0000 0.71004  0.38601  0.09599  Biso   1.000  H
  H80      1.0000 0.92210  0.41629  0.02511  Biso   1.000  H
  H81      1.0000 0.83151  0.45380  0.04231  Biso   1.000  H
  O27      1.0000 0.06883  0.41229  0.05498  Biso   1.000  O
  N57      1.0000 0.15567  0.44012  0.16459  Biso   1.000  N
  H82      1.0000 0.16681  0.46849  0.08481  Biso   1.000  H
  H83      1.0000 0.13279  0.52280  0.11062  Biso   1.000  H
  O28      1.0000 0.98677  0.40130  0.33360  Biso   1.000  O
  N58      1.0000 0.13929  0.38210  0.30032  Biso   1.000  N
  H84      1.0000 0.15802  0.49901  0.20401  Biso   1.000  H
  C86      1.0000 0.19916  0.40723  0.24969  Biso   1.000  C
  C87      1.0000 0.68420  0.22110  0.23469  Biso   1.000  C
  N59      1.0000 0.82460  0.26372  0.11899  Biso   1.000  N
  H85      1.0000 0.68702  0.28499  0.12501  Biso   1.000  H
  C88      1.0000 0.88092  0.30651  0.08530  Biso   1.000  C
  C89      1.0000 0.21591  0.38611  0.16739  Biso   1.000  C
  C90      1.0000 0.16548  0.33880  0.34860  Biso   1.000  C
  N60      1.0000 0.23442  0.36270  0.21908  Biso   1.000  N
  H86      1.0000 0.24799  0.42598  0.25501  Biso   1.000  H
  N61      1.0000 0.75818  0.17142  0.25042  Biso   1.000  N
  H87      1.0000 0.64536  0.20629  0.21799  Biso   1.000  H
  H88      1.0000 0.64861  0.22930  0.26700  Biso   1.000  H
  C91      1.0000 0.83866  0.19692  0.12131  Biso   1.000  C
  O29      1.0000 0.95364  0.29419  0.06039  Biso   1.000  O
  O30      1.0000 0.24478  0.36399  0.13008  Biso   1.000  O
  N62      1.0000 0.17547  0.27311  0.34921  Biso   1.000  N
  H89      1.0000 0.12076  0.34349  0.37949  Biso   1.000  H
  H90      1.0000 0.22227  0.34900  0.35262  Biso   1.000  H
  C92      1.0000 0.31048  0.31650  0.23359  Biso   1.000  C
  C93      1.0000 0.77940  0.14940  0.30199  Biso   1.000  C
  C94      1.0000 0.79338  0.12890  0.21969  Biso   1.000  C
  N63      1.0000 0.86330  0.15390  0.17162  Biso   1.000  N
  H91      1.0000 0.78391  0.18531  0.11611  Biso   1.000  H
  H92      1.0000 0.88581  0.19231  0.09140  Biso   1.000  H
  C95      1.0000 0.11466  0.23072  0.38241  Biso   1.000  C
  C96      1.0000 0.26325  0.24422  0.32970  Biso   1.000  C
  N64      1.0000 0.28106  0.25671  0.27139  Biso   1.000  N
  H93      1.0000 0.34776  0.33280  0.25001  Biso   1.000  H
  H94      1.0000 0.34666  0.30941  0.20092  Biso   1.000  H
  O31      1.0000 0.74763  0.17321  0.33771  Biso   1.000  O
  N65      1.0000 0.83806  0.09681  0.30491  Biso   1.000  N
  C97      1.0000 0.85287  0.07908  0.25712  Biso   1.000  C
  H95      1.0000 0.74601  0.11101  0.21100  Biso   1.000  H
  C98      1.0000 0.94476  0.12322  0.17540  Biso   1.000  C
  N66      1.0000 0.15535  0.17252  0.38172  Biso   1.000  N
  O32      1.0000 0.04318  0.24530  0.40639  Biso   1.000  O
  C99      1.0000 0.24617  0.17472  0.35031  Biso   1.000  C
  H96      1.0000 0.31298  0.25301  0.34401  Biso   1.000  H
  C100     1.0000 0.28528  0.20341  0.25720  Biso   1.000  C
  C101     1.0000 0.86996  0.05901  0.35441  Biso   1.000  C
  N67      1.0000 0.94262  0.08040  0.22689  Biso   1.000  N
  H97      1.0000 0.83299  0.03702  0.26602  Biso   1.000  H
  O33      1.0000 0.01070  0.13061  0.14000  Biso   1.000  O
  C102     1.0000 0.11257  0.11781  0.41070  Biso   1.000  C
  N68      1.0000 0.25705  0.15689  0.30191  Biso   1.000  N
  H98      1.0000 0.28997  0.14900  0.37302  Biso   1.000  H
  O34      1.0000 0.31276  0.19931  0.21148  Biso   1.000  O
  N69      1.0000 0.96168  0.06682  0.35579  Biso   1.000  N
  H99      1.0000 0.86624  0.01510  0.35929  Biso   1.000  H
  H100     1.0000 0.83028  0.06943  0.38469  Biso   1.000  H
  C103     1.0000 0.01745  0.03540  0.24180  Biso   1.000  C
  N70      1.0000 0.07305  0.09508  0.37912  Biso   1.000  N
  H101     1.0000 0.15635  0.08522  0.42772  Biso   1.000  H
  H102     1.0000 0.06637  0.12639  0.43951  Biso   1.000  H
  C104     1.0000 0.26478  0.09220  0.30162  Biso   1.000  C
  C105     1.0000 0.98108  0.10220  0.38339  Biso   1.000  C
  C106     1.0000 0.03993  0.03042  0.33629  Biso   1.000  C
  H103     1.0000 0.99606  0.99418  0.25919  Biso   1.000  H
  N71      1.0000 0.06486  0.04740  0.27732  Biso   1.000  N
  H104     1.0000 0.05940  0.03398  0.20901  Biso   1.000  H
  C107     1.0000 0.11514  0.04769  0.35482  Biso   1.000  C
  N72      1.0000 0.17858  0.07149  0.30512  Biso   1.000  N
  H105     1.0000 0.30373  0.08870  0.26842  Biso   1.000  H
  H106     1.0000 0.29256  0.06481  0.33202  Biso   1.000  H
  O35      1.0000 0.92533  0.13119  0.40842  Biso   1.000  O
  H107     1.0000 0.03400  0.98499  0.35201  Biso   1.000  H
  C108     1.0000 0.14775  0.07038  0.26102  Biso   1.000  C
  H108     1.0000 0.14294  0.01102  0.38099  Biso   1.000  H
  O36      1.0000 0.18780  0.08540  0.21299  Biso   1.000  O
  O37      1.0000 0.19632  0.55341  0.74410  Biso   1.000  O
  C109     1.0000 0.15699  0.53631  0.78949  Biso   1.000  C
  N73      1.0000 0.07003  0.51620  0.80502  Biso   1.000  N
  N74      1.0000 0.18513  0.53401  0.83549  Biso   1.000  N
  C110     1.0000 0.02569  0.50482  0.76840  Biso   1.000  C
  C111     1.0000 0.04718  0.49461  0.86390  Biso   1.000  C
  C112     1.0000 0.11802  0.51001  0.88499  Biso   1.000  C
  C113     1.0000 0.27018  0.55582  0.83399  Biso   1.000  C
  N75      1.0000 0.94911  0.54961  0.75531  Biso   1.000  N
  H109     1.0000 0.06813  0.50591  0.73512  Biso   1.000  H
  H110     1.0000 0.00599  0.46292  0.78400  Biso   1.000  H
  H111     1.0000 0.04391  0.44900  0.87703  Biso   1.000  H
  N76      1.0000 0.96447  0.52694  0.88662  Biso   1.000  N
  N77      1.0000 0.07730  0.55503  0.91311  Biso   1.000  N
  H112     1.0000 0.14390  0.47201  0.91003  Biso   1.000  H
  N78      1.0000 0.26231  0.62033  0.83440  Biso   1.000  N
  H113     1.0000 0.31140  0.55220  0.80160  Biso   1.000  H
  H114     1.0000 0.29618  0.52854  0.86520  Biso   1.000  H
  C114     1.0000 0.94851  0.59010  0.70273  Biso   1.000  C
  C115     1.0000 0.85971  0.54294  0.78811  Biso   1.000  C
  C116     1.0000 0.87258  0.52073  0.88499  Biso   1.000  C
  C117     1.0000 0.98552  0.55853  0.91543  Biso   1.000  C
  C118     1.0000 0.12100  0.57790  0.94392  Biso   1.000  C
  C119     1.0000 0.29161  0.66843  0.78880  Biso   1.000  C
  C120     1.0000 0.24577  0.63811  0.88121  Biso   1.000  C
  O38      1.0000 0.01313  0.59873  0.66640  Biso   1.000  O
  N79      1.0000 0.86060  0.61791  0.69972  Biso   1.000  N
  C121     1.0000 0.80074  0.59280  0.75032  Biso   1.000  C
  N80      1.0000 0.84423  0.55991  0.83541  Biso   1.000  N
  H115     1.0000 0.84195  0.50102  0.79599  Biso   1.000  H
  H116     1.0000 0.83308  0.53152  0.91523  Biso   1.000  H
  H117     1.0000 0.86710  0.47721  0.88942  Biso   1.000  H
  O39      1.0000 0.93107  0.58774  0.94502  Biso   1.000  O
  N81      1.0000 0.15982  0.63669  0.91393  Biso   1.000  N
  H118     1.0000 0.07779  0.58372  0.97493  Biso   1.000  H
  H119     1.0000 0.16839  0.54623  0.95770  Biso   1.000  H
  O40      1.0000 0.31925  0.66360  0.74312  Biso   1.000  O
  N82      1.0000 0.28302  0.72100  0.80290  Biso   1.000  N
  C122     1.0000 0.26358  0.70754  0.86081  Biso   1.000  C
  H120     1.0000 0.28992  0.61402  0.90401  Biso   1.000  H
  C123     1.0000 0.83442  0.66123  0.65140  Biso   1.000  C
  N83      1.0000 0.76549  0.63733  0.78092  Biso   1.000  N
  H121     1.0000 0.75193  0.57400  0.74499  Biso   1.000  H
  C124     1.0000 0.78399  0.61392  0.83261  Biso   1.000  C
  C125     1.0000 0.11899  0.69352  0.91470  Biso   1.000  C
  C126     1.0000 0.31570  0.77893  0.76531  Biso   1.000  C
  N84      1.0000 0.17531  0.73631  0.88101  Biso   1.000  N
  H122     1.0000 0.31288  0.71504  0.87500  Biso   1.000  H
  N85      1.0000 0.82443  0.72692  0.65079  Biso   1.000  N
  H123     1.0000 0.87915  0.65649  0.62051  Biso   1.000  H
  H124     1.0000 0.77762  0.65102  0.64742  Biso   1.000  H
  C127     1.0000 0.68942  0.68353  0.76641  Biso   1.000  C
  O41      1.0000 0.75513  0.63600  0.86992  Biso   1.000  O
  O42      1.0000 0.04626  0.70584  0.93961  Biso   1.000  O
  N86      1.0000 0.24171  0.82859  0.74962  Biso   1.000  N
  H125     1.0000 0.35454  0.79374  0.78201  Biso   1.000  H
  H126     1.0000 0.35136  0.77072  0.73300  Biso   1.000  H
  C128     1.0000 0.16124  0.80311  0.87869  Biso   1.000  C
  C129     1.0000 0.88524  0.76931  0.61759  Biso   1.000  C
  C130     1.0000 0.73665  0.75581  0.67030  Biso   1.000  C
  N87      1.0000 0.71884  0.74332  0.72861  Biso   1.000  N
  H127     1.0000 0.65215  0.66723  0.74999  Biso   1.000  H
  H128     1.0000 0.65323  0.69060  0.79912  Biso   1.000  H
  C131     1.0000 0.22051  0.85063  0.69801  Biso   1.000  C
  C132     1.0000 0.20652  0.87112  0.78031  Biso   1.000  C
  N88      1.0000 0.13659  0.84611  0.82842  Biso   1.000  N
  H129     1.0000 0.21599  0.81472  0.88390  Biso   1.000  H
  H130     1.0000 0.11410  0.80772  0.90860  Biso   1.000  H
  O43      1.0000 0.95674  0.75469  0.59361  Biso   1.000  O
  N89      1.0000 0.84454  0.82750  0.61832  Biso   1.000  N
  H131     1.0000 0.68693  0.74702  0.65599  Biso   1.000  H
  C133     1.0000 0.75373  0.82531  0.64969  Biso   1.000  C
  C134     1.0000 0.71462  0.79662  0.74280  Biso   1.000  C
  N90      1.0000 0.16183  0.90320  0.69513  Biso   1.000  N
  O44      1.0000 0.25227  0.82682  0.66229  Biso   1.000  O
  C135     1.0000 0.14703  0.92089  0.74292  Biso   1.000  C
  H132     1.0000 0.25390  0.88902  0.78900  Biso   1.000  H
  C136     1.0000 0.05514  0.87681  0.82460  Biso   1.000  C
  C137     1.0000 0.88733  0.88222  0.58930  Biso   1.000  C
  N91      1.0000 0.74285  0.84314  0.69809  Biso   1.000  N
  H133     1.0000 0.70992  0.85102  0.62702  Biso   1.000  H
  O45      1.0000 0.68715  0.80071  0.78852  Biso   1.000  O
  C138     1.0000 0.12994  0.94102  0.64559  Biso   1.000  C
  N92      1.0000 0.05735  0.91963  0.77311  Biso   1.000  N
  H134     1.0000 0.16696  0.96300  0.73402  Biso   1.000  H
  O46      1.0000 0.98920  0.86942  0.86000  Biso   1.000  O
  N93      1.0000 0.92685  0.90489  0.62092  Biso   1.000  N
  H135     1.0000 0.84354  0.91479  0.57232  Biso   1.000  H
  H136     1.0000 0.93355  0.87360  0.56049  Biso   1.000  H
  C139     1.0000 0.73511  0.90782  0.69842  Biso   1.000  C
  N94      1.0000 0.03822  0.93321  0.64421  Biso   1.000  N
  H137     1.0000 0.13366  0.98493  0.64071  Biso   1.000  H
  H138     1.0000 0.16963  0.93060  0.61531  Biso   1.000  H
  C140     1.0000 0.98245  0.96463  0.75820  Biso   1.000  C
  C141     1.0000 0.01882  0.89782  0.61661  Biso   1.000  C
  C142     1.0000 0.88475  0.95232  0.64522  Biso   1.000  C
  N95      1.0000 0.82131  0.92852  0.69492  Biso   1.000  N
  H139     1.0000 0.69616  0.91132  0.73162  Biso   1.000  H
  H140     1.0000 0.70733  0.93520  0.66802  Biso   1.000  H
  C143     1.0000 0.95997  0.96961  0.66371  Biso   1.000  C
  N96      1.0000 0.93503  0.95262  0.72272  Biso   1.000  N
  H141     1.0000 0.94057  0.96600  0.79099  Biso   1.000  H
  H142     1.0000 0.00391  0.00584  0.74081  Biso   1.000  H
  O47      1.0000 0.07456  0.86882  0.59162  Biso   1.000  O
  H143     1.0000 0.85696  0.98901  0.61901  Biso   1.000  H
  C144     1.0000 0.85216  0.92959  0.73902  Biso   1.000  C
  H144     1.0000 0.96589  0.01503  0.64803  Biso   1.000  H
  O48      1.0000 0.81210  0.91463  0.78701  Biso   1.000  O
  Ne1      1.0000 0.99767  0.26817  0.23460  Biso   1.000  Ne
  He1      1.0000 0.84568  0.29706  0.33875  Biso   1.000  He
  He2      1.0000 0.14130  0.23824  0.13964  Biso   1.000  He
  Ar1      1.0000 0.99737  0.26800  0.23469  Biso   1.000  Ar
  Ne2      1.0000 0.49184  0.75807  0.25657  Biso   1.000  Ne
  He3      1.0000 0.50582  0.63693  0.36206  Biso   1.000  He
  He4      1.0000 0.47656  0.88093  0.14936  Biso   1.000  He
  Ar2      1.0000 0.49179  0.75796  0.25657  Biso   1.000  Ar
  Ne3      1.0000 0.50806  0.24195  0.74344  Biso   1.000  Ne
  He5      1.0000 0.52329  0.12114  0.84884  Biso   1.000  He
  He6      1.0000 0.50553  0.36280  0.63356  Biso   1.000  He
  Ar3      1.0000 0.50811  0.24205  0.74344  Biso   1.000  Ar
  Ne4      1.0000 0.00224  0.73185  0.76541  Biso   1.000  Ne
  He7      1.0000 0.85994  0.76157  0.85932  Biso   1.000  He
  He8      1.0000 0.14583  0.70425  0.66759  Biso   1.000  He
  Ar4      1.0000 0.00254  0.73202  0.76532  Biso   1.000  Ar
