data_image0
_cell_length_a       11.629
_cell_length_b       14.005
_cell_length_c       14.656
_cell_angle_alpha    108.91
_cell_angle_beta     112.99
_cell_angle_gamma    100.59

_symmetry_space_group_name_H-M    "P 1"
_symmetry_int_tables_number       1

loop_
  _symmetry_equiv_pos_as_xyz
  'x, y, z'

loop_
  _atom_site_label
  _atom_site_occupancy
  _atom_site_fract_x
  _atom_site_fract_y
  _atom_site_fract_z
  _atom_site_thermal_displace_type
  _atom_site_B_iso_or_equiv
  _atom_site_type_symbol
  C1       1.0000 0.50307  0.24424  0.29673  Biso   1.000  C
  C2       1.0000 0.39690  0.16390  0.27859  Biso   1.000  C
  C3       1.0000 0.61659  0.22198  0.30258  Biso   1.000  C
  H1       1.0000 0.49847  0.31334  0.30489  Biso   1.000  H
  N1       1.0000 0.40028  0.06499  0.26442  Biso   1.000  N
  H2       1.0000 0.31956  0.17878  0.27620  Biso   1.000  H
  C4       1.0000 0.62055  0.12223  0.29153  Biso   1.000  C
  C5       1.0000 0.73163  0.30944  0.32121  Biso   1.000  C
  C6       1.0000 0.50845  0.04363  0.27052  Biso   1.000  C
  B1       1.0000 0.26640  0.97492  0.24851  Biso   1.000  B
  H3       1.0000 0.69862  0.10650  0.29788  Biso   1.000  H
  N2       1.0000 0.70304  0.39114  0.30151  Biso   1.000  N
  N3       1.0000 0.85011  0.29742  0.35401  Biso   1.000  N
  H4       1.0000 0.50986  0.97347  0.26054  Biso   1.000  H
  C7       1.0000 0.27212  0.01311  0.36332  Biso   1.000  C
  O1       1.0000 0.15019  0.97085  0.15768  Biso   1.000  O
  O2       1.0000 0.28380  0.86954  0.20721  Biso   1.000  O
  C8       1.0000 0.81009  0.46779  0.32170  Biso   1.000  C
  C9       1.0000 0.94857  0.37892  0.36942  Biso   1.000  C
  C10      1.0000 0.38766  0.06062  0.46314  Biso   1.000  C
  C11      1.0000 0.15275  0.99724  0.36868  Biso   1.000  C
  C12      1.0000 0.11891  0.88254  0.06676  Biso   1.000  C
  C13      1.0000 0.19759  0.82202  0.09536  Biso   1.000  C
  N4       1.0000 0.93262  0.46589  0.35591  Biso   1.000  N
  C14      1.0000 0.78703  0.56501  0.30958  Biso   1.000  C
  C15      1.0000 0.08331  0.37292  0.40371  Biso   1.000  C
  H5       1.0000 0.47073  0.07090  0.46322  Biso   1.000  H
  C16      1.0000 0.38891  0.09430  0.56320  Biso   1.000  C
  C17      1.0000 0.15225  0.03322  0.46784  Biso   1.000  C
  H6       1.0000 0.07000  0.96070  0.30208  Biso   1.000  H
  C18      1.0000 0.02240  0.85035  0.96134  Biso   1.000  C
  C19      1.0000 0.18233  0.72732  0.01698  Biso   1.000  C
  C20      1.0000 0.89242  0.65292  0.33654  Biso   1.000  C
  C21      1.0000 0.66107  0.57150  0.27439  Biso   1.000  C
  C22      1.0000 0.18819  0.45747  0.42539  Biso   1.000  C
  C23      1.0000 0.11068  0.28389  0.41410  Biso   1.000  C
  H7       1.0000 0.47188  0.12580  0.62939  Biso   1.000  H
  C24      1.0000 0.27034  0.08293  0.56922  Biso   1.000  C
  H8       1.0000 0.06898  0.02389  0.46743  Biso   1.000  H
  H9       1.0000 0.96840  0.89164  0.94313  Biso   1.000  H
  C25      1.0000 0.00705  0.75583  0.88321  Biso   1.000  C
  C26      1.0000 0.08348  0.69415  0.90793  Biso   1.000  C
  H10      1.0000 0.23605  0.68595  0.03552  Biso   1.000  H
  C27      1.0000 0.87042  0.74499  0.33291  Biso   1.000  C
  H11      1.0000 0.97925  0.64940  0.35731  Biso   1.000  H
  H12      1.0000 0.58622  0.51169  0.25246  Biso   1.000  H
  C28      1.0000 0.64590  0.66593  0.27150  Biso   1.000  C
  H13      1.0000 0.17315  0.51963  0.41789  Biso   1.000  H
  C29      1.0000 0.31367  0.45233  0.45778  Biso   1.000  C
  C30      1.0000 0.23843  0.28391  0.44600  Biso   1.000  C
  H14      1.0000 0.04183  0.22341  0.39943  Biso   1.000  H
  B2       1.0000 0.27815  0.13370  0.68577  Biso   1.000  B
  H15      1.0000 0.94121  0.73173  0.80886  Biso   1.000  H
  H16      1.0000 0.06941  0.62887  0.85106  Biso   1.000  H
  N5       1.0000 0.74997  0.75190  0.30208  Biso   1.000  N
  H17      1.0000 0.94340  0.80541  0.35302  Biso   1.000  H
  H18      1.0000 0.55933  0.67040  0.24719  Biso   1.000  H
  N6       1.0000 0.34123  0.36581  0.46759  Biso   1.000  N
  H19      1.0000 0.38435  0.51235  0.47394  Biso   1.000  H
  H20      1.0000 0.25531  0.22226  0.45333  Biso   1.000  H
  O3       1.0000 0.40501  0.16144  0.78130  Biso   1.000  O
  O4       1.0000 0.17341  0.06842  0.69887  Biso   1.000  O
  N7       1.0000 0.25001  0.24807  0.69788  Biso   1.000  N
  B3       1.0000 0.72183  0.86627  0.31420  Biso   1.000  B
  C31      1.0000 0.37632  0.12862  0.85045  Biso   1.000  C
  C32      1.0000 0.23998  0.07323  0.80190  Biso   1.000  C
  C33      1.0000 0.12961  0.25501  0.66714  Biso   1.000  C
  C34      1.0000 0.35415  0.33415  0.72855  Biso   1.000  C
  O5       1.0000 0.59499  0.83861  0.21867  Biso   1.000  O
  O6       1.0000 0.82659  0.93162  0.30109  Biso   1.000  O
  C35      1.0000 0.72971  0.91715  0.43083  Biso   1.000  C
  C36      1.0000 0.46410  0.13930  0.95043  Biso   1.000  C
  C37      1.0000 0.18674  0.02708  0.85268  Biso   1.000  C
  H21      1.0000 0.05663  0.19460  0.64703  Biso   1.000  H
  C38      1.0000 0.10761  0.34709  0.66351  Biso   1.000  C
  C39      1.0000 0.33891  0.42847  0.72558  Biso   1.000  C
  H22      1.0000 0.44065  0.32958  0.75278  Biso   1.000  H
  C40      1.0000 0.62371  0.87139  0.14960  Biso   1.000  C
  C41      1.0000 0.76002  0.92682  0.19806  Biso   1.000  C
  C42      1.0000 0.61107  0.90567  0.43676  Biso   1.000  C
  C43      1.0000 0.84778  0.96679  0.53221  Biso   1.000  C
  H23      1.0000 0.55710  0.17770  0.98340  Biso   1.000  H
  C44      1.0000 0.41232  0.09158  0.00244  Biso   1.000  C
  C45      1.0000 0.27686  0.03842  0.95538  Biso   1.000  C
  H24      1.0000 0.09356  0.98966  0.81979  Biso   1.000  H
  H25      1.0000 0.02078  0.35061  0.64274  Biso   1.000  H
  C46      1.0000 0.21297  0.43503  0.69038  Biso   1.000  C
  H26      1.0000 0.41376  0.48829  0.74750  Biso   1.000  H
  C47      1.0000 0.53593  0.86071  0.04962  Biso   1.000  C
  C48      1.0000 0.81316  0.97290  0.14729  Biso   1.000  C
  C49      1.0000 0.61237  0.93938  0.53691  Biso   1.000  C
  H27      1.0000 0.52810  0.87417  0.37058  Biso   1.000  H
  H28      1.0000 0.93105  0.97612  0.53262  Biso   1.000  H
  C50      1.0000 0.84716  0.00280  0.63129  Biso   1.000  C
  H29      1.0000 0.47115  0.09595  0.07159  Biso   1.000  H
  H30      1.0000 0.24409  0.00854  0.99395  Biso   1.000  H
  C51      1.0000 0.18990  0.53219  0.67827  Biso   1.000  C
  H31      1.0000 0.44288  0.82227  0.01657  Biso   1.000  H
  C52      1.0000 0.58766  0.90840  0.99753  Biso   1.000  C
  C53      1.0000 0.72313  0.96163  0.04459  Biso   1.000  C
  H32      1.0000 0.90644  0.01039  0.18018  Biso   1.000  H
  C54      1.0000 0.72791  0.98690  0.63673  Biso   1.000  C
  H33      1.0000 0.52930  0.92911  0.53683  Biso   1.000  H
  H34      1.0000 0.92998  0.03927  0.69788  Biso   1.000  H
  N8       1.0000 0.29701  0.60894  0.69854  Biso   1.000  N
  N9       1.0000 0.06741  0.53412  0.64414  Biso   1.000  N
  H35      1.0000 0.52890  0.90413  0.92846  Biso   1.000  H
  H36      1.0000 0.75594  0.99147  0.00610  Biso   1.000  H
  B4       1.0000 0.73363  0.02509  0.75154  Biso   1.000  B
  C55      1.0000 0.26842  0.69064  0.67884  Biso   1.000  C
  C56      1.0000 0.05147  0.62116  0.63063  Biso   1.000  C
  N10      1.0000 0.59966  0.93502  0.73563  Biso   1.000  N
  O7       1.0000 0.84981  0.02920  0.84229  Biso   1.000  O
  O8       1.0000 0.71623  0.13047  0.79284  Biso   1.000  O
  N11      1.0000 0.14993  0.70266  0.64604  Biso   1.000  N
  C57      1.0000 0.38339  0.77799  0.69739  Biso   1.000  C
  C58      1.0000 0.91674  0.62716  0.59634  Biso   1.000  C
  C59      1.0000 0.49159  0.95645  0.72953  Biso   1.000  C
  C60      1.0000 0.60308  0.83607  0.72137  Biso   1.000  C
  C61      1.0000 0.88108  0.11750  0.93320  Biso   1.000  C
  C62      1.0000 0.80239  0.17795  0.90460  Biso   1.000  C
  C63      1.0000 0.37949  0.87785  0.70852  Biso   1.000  C
  C64      1.0000 0.49698  0.75584  0.70332  Biso   1.000  C
  C65      1.0000 0.81179  0.54250  0.57458  Biso   1.000  C
  C66      1.0000 0.88930  0.71609  0.58587  Biso   1.000  C
  H37      1.0000 0.49019  0.02661  0.73951  Biso   1.000  H
  H38      1.0000 0.68038  0.82122  0.72385  Biso   1.000  H
  C67      1.0000 0.97762  0.14966  0.03871  Biso   1.000  C
  C68      1.0000 0.81765  0.27265  0.98299  Biso   1.000  C
  H39      1.0000 0.30138  0.89354  0.70209  Biso   1.000  H
  H40      1.0000 0.50144  0.68671  0.69508  Biso   1.000  H
  H41      1.0000 0.82676  0.48041  0.58208  Biso   1.000  H
  C69      1.0000 0.68633  0.54772  0.54218  Biso   1.000  C
  C70      1.0000 0.76155  0.71607  0.55397  Biso   1.000  C
  H42      1.0000 0.95820  0.77660  0.60062  Biso   1.000  H
  C71      1.0000 0.99293  0.24414  0.11676  Biso   1.000  C
  H43      1.0000 0.03158  0.10833  0.05684  Biso   1.000  H
  H44      1.0000 0.76399  0.31413  0.96453  Biso   1.000  H
  C72      1.0000 0.91652  0.30589  0.09204  Biso   1.000  C
  N12      1.0000 0.65876  0.63417  0.53238  Biso   1.000  N
  H45      1.0000 0.61569  0.48773  0.52611  Biso   1.000  H
  H46      1.0000 0.74473  0.77782  0.54672  Biso   1.000  H
  H47      1.0000 0.05882  0.26828  0.19119  Biso   1.000  H
  H48      1.0000 0.93063  0.37121  0.14899  Biso   1.000  H
