data_image0
_cell_length_a       12.436
_cell_length_b       12.801
_cell_length_c       24.321
_cell_angle_alpha    92.04
_cell_angle_beta     91.98
_cell_angle_gamma    104.67

_symmetry_space_group_name_H-M    "P 1"
_symmetry_int_tables_number       1

loop_
  _symmetry_equiv_pos_as_xyz
  'x, y, z'

loop_
  _atom_site_label
  _atom_site_occupancy
  _atom_site_fract_x
  _atom_site_fract_y
  _atom_site_fract_z
  _atom_site_thermal_displace_type
  _atom_site_B_iso_or_equiv
  _atom_site_type_symbol
  C1       1.0000 0.64032  0.49048  0.41881  Biso   1.000  C
  N1       1.0000 0.56873  0.47633  0.37552  Biso   1.000  N
  N2       1.0000 0.72473  0.44508  0.42585  Biso   1.000  N
  H1       1.0000 0.62860  0.54464  0.45180  Biso   1.000  H
  C2       1.0000 0.58305  0.40758  0.33491  Biso   1.000  C
  H2       1.0000 0.50311  0.51762  0.37322  Biso   1.000  H
  C3       1.0000 0.73569  0.37552  0.38512  Biso   1.000  C
  C4       1.0000 0.66675  0.35272  0.33817  Biso   1.000  C
  H3       1.0000 0.52796  0.39446  0.29859  Biso   1.000  H
  H4       1.0000 0.80189  0.33536  0.38928  Biso   1.000  H
  C5       1.0000 0.68121  0.27368  0.29435  Biso   1.000  C
  C6       1.0000 0.75915  0.30493  0.25489  Biso   1.000  C
  C7       1.0000 0.61815  0.16747  0.29319  Biso   1.000  C
  O1       1.0000 0.81974  0.41248  0.25477  Biso   1.000  O
  C8       1.0000 0.77628  0.23185  0.21449  Biso   1.000  C
  O2       1.0000 0.54062  0.13731  0.33314  Biso   1.000  O
  C9       1.0000 0.62942  0.09125  0.25300  Biso   1.000  C
  C10      1.0000 0.91912  0.43983  0.28949  Biso   1.000  C
  C11      1.0000 0.86742  0.27026  0.17384  Biso   1.000  C
  C12      1.0000 0.71034  0.12579  0.21416  Biso   1.000  C
  C13      1.0000 0.58213  0.09535  0.38104  Biso   1.000  C
  C14      1.0000 0.55414  0.97583  0.25180  Biso   1.000  C
  H5       1.0000 0.94023  0.36617  0.30188  Biso   1.000  H
  H6       1.0000 0.90555  0.48428  0.32659  Biso   1.000  H
  C15      1.0000 0.01372  0.50800  0.25917  Biso   1.000  C
  C16      1.0000 0.97738  0.26082  0.19900  Biso   1.000  C
  H7       1.0000 0.87466  0.35586  0.16849  Biso   1.000  H
  C17      1.0000 0.84022  0.21254  0.11659  Biso   1.000  C
  H8       1.0000 0.72201  0.06823  0.18290  Biso   1.000  H
  H9       1.0000 0.59994  0.15684  0.41461  Biso   1.000  H
  H10      1.0000 0.65902  0.07339  0.37210  Biso   1.000  H
  C18      1.0000 0.49688  0.99817  0.39760  Biso   1.000  C
  H11      1.0000 0.47772  0.98089  0.27120  Biso   1.000  H
  C19      1.0000 0.60524  0.90224  0.28644  Biso   1.000  C
  C20      1.0000 0.52014  0.92828  0.19274  Biso   1.000  C
  H12      1.0000 0.99094  0.58085  0.24670  Biso   1.000  H
  O3       1.0000 0.04333  0.45425  0.21099  Biso   1.000  O
  H13      1.0000 0.08659  0.53315  0.28730  Biso   1.000  H
  C21      1.0000 0.00205  0.16095  0.20193  Biso   1.000  C
  C22      1.0000 0.06096  0.35236  0.21750  Biso   1.000  C
  H14      1.0000 0.76551  0.23040  0.09880  Biso   1.000  H
  H15      1.0000 0.82219  0.12550  0.12121  Biso   1.000  H
  C23      1.0000 0.93507  0.24591  0.07652  Biso   1.000  C
  H16      1.0000 0.41852  0.02000  0.40328  Biso   1.000  H
  O4       1.0000 0.47828  0.90907  0.35785  Biso   1.000  O
  H17      1.0000 0.52365  0.97281  0.43701  Biso   1.000  H
  C24      1.0000 0.68575  0.85509  0.26506  Biso   1.000  C
  C25      1.0000 0.57104  0.87820  0.33961  Biso   1.000  C
  H18      1.0000 0.59490  0.92609  0.17108  Biso   1.000  H
  H19      1.0000 0.46995  0.84537  0.19468  Biso   1.000  H
  C26      1.0000 0.45501  0.99249  0.16050  Biso   1.000  C
  H20      1.0000 0.93794  0.08923  0.18920  Biso   1.000  H
  C27      1.0000 0.10508  0.14882  0.22054  Biso   1.000  C
  C28      1.0000 0.16474  0.34355  0.23801  Biso   1.000  C
  H21      1.0000 0.90878  0.20151  0.03719  Biso   1.000  H
  C29      1.0000 0.97153  0.36447  0.06594  Biso   1.000  C
  H22      1.0000 0.00698  0.22081  0.09279  Biso   1.000  H
  H23      1.0000 0.71102  0.87179  0.22359  Biso   1.000  H
  C30      1.0000 0.73476  0.78725  0.29538  Biso   1.000  C
  C31      1.0000 0.62256  0.81564  0.37223  Biso   1.000  C
  H24      1.0000 0.48990  0.07841  0.17038  Biso   1.000  H
  H25      1.0000 0.36915  0.97148  0.17289  Biso   1.000  H
  C32      1.0000 0.45660  0.97148  0.09847  Biso   1.000  C
  C33      1.0000 0.13435  0.04075  0.21494  Biso   1.000  C
  C34      1.0000 0.18545  0.24153  0.23953  Biso   1.000  C
  C35      1.0000 0.25471  0.44281  0.25349  Biso   1.000  C
  H26      1.0000 0.99409  0.41031  0.10510  Biso   1.000  H
  H27      1.0000 0.90210  0.38938  0.04658  Biso   1.000  H
  C36      1.0000 0.07167  0.39129  0.02834  Biso   1.000  C
  C37      1.0000 0.82029  0.73172  0.27235  Biso   1.000  C
  C38      1.0000 0.70444  0.77225  0.34949  Biso   1.000  C
  C39      1.0000 0.59093  0.78957  0.42968  Biso   1.000  C
  H28      1.0000 0.41160  0.02291  0.07780  Biso   1.000  H
  H29      1.0000 0.54253  0.99491  0.08612  Biso   1.000  H
  C40      1.0000 0.40603  0.85589  0.07924  Biso   1.000  C
  C41      1.0000 0.08174  0.96123  0.25728  Biso   1.000  C
  C42      1.0000 0.10873  0.99181  0.15564  Biso   1.000  C
  H30      1.0000 0.22414  0.05724  0.22231  Biso   1.000  H
  O5       1.0000 0.29073  0.23382  0.25526  Biso   1.000  O
  C43      1.0000 0.27460  0.48696  0.30621  Biso   1.000  C
  C44      1.0000 0.32381  0.49655  0.21445  Biso   1.000  C
  H31      1.0000 0.05834  0.32966  0.99498  Biso   1.000  H
  H32      1.0000 0.07486  0.46844  0.00988  Biso   1.000  H
  C45      1.0000 0.18187  0.39810  0.05733  Biso   1.000  C
  H33      1.0000 0.81614  0.66029  0.29608  Biso   1.000  H
  C46      1.0000 0.93686  0.80509  0.28277  Biso   1.000  C
  C47      1.0000 0.79799  0.69243  0.21177  Biso   1.000  C
  O6       1.0000 0.75361  0.71028  0.38223  Biso   1.000  O
  C48      1.0000 0.64345  0.85437  0.47494  Biso   1.000  C
  C49      1.0000 0.51295  0.69506  0.44101  Biso   1.000  C
  H34      1.0000 0.31990  0.83267  0.09131  Biso   1.000  H
  H35      1.0000 0.45049  0.80448  0.10020  Biso   1.000  H
  C50      1.0000 0.40823  0.83479  0.01709  Biso   1.000  C
  C51      1.0000 0.97775  0.88919  0.24822  Biso   1.000  C
  C52      1.0000 0.14301  0.95253  0.30510  Biso   1.000  C
  H36      1.0000 0.13105  0.91467  0.15280  Biso   1.000  H
  H37      1.0000 0.01974  0.97622  0.14579  Biso   1.000  H
  C53      1.0000 0.17270  0.06700  0.11367  Biso   1.000  C
  C54      1.0000 0.31148  0.22192  0.31317  Biso   1.000  C
  N3       1.0000 0.35516  0.57647  0.32009  Biso   1.000  N
  H38      1.0000 0.22293  0.44768  0.33808  Biso   1.000  H
  N4       1.0000 0.40439  0.58572  0.22631  Biso   1.000  N
  H39      1.0000 0.31163  0.46442  0.17240  Biso   1.000  H
  H40      1.0000 0.17727  0.32371  0.07870  Biso   1.000  H
  H41      1.0000 0.19950  0.46482  0.08809  Biso   1.000  H
  C55      1.0000 0.27762  0.41511  0.01759  Biso   1.000  C
  C56      1.0000 0.00580  0.79116  0.32631  Biso   1.000  C
  H42      1.0000 0.79503  0.76119  0.18710  Biso   1.000  H
  H43      1.0000 0.86729  0.66159  0.19839  Biso   1.000  H
  C57      1.0000 0.69041  0.60463  0.20073  Biso   1.000  C
  C58      1.0000 0.85083  0.77176  0.41395  Biso   1.000  C
  N5       1.0000 0.62255  0.82789  0.52712  Biso   1.000  N
  H44      1.0000 0.70365  0.92922  0.46778  Biso   1.000  H
  N6       1.0000 0.49084  0.66621  0.49286  Biso   1.000  N
  H45      1.0000 0.46862  0.64300  0.40719  Biso   1.000  H
  H46      1.0000 0.35979  0.88271  0.99596  Biso   1.000  H
  H47      1.0000 0.49384  0.86110  0.00441  Biso   1.000  H
  C59      1.0000 0.36172  0.71664  0.00000  Biso   1.000  C
  H48      1.0000 0.92660  0.89893  0.21288  Biso   1.000  H
  C60      1.0000 0.10902  0.86521  0.33891  Biso   1.000  C
  O7       1.0000 0.24390  0.02652  0.31790  Biso   1.000  O
  H49      1.0000 0.14519  0.14143  0.11429  Biso   1.000  H
  H50      1.0000 0.26112  0.08811  0.12570  Biso   1.000  H
  C61      1.0000 0.15643  0.01661  0.05535  Biso   1.000  C
  C62      1.0000 0.23063  0.12973  0.33866  Biso   1.000  C
  H51      1.0000 0.31010  0.29692  0.33541  Biso   1.000  H
  H52      1.0000 0.39504  0.21057  0.31902  Biso   1.000  H
  C63      1.0000 0.41531  0.62042  0.27898  Biso   1.000  C
  H53      1.0000 0.26042  0.34885  0.98657  Biso   1.000  H
  H54      1.0000 0.28513  0.49139  0.99749  Biso   1.000  H
  H55      1.0000 0.35514  0.41750  0.04048  Biso   1.000  H
  O8       1.0000 0.97534  0.69832  0.35621  Biso   1.000  O
  H56      1.0000 0.61976  0.63832  0.20811  Biso   1.000  H
  H57      1.0000 0.68764  0.54008  0.22911  Biso   1.000  H
  C64      1.0000 0.68115  0.55768  0.14126  Biso   1.000  C
  H58      1.0000 0.83021  0.78246  0.45661  Biso   1.000  H
  H59      1.0000 0.88042  0.85133  0.39731  Biso   1.000  H
  C65      1.0000 0.94031  0.71102  0.41115  Biso   1.000  C
  C66      1.0000 0.54773  0.73382  0.53248  Biso   1.000  C
  H60      1.0000 0.36920  0.70524  0.95589  Biso   1.000  H
  H61      1.0000 0.27433  0.69161  0.00988  Biso   1.000  H
  H62      1.0000 0.40810  0.66825  0.02212  Biso   1.000  H
  C67      1.0000 0.17965  0.84667  0.38582  Biso   1.000  C
  H63      1.0000 0.06779  0.98289  0.04588  Biso   1.000  H
  H64      1.0000 0.19694  0.95051  0.05309  Biso   1.000  H
  C68      1.0000 0.20340  0.09778  0.01248  Biso   1.000  C
  H65      1.0000 0.24470  0.13634  0.38331  Biso   1.000  H
  H66      1.0000 0.14578  0.13487  0.32931  Biso   1.000  H
  H67      1.0000 0.48060  0.69266  0.28940  Biso   1.000  H
  H68      1.0000 0.69359  0.62405  0.11338  Biso   1.000  H
  H69      1.0000 0.74777  0.51769  0.13558  Biso   1.000  H
  C69      1.0000 0.57107  0.47767  0.12520  Biso   1.000  C
  H70      1.0000 0.90906  0.63134  0.42750  Biso   1.000  H
  H71      1.0000 0.01201  0.75415  0.43717  Biso   1.000  H
  H72      1.0000 0.53151  0.70986  0.57407  Biso   1.000  H
  C70      1.0000 0.20342  0.91111  0.43429  Biso   1.000  C
  C71      1.0000 0.22025  0.75430  0.38504  Biso   1.000  C
  C72      1.0000 0.19731  0.04655  0.95461  Biso   1.000  C
  H73      1.0000 0.15751  0.15994  0.01219  Biso   1.000  H
  H74      1.0000 0.29003  0.13712  0.02422  Biso   1.000  H
  H75      1.0000 0.50440  0.51788  0.13051  Biso   1.000  H
  H76      1.0000 0.57081  0.45429  0.08171  Biso   1.000  H
  C73      1.0000 0.54671  0.37668  0.15782  Biso   1.000  C
  N7       1.0000 0.25806  0.88516  0.47791  Biso   1.000  N
  H77      1.0000 0.17672  0.98513  0.43668  Biso   1.000  H
  N8       1.0000 0.27464  0.72692  0.42811  Biso   1.000  N
  H78      1.0000 0.20696  0.70307  0.34789  Biso   1.000  H
  H79      1.0000 0.25111  0.99124  0.95379  Biso   1.000  H
  H80      1.0000 0.11241  0.99916  0.94489  Biso   1.000  H
  C74      1.0000 0.23165  0.12827  0.91071  Biso   1.000  C
  H81      1.0000 0.53502  0.39853  0.20049  Biso   1.000  H
  H82      1.0000 0.61820  0.34198  0.15720  Biso   1.000  H
  C75      1.0000 0.44240  0.29052  0.13542  Biso   1.000  C
  C76      1.0000 0.28906  0.79262  0.47255  Biso   1.000  C
  H83      1.0000 0.22821  0.08592  0.87080  Biso   1.000  H
  H84      1.0000 0.31609  0.17670  0.92039  Biso   1.000  H
  H85      1.0000 0.17504  0.18073  0.90948  Biso   1.000  H
  H86      1.0000 0.45719  0.26099  0.09452  Biso   1.000  H
  H87      1.0000 0.37162  0.32623  0.13299  Biso   1.000  H
  H88      1.0000 0.42459  0.22338  0.16289  Biso   1.000  H
  H89      1.0000 0.33007  0.76918  0.50818  Biso   1.000  H
  C77      1.0000 0.35974  0.50970  0.58120  Biso   1.000  C
  N9       1.0000 0.27533  0.55509  0.57411  Biso   1.000  N
  N10      1.0000 0.43131  0.52377  0.62444  Biso   1.000  N
  H90      1.0000 0.37144  0.45545  0.54821  Biso   1.000  H
  C78      1.0000 0.26435  0.62458  0.61489  Biso   1.000  C
  C79      1.0000 0.41701  0.59260  0.66509  Biso   1.000  C
  H91      1.0000 0.49693  0.48247  0.62679  Biso   1.000  H
  C80      1.0000 0.33329  0.64737  0.66184  Biso   1.000  C
  H92      1.0000 0.19817  0.66481  0.61069  Biso   1.000  H
  H93      1.0000 0.47218  0.60571  0.70137  Biso   1.000  H
  C81      1.0000 0.31884  0.72650  0.70562  Biso   1.000  C
  C82      1.0000 0.24092  0.69525  0.74511  Biso   1.000  C
  C83      1.0000 0.38191  0.83271  0.70681  Biso   1.000  C
  O9       1.0000 0.18032  0.58769  0.74519  Biso   1.000  O
  C84      1.0000 0.22378  0.76833  0.78551  Biso   1.000  C
  O10      1.0000 0.45943  0.86279  0.66686  Biso   1.000  O
  C85      1.0000 0.37064  0.90892  0.74697  Biso   1.000  C
  C86      1.0000 0.08092  0.56027  0.71052  Biso   1.000  C
  C87      1.0000 0.13264  0.72992  0.82612  Biso   1.000  C
  C88      1.0000 0.28978  0.87430  0.78580  Biso   1.000  C
  C89      1.0000 0.41794  0.90483  0.61896  Biso   1.000  C
  C90      1.0000 0.44592  0.02434  0.74816  Biso   1.000  C
  H94      1.0000 0.05982  0.63400  0.69808  Biso   1.000  H
  H95      1.0000 0.09451  0.51590  0.67341  Biso   1.000  H
  C91      1.0000 0.98632  0.49210  0.74083  Biso   1.000  C
  C92      1.0000 0.02265  0.73928  0.80096  Biso   1.000  C
  H96      1.0000 0.12540  0.64432  0.83148  Biso   1.000  H
  C93      1.0000 0.15984  0.78764  0.88341  Biso   1.000  C
  H97      1.0000 0.27805  0.93195  0.81710  Biso   1.000  H
  H98      1.0000 0.40010  0.84326  0.58540  Biso   1.000  H
  H99      1.0000 0.34104  0.92679  0.62790  Biso   1.000  H
  C94      1.0000 0.50318  0.00201  0.60241  Biso   1.000  C
  H100     1.0000 0.52232  0.01921  0.72880  Biso   1.000  H
  C95      1.0000 0.39482  0.09794  0.71357  Biso   1.000  C
  C96      1.0000 0.47990  0.07181  0.80726  Biso   1.000  C
  H101     1.0000 0.00912  0.41933  0.75331  Biso   1.000  H
  O11      1.0000 0.95672  0.54593  0.78897  Biso   1.000  O
  H102     1.0000 0.91347  0.46703  0.71270  Biso   1.000  H
  C97      1.0000 0.99801  0.83923  0.79803  Biso   1.000  C
  C98      1.0000 0.93910  0.64782  0.78251  Biso   1.000  C
  H103     1.0000 0.23453  0.76970  0.90120  Biso   1.000  H
  H104     1.0000 0.17785  0.87460  0.87880  Biso   1.000  H
  C99      1.0000 0.06499  0.75427  0.92348  Biso   1.000  C
  H105     1.0000 0.58154  0.98018  0.59668  Biso   1.000  H
  O12      1.0000 0.52178  0.09111  0.64215  Biso   1.000  O
  H106     1.0000 0.47639  0.02729  0.56299  Biso   1.000  H
  C100     1.0000 0.31429  0.14500  0.73490  Biso   1.000  C
  C101     1.0000 0.42899  0.12190  0.66035  Biso   1.000  C
  H107     1.0000 0.40514  0.07400  0.82888  Biso   1.000  H
  H108     1.0000 0.53009  0.15473  0.80528  Biso   1.000  H
  C102     1.0000 0.54503  0.00761  0.83951  Biso   1.000  C
  H109     1.0000 0.06212  0.91095  0.81080  Biso   1.000  H
  C103     1.0000 0.89496  0.85128  0.77942  Biso   1.000  C
  C104     1.0000 0.83532  0.65663  0.76196  Biso   1.000  C
  H110     1.0000 0.09128  0.79866  0.96277  Biso   1.000  H
  C105     1.0000 0.02851  0.63563  0.93407  Biso   1.000  C
  H111     1.0000 0.99308  0.77937  0.90717  Biso   1.000  H
  H112     1.0000 0.28902  0.12831  0.77637  Biso   1.000  H
  C106     1.0000 0.26530  0.21293  0.70459  Biso   1.000  C
  C107     1.0000 0.37750  0.18453  0.62774  Biso   1.000  C
  H113     1.0000 0.51014  0.92169  0.82958  Biso   1.000  H
  H114     1.0000 0.63088  0.02862  0.82707  Biso   1.000  H
  C108     1.0000 0.54344  0.02862  0.90149  Biso   1.000  C
  C109     1.0000 0.86572  0.95943  0.78506  Biso   1.000  C
  C110     1.0000 0.81469  0.75865  0.76047  Biso   1.000  C
  C111     1.0000 0.74533  0.55729  0.74647  Biso   1.000  C
  H115     1.0000 0.00597  0.58987  0.89490  Biso   1.000  H
  H116     1.0000 0.09794  0.61072  0.95338  Biso   1.000  H
  C112     1.0000 0.92837  0.60881  0.97167  Biso   1.000  C
  C113     1.0000 0.17977  0.26846  0.72761  Biso   1.000  C
  C114     1.0000 0.29563  0.22793  0.65051  Biso   1.000  C
  C115     1.0000 0.40913  0.21061  0.57032  Biso   1.000  C
  H117     1.0000 0.58846  0.97727  0.92221  Biso   1.000  H
  H118     1.0000 0.45753  0.00527  0.91389  Biso   1.000  H
  C116     1.0000 0.59403  0.14429  0.92072  Biso   1.000  C
  H119     1.0000 0.77592  0.94294  0.77769  Biso   1.000  H
  C117     1.0000 0.91832  0.03895  0.74268  Biso   1.000  C
  C118     1.0000 0.89133  0.00837  0.84437  Biso   1.000  C
  O13      1.0000 0.70933  0.76636  0.74474  Biso   1.000  O
  C119     1.0000 0.72545  0.51321  0.69376  Biso   1.000  C
  C120     1.0000 0.67625  0.50363  0.78556  Biso   1.000  C
  H120     1.0000 0.92528  0.53174  0.99008  Biso   1.000  H
  C121     1.0000 0.81817  0.60200  0.94268  Biso   1.000  C
  H121     1.0000 0.94172  0.67052  0.00499  Biso   1.000  H
  H122     1.0000 0.18390  0.33981  0.70389  Biso   1.000  H
  C122     1.0000 0.06318  0.19501  0.71723  Biso   1.000  C
  C123     1.0000 0.20206  0.30775  0.78819  Biso   1.000  C
  O14      1.0000 0.24645  0.28990  0.61777  Biso   1.000  O
  C124     1.0000 0.35661  0.14581  0.52506  Biso   1.000  C
  C125     1.0000 0.48711  0.30512  0.55896  Biso   1.000  C
  H123     1.0000 0.68014  0.16743  0.90870  Biso   1.000  H
  H124     1.0000 0.54955  0.19562  0.89980  Biso   1.000  H
  C126     1.0000 0.59183  0.16539  0.98287  Biso   1.000  C
  C127     1.0000 0.85705  0.04765  0.69491  Biso   1.000  C
  C128     1.0000 0.02229  0.11091  0.75178  Biso   1.000  C
  C129     1.0000 0.82734  0.93310  0.88633  Biso   1.000  C
  H125     1.0000 0.86899  0.08542  0.84721  Biso   1.000  H
  H126     1.0000 0.98032  0.02395  0.85417  Biso   1.000  H
  C130     1.0000 0.68856  0.77818  0.68680  Biso   1.000  C
  N11      1.0000 0.64489  0.42370  0.67988  Biso   1.000  N
  H127     1.0000 0.77712  0.55250  0.66188  Biso   1.000  H
  N12      1.0000 0.59565  0.41438  0.77365  Biso   1.000  N
  H128     1.0000 0.68843  0.53576  0.82761  Biso   1.000  H
  H129     1.0000 0.82279  0.67647  0.92130  Biso   1.000  H
  H130     1.0000 0.80056  0.53535  0.91187  Biso   1.000  H
  C131     1.0000 0.72244  0.58507  0.98238  Biso   1.000  C
  C132     1.0000 0.99426  0.20902  0.67370  Biso   1.000  C
  H131     1.0000 0.20501  0.23891  0.81290  Biso   1.000  H
  H132     1.0000 0.13275  0.33851  0.80158  Biso   1.000  H
  C133     1.0000 0.30965  0.39555  0.79923  Biso   1.000  C
  C134     1.0000 0.14923  0.22842  0.58606  Biso   1.000  C
  N13      1.0000 0.37751  0.17229  0.47288  Biso   1.000  N
  H133     1.0000 0.29638  0.07087  0.53219  Biso   1.000  H
  N14      1.0000 0.50920  0.33389  0.50715  Biso   1.000  N
  H134     1.0000 0.53142  0.35710  0.59281  Biso   1.000  H
  H135     1.0000 0.50622  0.13908  0.99560  Biso   1.000  H
  H136     1.0000 0.64025  0.11739  0.00400  Biso   1.000  H
  C135     1.0000 0.63836  0.28329  0.00000  Biso   1.000  C
  O15      1.0000 0.75616  0.97366  0.68210  Biso   1.000  O
  C136     1.0000 0.89101  0.13488  0.66105  Biso   1.000  C
  H137     1.0000 0.07346  0.10125  0.78708  Biso   1.000  H
  H138     1.0000 0.85487  0.85875  0.88568  Biso   1.000  H
  H139     1.0000 0.73894  0.91207  0.87431  Biso   1.000  H
  C137     1.0000 0.84363  0.98356  0.94461  Biso   1.000  C
  C138     1.0000 0.76940  0.87036  0.66130  Biso   1.000  C
  H140     1.0000 0.68994  0.70318  0.66460  Biso   1.000  H
  H141     1.0000 0.60502  0.78961  0.68099  Biso   1.000  H
  C139     1.0000 0.58473  0.37968  0.72102  Biso   1.000  C
  H142     1.0000 0.64490  0.58260  0.95948  Biso   1.000  H
  H143     1.0000 0.73963  0.65133  0.01339  Biso   1.000  H
  H144     1.0000 0.71493  0.50879  0.00252  Biso   1.000  H
  O16      1.0000 0.02472  0.30185  0.64376  Biso   1.000  O
  H145     1.0000 0.38030  0.36186  0.79190  Biso   1.000  H
  H146     1.0000 0.31240  0.46002  0.77089  Biso   1.000  H
  C140     1.0000 0.31889  0.44241  0.85874  Biso   1.000  C
  H147     1.0000 0.16985  0.21772  0.54339  Biso   1.000  H
  H148     1.0000 0.11964  0.14885  0.60270  Biso   1.000  H
  C141     1.0000 0.05973  0.28907  0.58882  Biso   1.000  C
  C142     1.0000 0.45232  0.26628  0.46753  Biso   1.000  C
  H149     1.0000 0.72573  0.30856  0.99008  Biso   1.000  H
  H150     1.0000 0.59194  0.33185  0.97789  Biso   1.000  H
  H151     1.0000 0.63086  0.29494  0.04411  Biso   1.000  H
  C143     1.0000 0.82041  0.15351  0.61415  Biso   1.000  C
  C144     1.0000 0.79664  0.90232  0.98753  Biso   1.000  C
  H152     1.0000 0.93226  0.01728  0.95408  Biso   1.000  H
  H153     1.0000 0.80311  0.04966  0.94688  Biso   1.000  H
  H154     1.0000 0.75534  0.86376  0.61670  Biso   1.000  H
  H155     1.0000 0.85428  0.86531  0.67069  Biso   1.000  H
  H156     1.0000 0.51947  0.30752  0.71060  Biso   1.000  H
  H157     1.0000 0.30644  0.37604  0.88658  Biso   1.000  H
  H158     1.0000 0.25228  0.48249  0.86438  Biso   1.000  H
  C145     1.0000 0.42896  0.52243  0.87476  Biso   1.000  C
  H159     1.0000 0.98805  0.24603  0.56279  Biso   1.000  H
  H160     1.0000 0.09100  0.36884  0.57251  Biso   1.000  H
  H161     1.0000 0.46855  0.29031  0.42589  Biso   1.000  H
  C146     1.0000 0.79662  0.08899  0.56571  Biso   1.000  C
  C147     1.0000 0.77979  0.24580  0.61497  Biso   1.000  C
  H162     1.0000 0.84255  0.84024  0.98777  Biso   1.000  H
  H163     1.0000 0.71003  0.86306  0.97579  Biso   1.000  H
  C148     1.0000 0.80275  0.95363  0.04539  Biso   1.000  C
  H164     1.0000 0.49564  0.48222  0.86949  Biso   1.000  H
  H165     1.0000 0.42926  0.54589  0.91829  Biso   1.000  H
  C149     1.0000 0.45333  0.62342  0.84214  Biso   1.000  C
  N15      1.0000 0.74199  0.11502  0.52206  Biso   1.000  N
  H166     1.0000 0.82331  0.01496  0.56328  Biso   1.000  H
  N16      1.0000 0.72540  0.27317  0.57189  Biso   1.000  N
  H167     1.0000 0.79310  0.29711  0.65208  Biso   1.000  H
  C150     1.0000 0.76841  0.87191  0.08929  Biso   1.000  C
  H168     1.0000 0.74895  0.00894  0.04621  Biso   1.000  H
  H169     1.0000 0.88765  0.00102  0.05511  Biso   1.000  H
  H170     1.0000 0.46503  0.60165  0.79948  Biso   1.000  H
  H171     1.0000 0.38185  0.65812  0.84280  Biso   1.000  H
  C151     1.0000 0.55766  0.70966  0.86459  Biso   1.000  C
  C152     1.0000 0.71098  0.20748  0.52745  Biso   1.000  C
  H172     1.0000 0.77183  0.91418  0.12920  Biso   1.000  H
  H173     1.0000 0.68395  0.82340  0.07961  Biso   1.000  H
  H174     1.0000 0.82502  0.81945  0.09049  Biso   1.000  H
  H175     1.0000 0.54287  0.73919  0.90549  Biso   1.000  H
  H176     1.0000 0.62844  0.67394  0.86698  Biso   1.000  H
  H177     1.0000 0.57545  0.77671  0.83708  Biso   1.000  H
  H178     1.0000 0.66999  0.23100  0.49179  Biso   1.000  H
