data_image0
_cell_length_a       12.588
_cell_length_b       15.862
_cell_length_c       15.976
_cell_angle_alpha    74.96
_cell_angle_beta     69.97
_cell_angle_gamma    82.73

_symmetry_space_group_name_H-M    "P 1"
_symmetry_int_tables_number       1

loop_
  _symmetry_equiv_pos_as_xyz
  'x, y, z'

loop_
  _atom_site_label
  _atom_site_occupancy
  _atom_site_fract_x
  _atom_site_fract_y
  _atom_site_fract_z
  _atom_site_thermal_displace_type
  _atom_site_B_iso_or_equiv
  _atom_site_type_symbol
  O1       1.0000 0.53554  0.39843  0.50930  Biso   1.000  O
  H1       1.0000 0.52318  0.39210  0.46293  Biso   1.000  H
  C1       1.0000 0.61850  0.33820  0.52786  Biso   1.000  C
  C2       1.0000 0.72749  0.34570  0.46554  Biso   1.000  C
  C3       1.0000 0.59423  0.27263  0.60848  Biso   1.000  C
  O2       1.0000 0.75465  0.40911  0.38602  Biso   1.000  O
  C4       1.0000 0.81404  0.28732  0.48321  Biso   1.000  C
  C5       1.0000 0.47415  0.26391  0.67519  Biso   1.000  C
  C6       1.0000 0.68344  0.21653  0.62450  Biso   1.000  C
  H2       1.0000 0.69931  0.44493  0.38615  Biso   1.000  H
  O3       1.0000 0.92237  0.29527  0.42170  Biso   1.000  O
  C7       1.0000 0.79353  0.22218  0.56307  Biso   1.000  C
  C8       1.0000 0.45746  0.31088  0.75101  Biso   1.000  C
  H3       1.0000 0.42281  0.29477  0.63998  Biso   1.000  H
  C9       1.0000 0.44026  0.16830  0.71094  Biso   1.000  C
  H4       1.0000 0.66854  0.17241  0.67971  Biso   1.000  H
  H5       1.0000 0.92115  0.33093  0.37287  Biso   1.000  H
  C10      1.0000 0.88908  0.15883  0.58341  Biso   1.000  C
  C11      1.0000 0.42622  0.39997  0.73902  Biso   1.000  C
  C12      1.0000 0.47489  0.26757  0.83333  Biso   1.000  C
  H6       1.0000 0.45763  0.14158  0.65793  Biso   1.000  H
  H7       1.0000 0.48730  0.13656  0.74868  Biso   1.000  H
  C13      1.0000 0.31662  0.15572  0.76751  Biso   1.000  C
  C14      1.0000 0.93767  0.18969  0.64526  Biso   1.000  C
  H8       1.0000 0.95113  0.16123  0.52368  Biso   1.000  H
  C15      1.0000 0.85187  0.06441  0.61978  Biso   1.000  C
  O4       1.0000 0.40378  0.44981  0.66197  Biso   1.000  O
  C16      1.0000 0.41477  0.44308  0.80731  Biso   1.000  C
  C17      1.0000 0.46143  0.30818  0.90367  Biso   1.000  C
  H9       1.0000 0.49715  0.20731  0.84169  Biso   1.000  H
  H10      1.0000 0.29968  0.18007  0.82203  Biso   1.000  H
  H11      1.0000 0.26918  0.18883  0.73073  Biso   1.000  H
  C18      1.0000 0.28583  0.06096  0.79854  Biso   1.000  C
  C19      1.0000 0.89496  0.16210  0.74012  Biso   1.000  C
  C20      1.0000 0.02690  0.24626  0.60820  Biso   1.000  C
  H12      1.0000 0.79199  0.05991  0.68005  Biso   1.000  H
  H13      1.0000 0.81775  0.05091  0.57766  Biso   1.000  H
  C21      1.0000 0.94517  0.99519  0.63101  Biso   1.000  C
  H14      1.0000 0.44414  0.43092  0.61608  Biso   1.000  H
  O5       1.0000 0.38596  0.53076  0.79792  Biso   1.000  O
  C22      1.0000 0.43244  0.39716  0.88874  Biso   1.000  C
  C23      1.0000 0.47961  0.26009  0.99408  Biso   1.000  C
  H15      1.0000 0.29906  0.03718  0.74484  Biso   1.000  H
  H16      1.0000 0.20584  0.05662  0.83594  Biso   1.000  H
  H17      1.0000 0.33267  0.02774  0.83491  Biso   1.000  H
  C24      1.0000 0.93815  0.18625  0.79929  Biso   1.000  C
  H18      1.0000 0.83297  0.12464  0.76580  Biso   1.000  H
  O6       1.0000 0.07789  0.27755  0.51560  Biso   1.000  O
  C25      1.0000 0.07115  0.27244  0.66567  Biso   1.000  C
  H19      1.0000 0.97514  0.00484  0.67731  Biso   1.000  H
  C26      1.0000 0.90404  0.90382  0.65991  Biso   1.000  C
  H20      1.0000 0.00787  0.00168  0.57211  Biso   1.000  H
  H21      1.0000 0.41730  0.55746  0.74361  Biso   1.000  H
  O7       1.0000 0.42039  0.43987  0.95655  Biso   1.000  O
  C27      1.0000 0.60099  0.26640  0.99086  Biso   1.000  C
  H22      1.0000 0.42989  0.29123  0.04148  Biso   1.000  H
  C28      1.0000 0.44204  0.16557  0.02545  Biso   1.000  C
  C29      1.0000 0.89166  0.15219  0.90265  Biso   1.000  C
  C30      1.0000 0.02662  0.24345  0.75991  Biso   1.000  C
  H23      1.0000 0.02733  0.28704  0.48992  Biso   1.000  H
  O8       1.0000 0.16131  0.32720  0.62786  Biso   1.000  O
  H24      1.0000 0.84526  0.89579  0.72005  Biso   1.000  H
  H25      1.0000 0.96741  0.86181  0.66368  Biso   1.000  H
  H26      1.0000 0.87283  0.89419  0.61498  Biso   1.000  H
  H27      1.0000 0.41743  0.49409  0.93525  Biso   1.000  H
  C31      1.0000 0.68768  0.21182  0.94997  Biso   1.000  C
  C32      1.0000 0.62968  0.32777  0.02716  Biso   1.000  C
  H28      1.0000 0.49489  0.13079  0.98388  Biso   1.000  H
  H29      1.0000 0.36583  0.16465  0.02073  Biso   1.000  H
  C33      1.0000 0.43870  0.12295  0.12333  Biso   1.000  C
  C34      1.0000 0.79918  0.21443  0.94655  Biso   1.000  C
  H30      1.0000 0.95539  0.15142  0.92682  Biso   1.000  H
  C35      1.0000 0.85109  0.05846  0.93278  Biso   1.000  C
  O9       1.0000 0.07791  0.27456  0.80888  Biso   1.000  O
  H31      1.0000 0.16771  0.34913  0.66834  Biso   1.000  H
  H32      1.0000 0.67001  0.17088  0.92306  Biso   1.000  H
  O10      1.0000 0.55068  0.38671  0.06723  Biso   1.000  O
  C36      1.0000 0.73980  0.33204  0.02593  Biso   1.000  C
  H33      1.0000 0.51400  0.12640  0.12867  Biso   1.000  H
  H34      1.0000 0.38330  0.15601  0.16517  Biso   1.000  H
  C37      1.0000 0.40711  0.02844  0.15319  Biso   1.000  C
  C38      1.0000 0.82443  0.27606  0.98484  Biso   1.000  C
  H35      1.0000 0.78927  0.05699  0.90813  Biso   1.000  H
  C39      1.0000 0.94160  0.98908  0.90278  Biso   1.000  C
  H36      1.0000 0.81884  0.04306  0.00038  Biso   1.000  H
  H37      1.0000 0.03293  0.27272  0.86203  Biso   1.000  H
  H38      1.0000 0.50360  0.40252  0.03888  Biso   1.000  H
  O11      1.0000 0.77230  0.39153  0.06038  Biso   1.000  O
  H39      1.0000 0.46412  0.99452  0.11435  Biso   1.000  H
  H40      1.0000 0.33302  0.02430  0.14750  Biso   1.000  H
  H41      1.0000 0.40382  0.00520  0.21716  Biso   1.000  H
  O12      1.0000 0.93448  0.28114  0.97997  Biso   1.000  O
  H42      1.0000 0.97352  0.00329  0.83511  Biso   1.000  H
  C40      1.0000 0.89432  0.89896  0.93552  Biso   1.000  C
  H43      1.0000 0.00364  0.98946  0.92751  Biso   1.000  H
  H44      1.0000 0.71627  0.40737  0.10086  Biso   1.000  H
  H45      1.0000 0.93785  0.31836  0.00792  Biso   1.000  H
  H46      1.0000 0.95424  0.85636  0.91381  Biso   1.000  H
  H47      1.0000 0.83266  0.89851  0.91141  Biso   1.000  H
  H48      1.0000 0.86542  0.88373  0.00264  Biso   1.000  H
  O13      1.0000 0.46462  0.60154  0.49067  Biso   1.000  O
  C41      1.0000 0.38158  0.66176  0.47211  Biso   1.000  C
  H49      1.0000 0.47695  0.60785  0.53711  Biso   1.000  H
  C42      1.0000 0.40582  0.72731  0.39156  Biso   1.000  C
  C43      1.0000 0.27256  0.65425  0.53451  Biso   1.000  C
  C44      1.0000 0.52592  0.73605  0.32479  Biso   1.000  C
  C45      1.0000 0.31669  0.78342  0.37554  Biso   1.000  C
  O14      1.0000 0.24548  0.59083  0.61402  Biso   1.000  O
  C46      1.0000 0.18604  0.71264  0.51677  Biso   1.000  C
  C47      1.0000 0.54259  0.68906  0.24903  Biso   1.000  C
  H50      1.0000 0.57725  0.70511  0.36006  Biso   1.000  H
  C48      1.0000 0.55980  0.83165  0.28910  Biso   1.000  C
  C49      1.0000 0.20655  0.77778  0.43691  Biso   1.000  C
  H51      1.0000 0.33163  0.82749  0.32027  Biso   1.000  H
  H52      1.0000 0.30074  0.55502  0.61389  Biso   1.000  H
  O15      1.0000 0.07768  0.70467  0.57834  Biso   1.000  O
  C50      1.0000 0.57394  0.59999  0.26095  Biso   1.000  C
  C51      1.0000 0.52516  0.73238  0.16671  Biso   1.000  C
  H53      1.0000 0.54253  0.85839  0.34205  Biso   1.000  H
  H54      1.0000 0.51275  0.86339  0.25136  Biso   1.000  H
  C52      1.0000 0.68346  0.84425  0.23246  Biso   1.000  C
  C53      1.0000 0.11107  0.84114  0.41656  Biso   1.000  C
  H55      1.0000 0.07891  0.66896  0.62718  Biso   1.000  H
  C54      1.0000 0.58539  0.55688  0.19267  Biso   1.000  C
  O16      1.0000 0.59628  0.55007  0.33807  Biso   1.000  O
  C55      1.0000 0.53870  0.69176  0.09637  Biso   1.000  C
  H56      1.0000 0.50290  0.79264  0.15835  Biso   1.000  H
  H57      1.0000 0.70048  0.81989  0.17794  Biso   1.000  H
  H58      1.0000 0.73098  0.81113  0.26924  Biso   1.000  H
  C56      1.0000 0.71422  0.93899  0.20150  Biso   1.000  C
  C57      1.0000 0.06246  0.81025  0.35479  Biso   1.000  C
  H59      1.0000 0.04903  0.83873  0.47629  Biso   1.000  H
  C58      1.0000 0.14827  0.93548  0.38026  Biso   1.000  C
  O17      1.0000 0.61418  0.46919  0.20212  Biso   1.000  O
  C59      1.0000 0.56771  0.60280  0.11123  Biso   1.000  C
  H60      1.0000 0.55599  0.56903  0.38396  Biso   1.000  H
  C60      1.0000 0.52052  0.73986  0.00596  Biso   1.000  C
  H61      1.0000 0.70110  0.96278  0.25513  Biso   1.000  H
  H62      1.0000 0.79429  0.94332  0.16411  Biso   1.000  H
  H63      1.0000 0.66740  0.97222  0.16506  Biso   1.000  H
  C61      1.0000 0.10509  0.83785  0.25992  Biso   1.000  C
  C62      1.0000 0.97315  0.75369  0.39184  Biso   1.000  C
  H64      1.0000 0.20806  0.94004  0.31999  Biso   1.000  H
  H65      1.0000 0.18238  0.94904  0.42239  Biso   1.000  H
  C63      1.0000 0.05488  0.00476  0.36903  Biso   1.000  C
  H66      1.0000 0.58276  0.44242  0.25643  Biso   1.000  H
  O18      1.0000 0.57966  0.56008  0.04349  Biso   1.000  O
  C64      1.0000 0.39909  0.73357  0.00911  Biso   1.000  C
  H67      1.0000 0.57016  0.70871  0.95856  Biso   1.000  H
  C65      1.0000 0.55801  0.83437  0.97459  Biso   1.000  C
  C66      1.0000 0.06201  0.81372  0.20068  Biso   1.000  C
  H68      1.0000 0.16716  0.87531  0.23424  Biso   1.000  H
  O19      1.0000 0.92216  0.72240  0.48444  Biso   1.000  O
  C67      1.0000 0.92890  0.72751  0.33437  Biso   1.000  C
  H69      1.0000 0.02491  0.99511  0.32273  Biso   1.000  H
  H70      1.0000 0.99221  0.99829  0.42787  Biso   1.000  H
  C68      1.0000 0.09601  0.09612  0.34013  Biso   1.000  C
  H71      1.0000 0.58270  0.50586  0.06479  Biso   1.000  H
  C69      1.0000 0.31245  0.78812  0.05007  Biso   1.000  C
  C70      1.0000 0.37037  0.67218  0.97288  Biso   1.000  C
  H72      1.0000 0.50517  0.86909  0.01616  Biso   1.000  H
  H73      1.0000 0.63422  0.83530  0.97932  Biso   1.000  H
  C71      1.0000 0.56135  0.87700  0.87672  Biso   1.000  C
  C72      1.0000 0.10842  0.84777  0.09733  Biso   1.000  C
  C73      1.0000 0.97344  0.75643  0.24013  Biso   1.000  C
  H74      1.0000 0.97272  0.71290  0.51012  Biso   1.000  H
  O20      1.0000 0.83874  0.67275  0.37218  Biso   1.000  O
  H75      1.0000 0.15491  0.10411  0.27992  Biso   1.000  H
  H76      1.0000 0.03267  0.13816  0.33629  Biso   1.000  H
  H77      1.0000 0.12730  0.10576  0.38506  Biso   1.000  H
  C74      1.0000 0.20099  0.78547  0.05342  Biso   1.000  C
  H78      1.0000 0.33015  0.82909  0.07692  Biso   1.000  H
  O21      1.0000 0.44946  0.61323  0.93281  Biso   1.000  O
  C75      1.0000 0.26026  0.66784  0.97411  Biso   1.000  C
  H79      1.0000 0.48609  0.87350  0.87130  Biso   1.000  H
  H80      1.0000 0.61684  0.84387  0.83487  Biso   1.000  H
  C76      1.0000 0.59294  0.97151  0.84685  Biso   1.000  C
  H81      1.0000 0.04468  0.84854  0.07315  Biso   1.000  H
  C77      1.0000 0.14904  0.94149  0.06726  Biso   1.000  C
  O22      1.0000 0.92214  0.72538  0.19116  Biso   1.000  O
  H82      1.0000 0.83235  0.65082  0.33170  Biso   1.000  H
  C78      1.0000 0.17565  0.72391  0.01514  Biso   1.000  C
  H83      1.0000 0.49645  0.59743  0.96117  Biso   1.000  H
  O23      1.0000 0.22776  0.60835  0.93966  Biso   1.000  O
  H84      1.0000 0.66713  0.97566  0.85247  Biso   1.000  H
  H85      1.0000 0.59624  0.99468  0.78288  Biso   1.000  H
  H86      1.0000 0.53593  0.00543  0.88569  Biso   1.000  H
  H87      1.0000 0.21086  0.94296  0.09192  Biso   1.000  H
  H88      1.0000 0.18122  0.95689  0.99966  Biso   1.000  H
  C79      1.0000 0.05854  0.01080  0.09726  Biso   1.000  C
  H89      1.0000 0.96716  0.72718  0.13794  Biso   1.000  H
  O24      1.0000 0.06565  0.71881  0.02007  Biso   1.000  O
  H90      1.0000 0.28381  0.59260  0.89911  Biso   1.000  H
  H91      1.0000 0.02653  0.99666  0.16493  Biso   1.000  H
  H92      1.0000 0.99645  0.01044  0.07246  Biso   1.000  H
  C80      1.0000 0.10581  0.10098  0.06452  Biso   1.000  C
  H93      1.0000 0.06228  0.68159  0.99212  Biso   1.000  H
  H94      1.0000 0.13463  0.11621  0.99740  Biso   1.000  H
  H95      1.0000 0.04584  0.14361  0.08616  Biso   1.000  H
  H96      1.0000 0.16750  0.10145  0.08856  Biso   1.000  H
