data_image0
_cell_length_a       17.744
_cell_length_b       10.267
_cell_length_c       20.225
_cell_angle_alpha    90
_cell_angle_beta     102.4
_cell_angle_gamma    90

_symmetry_space_group_name_H-M    "P 1"
_symmetry_int_tables_number       1

loop_
  _symmetry_equiv_pos_as_xyz
  'x, y, z'

loop_
  _atom_site_label
  _atom_site_occupancy
  _atom_site_fract_x
  _atom_site_fract_y
  _atom_site_fract_z
  _atom_site_thermal_displace_type
  _atom_site_B_iso_or_equiv
  _atom_site_type_symbol
  C1       1.0000 0.48602  0.51758  0.40272  Biso   1.000  C
  C2       1.0000 0.39955  0.53229  0.38743  Biso   1.000  C
  O1       1.0000 0.50697  0.42749  0.35382  Biso   1.000  O
  H1       1.0000 0.51059  0.60329  0.39968  Biso   1.000  H
  H2       1.0000 0.50427  0.48349  0.44919  Biso   1.000  H
  C3       1.0000 0.35613  0.41190  0.40297  Biso   1.000  C
  H3       1.0000 0.38175  0.55411  0.33888  Biso   1.000  H
  H4       1.0000 0.38605  0.60641  0.41401  Biso   1.000  H
  C4       1.0000 0.58169  0.43206  0.34870  Biso   1.000  C
  C5       1.0000 0.26936  0.40723  0.36784  Biso   1.000  C
  H5       1.0000 0.36047  0.40703  0.45248  Biso   1.000  H
  H6       1.0000 0.38175  0.33379  0.38930  Biso   1.000  H
  O2       1.0000 0.62991  0.50141  0.38272  Biso   1.000  O
  C6       1.0000 0.59764  0.34372  0.29646  Biso   1.000  C
  C7       1.0000 0.26250  0.38453  0.29261  Biso   1.000  C
  C8       1.0000 0.22999  0.29824  0.39740  Biso   1.000  C
  C9       1.0000 0.23041  0.53745  0.37953  Biso   1.000  C
  N1       1.0000 0.54477  0.25879  0.26026  Biso   1.000  N
  C10      1.0000 0.66457  0.33447  0.27287  Biso   1.000  C
  C11      1.0000 0.31723  0.36612  0.25510  Biso   1.000  C
  N2       1.0000 0.19204  0.37703  0.24857  Biso   1.000  N
  N3       1.0000 0.24427  0.16909  0.38485  Biso   1.000  N
  C12      1.0000 0.17607  0.29814  0.43684  Biso   1.000  C
  H7       1.0000 0.25359  0.60855  0.35842  Biso   1.000  H
  H8       1.0000 0.23777  0.55372  0.42829  Biso   1.000  H
  H9       1.0000 0.17509  0.53258  0.35938  Biso   1.000  H
  H10      1.0000 0.49698  0.24876  0.26512  Biso   1.000  H
  C13      1.0000 0.57789  0.19305  0.21576  Biso   1.000  C
  H11      1.0000 0.71047  0.38307  0.28841  Biso   1.000  H
  C14      1.0000 0.65227  0.24058  0.22194  Biso   1.000  C
  H12      1.0000 0.37149  0.36535  0.27211  Biso   1.000  H
  C15      1.0000 0.27954  0.34840  0.18675  Biso   1.000  C
  C16      1.0000 0.20155  0.35531  0.18336  Biso   1.000  C
  H13      1.0000 0.14727  0.38502  0.26021  Biso   1.000  H
  H14      1.0000 0.27716  0.14230  0.36080  Biso   1.000  H
  C17      1.0000 0.19979  0.08795  0.41538  Biso   1.000  C
  C18      1.0000 0.15703  0.16714  0.44793  Biso   1.000  C
  H15      1.0000 0.15509  0.37304  0.45380  Biso   1.000  H
  C19      1.0000 0.53900  0.09068  0.17131  Biso   1.000  C
  H16      1.0000 0.68839  0.21399  0.19612  Biso   1.000  H
  H17      1.0000 0.30368  0.33427  0.14980  Biso   1.000  H
  C20      1.0000 0.13529  0.32229  0.12494  Biso   1.000  C
  C21      1.0000 0.20790  0.94176  0.41376  Biso   1.000  C
  H18      1.0000 0.12096  0.13899  0.47349  Biso   1.000  H
  O3       1.0000 0.46506  0.08172  0.17476  Biso   1.000  O
  O4       1.0000 0.57005  0.02211  0.13608  Biso   1.000  O
  C22      1.0000 0.12593  0.17551  0.12170  Biso   1.000  C
  C23      1.0000 0.05991  0.38726  0.13264  Biso   1.000  C
  C24      1.0000 0.15468  0.37080  0.05817  Biso   1.000  C
  C25      1.0000 0.24378  0.90017  0.35589  Biso   1.000  C
  C26      1.0000 0.26154  0.89793  0.48093  Biso   1.000  C
  C27      1.0000 0.12801  0.87552  0.40834  Biso   1.000  C
  C28      1.0000 0.42078  0.97224  0.13962  Biso   1.000  C
  N4       1.0000 0.18214  0.09467  0.15770  Biso   1.000  N
  C29      1.0000 0.06970  0.09613  0.08515  Biso   1.000  C
  H19      1.0000 0.01960  0.36963  0.09229  Biso   1.000  H
  H20      1.0000 0.06779  0.48145  0.13790  Biso   1.000  H
  H21      1.0000 0.04418  0.35200  0.17268  Biso   1.000  H
  H22      1.0000 0.20240  0.32931  0.05189  Biso   1.000  H
  H23      1.0000 0.16157  0.46547  0.06009  Biso   1.000  H
  H24      1.0000 0.11239  0.34830  0.02010  Biso   1.000  H
  N5       1.0000 0.20369  0.90767  0.28881  Biso   1.000  N
  C30      1.0000 0.31457  0.85254  0.35498  Biso   1.000  C
  H25      1.0000 0.31084  0.94448  0.48711  Biso   1.000  H
  H26      1.0000 0.27077  0.80403  0.47952  Biso   1.000  H
  H27      1.0000 0.23705  0.91779  0.51880  Biso   1.000  H
  H28      1.0000 0.10607  0.90231  0.44671  Biso   1.000  H
  H29      1.0000 0.13435  0.78066  0.40890  Biso   1.000  H
  H30      1.0000 0.09325  0.90182  0.36602  Biso   1.000  H
  C31      1.0000 0.34041  0.98812  0.15203  Biso   1.000  C
  H31      1.0000 0.44351  0.88828  0.15810  Biso   1.000  H
  H32      1.0000 0.42000  0.97516  0.09062  Biso   1.000  H
  H33      1.0000 0.22416  0.12204  0.18569  Biso   1.000  H
  C32      1.0000 0.16390  0.96562  0.14418  Biso   1.000  C
  H34      1.0000 0.02338  0.12399  0.05569  Biso   1.000  H
  C33      1.0000 0.09336  0.96455  0.09938  Biso   1.000  C
  C34      1.0000 0.24993  0.86598  0.24654  Biso   1.000  C
  H35      1.0000 0.15577  0.93503  0.27540  Biso   1.000  H
  C35      1.0000 0.31878  0.82975  0.28654  Biso   1.000  C
  H36      1.0000 0.35477  0.83705  0.39351  Biso   1.000  H
  C36      1.0000 0.29072  0.86588  0.13572  Biso   1.000  C
  H37      1.0000 0.31461  0.06097  0.12398  Biso   1.000  H
  H38      1.0000 0.34407  0.01140  0.20012  Biso   1.000  H
  C37      1.0000 0.22067  0.85819  0.17005  Biso   1.000  C
  H39      1.0000 0.06539  0.88916  0.08110  Biso   1.000  H
  H40      1.0000 0.36185  0.79546  0.27140  Biso   1.000  H
  H41      1.0000 0.32381  0.78864  0.14960  Biso   1.000  H
  H42      1.0000 0.27147  0.86091  0.08611  Biso   1.000  H
  C38      1.0000 0.18092  0.72475  0.15203  Biso   1.000  C
  H43      1.0000 0.13587  0.71803  0.17268  Biso   1.000  H
  H44      1.0000 0.21736  0.65472  0.16919  Biso   1.000  H
  H45      1.0000 0.16429  0.71705  0.10272  Biso   1.000  H
  O5       1.0000 0.58548  0.69592  0.53713  Biso   1.000  O
  C39      1.0000 0.51012  0.69806  0.53986  Biso   1.000  C
  C40      1.0000 0.61070  0.80072  0.49810  Biso   1.000  C
  C41      1.0000 0.49199  0.59482  0.58345  Biso   1.000  C
  O6       1.0000 0.46370  0.77316  0.50863  Biso   1.000  O
  C42      1.0000 0.69486  0.77666  0.50002  Biso   1.000  C
  H46      1.0000 0.58064  0.79965  0.45081  Biso   1.000  H
  H47      1.0000 0.60355  0.88643  0.51840  Biso   1.000  H
  C43      1.0000 0.42093  0.55800  0.59428  Biso   1.000  C
  N6       1.0000 0.54663  0.52070  0.62522  Biso   1.000  N
  C44      1.0000 0.73573  0.89890  0.48235  Biso   1.000  C
  H48      1.0000 0.72046  0.74666  0.54589  Biso   1.000  H
  H49      1.0000 0.69967  0.70654  0.46762  Biso   1.000  H
  H50      1.0000 0.37237  0.59190  0.57181  Biso   1.000  H
  C45      1.0000 0.43345  0.46197  0.64430  Biso   1.000  C
  C46      1.0000 0.51181  0.44044  0.66349  Biso   1.000  C
  H51      1.0000 0.59657  0.52440  0.62709  Biso   1.000  H
  C47      1.0000 0.82261  0.91010  0.51703  Biso   1.000  C
  H52      1.0000 0.73096  0.90133  0.43269  Biso   1.000  H
  H53      1.0000 0.70854  0.97623  0.49491  Biso   1.000  H
  H54      1.0000 0.39473  0.41891  0.66202  Biso   1.000  H
  C48      1.0000 0.55334  0.34986  0.71391  Biso   1.000  C
  C49      1.0000 0.83069  0.90659  0.59287  Biso   1.000  C
  C50      1.0000 0.86725  0.80131  0.49192  Biso   1.000  C
  C51      1.0000 0.85297  0.04266  0.49784  Biso   1.000  C
  O7       1.0000 0.52234  0.28431  0.75051  Biso   1.000  O
  O8       1.0000 0.62960  0.34742  0.71462  Biso   1.000  O
  N7       1.0000 0.89652  0.86559  0.63777  Biso   1.000  N
  C52      1.0000 0.77992  0.94361  0.63134  Biso   1.000  C
  N8       1.0000 0.85741  0.67293  0.50675  Biso   1.000  N
  C53      1.0000 0.91843  0.80189  0.44914  Biso   1.000  C
  H55      1.0000 0.90694  0.05337  0.52149  Biso   1.000  H
  H56      1.0000 0.84939  0.04588  0.44889  Biso   1.000  H
  H57      1.0000 0.82184  0.11289  0.51111  Biso   1.000  H
  C54      1.0000 0.67617  0.26006  0.76514  Biso   1.000  C
  H58      1.0000 0.93806  0.83530  0.62582  Biso   1.000  H
  C55      1.0000 0.88848  0.87864  0.70368  Biso   1.000  C
  C56      1.0000 0.81588  0.92442  0.70110  Biso   1.000  C
  H59      1.0000 0.72935  0.97643  0.61469  Biso   1.000  H
  H60      1.0000 0.82787  0.64566  0.53369  Biso   1.000  H
  C57      1.0000 0.89929  0.59248  0.47456  Biso   1.000  C
  H61      1.0000 0.93677  0.87669  0.42991  Biso   1.000  H
  C58      1.0000 0.93859  0.67069  0.43917  Biso   1.000  C
  H62      1.0000 0.68332  0.29853  0.81091  Biso   1.000  H
  H63      1.0000 0.65004  0.17483  0.76519  Biso   1.000  H
  C59      1.0000 0.75367  0.24272  0.74580  Biso   1.000  C
  C60      1.0000 0.95051  0.83929  0.76347  Biso   1.000  C
  H64      1.0000 0.79327  0.94088  0.73882  Biso   1.000  H
  C61      1.0000 0.88995  0.44521  0.47714  Biso   1.000  C
  H65      1.0000 0.97348  0.64235  0.41249  Biso   1.000  H
  H66      1.0000 0.78231  0.17181  0.77350  Biso   1.000  H
  H67      1.0000 0.74482  0.21584  0.69771  Biso   1.000  H
  C62      1.0000 0.80331  0.36671  0.75568  Biso   1.000  C
  C63      1.0000 0.95953  0.69173  0.76742  Biso   1.000  C
  C64      1.0000 0.92815  0.88721  0.82918  Biso   1.000  C
  C65      1.0000 0.02816  0.90231  0.75932  Biso   1.000  C
  C66      1.0000 0.85057  0.41268  0.53475  Biso   1.000  C
  C67      1.0000 0.96829  0.37723  0.48498  Biso   1.000  C
  C68      1.0000 0.83719  0.40099  0.41011  Biso   1.000  C
  C69      1.0000 0.87128  0.36944  0.71887  Biso   1.000  C
  H68      1.0000 0.76932  0.44200  0.73998  Biso   1.000  H
  H69      1.0000 0.82432  0.37840  0.80468  Biso   1.000  H
  N9       1.0000 0.90365  0.60914  0.73391  Biso   1.000  N
  C70      1.0000 0.01703  0.61566  0.80316  Biso   1.000  C
  H70      1.0000 0.87904  0.84786  0.83298  Biso   1.000  H
  H71      1.0000 0.96845  0.86199  0.86832  Biso   1.000  H
  H72      1.0000 0.92305  0.98237  0.82792  Biso   1.000  H
  H73      1.0000 0.02272  0.99737  0.75851  Biso   1.000  H
  H74      1.0000 0.06761  0.87650  0.79891  Biso   1.000  H
  H75      1.0000 0.04347  0.87309  0.71801  Biso   1.000  H
  N10      1.0000 0.89057  0.40021  0.60056  Biso   1.000  N
  C71      1.0000 0.77409  0.40927  0.53591  Biso   1.000  C
  H76      1.0000 0.96108  0.28265  0.48569  Biso   1.000  H
  H77      1.0000 0.99166  0.40060  0.44692  Biso   1.000  H
  H78      1.0000 0.00237  0.40489  0.52751  Biso   1.000  H
  H79      1.0000 0.78849  0.44911  0.40292  Biso   1.000  H
  H80      1.0000 0.86278  0.41833  0.37260  Biso   1.000  H
  H81      1.0000 0.82696  0.30749  0.41229  Biso   1.000  H
  C72      1.0000 0.92457  0.48037  0.74687  Biso   1.000  C
  C73      1.0000 0.84114  0.38736  0.64385  Biso   1.000  C
  C74      1.0000 0.91735  0.24058  0.73208  Biso   1.000  C
  H82      1.0000 0.86001  0.63465  0.70758  Biso   1.000  H
  C75      1.0000 0.99639  0.48388  0.79020  Biso   1.000  C
  H83      1.0000 0.06323  0.64605  0.83192  Biso   1.000  H
  H84      1.0000 0.94126  0.40041  0.61332  Biso   1.000  H
  C76      1.0000 0.76814  0.39418  0.60461  Biso   1.000  C
  H85      1.0000 0.73236  0.41580  0.49779  Biso   1.000  H
  H86      1.0000 0.96427  0.24739  0.71401  Biso   1.000  H
  H87      1.0000 0.93161  0.22421  0.78089  Biso   1.000  H
  H88      1.0000 0.88547  0.16860  0.70981  Biso   1.000  H
  H89      1.0000 0.02653  0.41054  0.80812  Biso   1.000  H
  H90      1.0000 0.72156  0.38960  0.62041  Biso   1.000  H
  O9       1.0000 0.52237  0.71569  0.25049  Biso   1.000  O
  C77      1.0000 0.55337  0.65024  0.21389  Biso   1.000  C
  C78      1.0000 0.51184  0.55966  0.16352  Biso   1.000  C
  O10      1.0000 0.62962  0.65267  0.21460  Biso   1.000  O
  C79      1.0000 0.43348  0.53813  0.14428  Biso   1.000  C
  N11      1.0000 0.54665  0.47930  0.12519  Biso   1.000  N
  C80      1.0000 0.67620  0.74004  0.26512  Biso   1.000  C
  C81      1.0000 0.42101  0.44200  0.09426  Biso   1.000  C
  H91      1.0000 0.39481  0.58109  0.16200  Biso   1.000  H
  C82      1.0000 0.49202  0.40518  0.08343  Biso   1.000  C
  H92      1.0000 0.59660  0.47560  0.12712  Biso   1.000  H
  H93      1.0000 0.68340  0.70157  0.31089  Biso   1.000  H
  H94      1.0000 0.65007  0.82527  0.26522  Biso   1.000  H
  C83      1.0000 0.75369  0.75738  0.24578  Biso   1.000  C
  H95      1.0000 0.37239  0.40810  0.07179  Biso   1.000  H
  C84      1.0000 0.51016  0.30204  0.03989  Biso   1.000  C
  H96      1.0000 0.78240  0.82819  0.27353  Biso   1.000  H
  H97      1.0000 0.74490  0.78426  0.19769  Biso   1.000  H
  C85      1.0000 0.80333  0.63329  0.25565  Biso   1.000  C
  O11      1.0000 0.58552  0.30408  0.03716  Biso   1.000  O
  O12      1.0000 0.46373  0.22694  0.00861  Biso   1.000  O
  C86      1.0000 0.87136  0.63066  0.21885  Biso   1.000  C
  H98      1.0000 0.76941  0.55800  0.24001  Biso   1.000  H
  H99      1.0000 0.82436  0.62160  0.30471  Biso   1.000  H
  C87      1.0000 0.61068  0.19928  0.99813  Biso   1.000  C
  C88      1.0000 0.92460  0.51963  0.24685  Biso   1.000  C
  C89      1.0000 0.84117  0.61274  0.14382  Biso   1.000  C
  C90      1.0000 0.91744  0.75942  0.23211  Biso   1.000  C
  C91      1.0000 0.69490  0.22343  0.00005  Biso   1.000  C
  H100     1.0000 0.60357  0.11357  0.01838  Biso   1.000  H
  H101     1.0000 0.58061  0.20045  0.95079  Biso   1.000  H
  N12      1.0000 0.90369  0.39086  0.23394  Biso   1.000  N
  C92      1.0000 0.99641  0.51612  0.29018  Biso   1.000  C
  N13      1.0000 0.89065  0.59988  0.10054  Biso   1.000  N
  C93      1.0000 0.76816  0.60582  0.10459  Biso   1.000  C
  H102     1.0000 0.96429  0.75261  0.21399  Biso   1.000  H
  H103     1.0000 0.93170  0.77579  0.28092  Biso   1.000  H
  H104     1.0000 0.88549  0.83140  0.20979  Biso   1.000  H
  H105     1.0000 0.72049  0.25343  0.04592  Biso   1.000  H
  C94      1.0000 0.73571  0.10110  0.98238  Biso   1.000  C
  H106     1.0000 0.69963  0.29346  0.96760  Biso   1.000  H
  H107     1.0000 0.86010  0.36544  0.20761  Biso   1.000  H
  C95      1.0000 0.95957  0.30827  0.26745  Biso   1.000  C
  H108     1.0000 0.02655  0.58956  0.30810  Biso   1.000  H
  C96      1.0000 0.01712  0.38444  0.30319  Biso   1.000  C
  H109     1.0000 0.94128  0.59959  0.11330  Biso   1.000  H
  C97      1.0000 0.85064  0.58732  0.03473  Biso   1.000  C
  C98      1.0000 0.77413  0.59073  0.03594  Biso   1.000  C
  H110     1.0000 0.72159  0.61040  0.12039  Biso   1.000  H
  C99      1.0000 0.82269  0.08990  0.01701  Biso   1.000  C
  H111     1.0000 0.73094  0.09867  0.93272  Biso   1.000  H
  H112     1.0000 0.70852  0.02377  0.99494  Biso   1.000  H
  C100     1.0000 0.95053  0.16071  0.26345  Biso   1.000  C
  H113     1.0000 0.06326  0.35405  0.33190  Biso   1.000  H
  C101     1.0000 0.88991  0.55479  0.97712  Biso   1.000  C
  H114     1.0000 0.73233  0.58420  0.99782  Biso   1.000  H
  C102     1.0000 0.83073  0.09341  0.09290  Biso   1.000  C
  C103     1.0000 0.85289  0.95734  0.99787  Biso   1.000  C
  C104     1.0000 0.86721  0.19869  0.99190  Biso   1.000  C
  C105     1.0000 0.88850  0.12136  0.20366  Biso   1.000  C
  C106     1.0000 0.92818  0.11279  0.32916  Biso   1.000  C
  C107     1.0000 0.02819  0.09769  0.25930  Biso   1.000  C
  C108     1.0000 0.89926  0.40752  0.97454  Biso   1.000  C
  C109     1.0000 0.96827  0.62287  0.98502  Biso   1.000  C
  C110     1.0000 0.83717  0.59901  0.91014  Biso   1.000  C
  N14      1.0000 0.89654  0.13441  0.13775  Biso   1.000  N
  C111     1.0000 0.77996  0.05639  0.13137  Biso   1.000  C
  H115     1.0000 0.84931  0.95412  0.94892  Biso   1.000  H
  H116     1.0000 0.90698  0.94663  0.02152  Biso   1.000  H
  H117     1.0000 0.82192  0.88711  0.01109  Biso   1.000  H
  N15      1.0000 0.85744  0.32707  0.00678  Biso   1.000  N
  C112     1.0000 0.91840  0.19811  0.94912  Biso   1.000  C
  C113     1.0000 0.81591  0.07558  0.20113  Biso   1.000  C
  H118     1.0000 0.87907  0.15224  0.33301  Biso   1.000  H
  H119     1.0000 0.96847  0.13801  0.36829  Biso   1.000  H
  H120     1.0000 0.92308  0.01773  0.32790  Biso   1.000  H
  H121     1.0000 0.02280  0.00273  0.25849  Biso   1.000  H
  H122     1.0000 0.06769  0.12350  0.29889  Biso   1.000  H
  H123     1.0000 0.04349  0.12691  0.21799  Biso   1.000  H
  C114     1.0000 0.93857  0.32931  0.93920  Biso   1.000  C
  H124     1.0000 0.96100  0.71744  0.98572  Biso   1.000  H
  H125     1.0000 0.99162  0.59940  0.94689  Biso   1.000  H
  H126     1.0000 0.00239  0.59511  0.02749  Biso   1.000  H
  H127     1.0000 0.78845  0.55089  0.90290  Biso   1.000  H
  H128     1.0000 0.86276  0.58177  0.87263  Biso   1.000  H
  H129     1.0000 0.82694  0.69251  0.91232  Biso   1.000  H
  H130     1.0000 0.93808  0.16470  0.12580  Biso   1.000  H
  H131     1.0000 0.72939  0.02357  0.11472  Biso   1.000  H
  H132     1.0000 0.82791  0.35444  0.03372  Biso   1.000  H
  H133     1.0000 0.93675  0.12331  0.92994  Biso   1.000  H
  H134     1.0000 0.79329  0.05922  0.23880  Biso   1.000  H
  H135     1.0000 0.97340  0.35775  0.91252  Biso   1.000  H
  C115     1.0000 0.65224  0.75942  0.72191  Biso   1.000  C
  C116     1.0000 0.57787  0.80705  0.71578  Biso   1.000  C
  C117     1.0000 0.66449  0.66553  0.77289  Biso   1.000  C
  H136     1.0000 0.68835  0.78601  0.69609  Biso   1.000  H
  C118     1.0000 0.53898  0.90932  0.67133  Biso   1.000  C
  N16      1.0000 0.54474  0.74121  0.76028  Biso   1.000  N
  C119     1.0000 0.59756  0.65628  0.79648  Biso   1.000  C
  H137     1.0000 0.71043  0.61693  0.78838  Biso   1.000  H
  O13      1.0000 0.46503  0.91828  0.67478  Biso   1.000  O
  O14      1.0000 0.56997  0.97789  0.63610  Biso   1.000  O
  H138     1.0000 0.49695  0.75134  0.76509  Biso   1.000  H
  C120     1.0000 0.58165  0.56803  0.84867  Biso   1.000  C
  C121     1.0000 0.42076  0.02776  0.63964  Biso   1.000  C
  O15      1.0000 0.50694  0.57251  0.85384  Biso   1.000  O
  O16      1.0000 0.62989  0.49859  0.88274  Biso   1.000  O
  C122     1.0000 0.34038  0.01188  0.65200  Biso   1.000  C
  H139     1.0000 0.44343  0.11181  0.65812  Biso   1.000  H
  H140     1.0000 0.41997  0.02493  0.59059  Biso   1.000  H
  C123     1.0000 0.48600  0.48242  0.90274  Biso   1.000  C
  C124     1.0000 0.29068  0.13422  0.63569  Biso   1.000  C
  H141     1.0000 0.31453  0.93903  0.62400  Biso   1.000  H
  H142     1.0000 0.34403  0.98860  0.70009  Biso   1.000  H
  C125     1.0000 0.39953  0.46771  0.88745  Biso   1.000  C
  H143     1.0000 0.51051  0.39671  0.89970  Biso   1.000  H
  H144     1.0000 0.50425  0.51651  0.94921  Biso   1.000  H
  C126     1.0000 0.22058  0.14181  0.67002  Biso   1.000  C
  H145     1.0000 0.32373  0.21145  0.64962  Biso   1.000  H
  H146     1.0000 0.27144  0.13909  0.58608  Biso   1.000  H
  C127     1.0000 0.35610  0.58810  0.90299  Biso   1.000  C
  H147     1.0000 0.38173  0.44589  0.83890  Biso   1.000  H
  H148     1.0000 0.38603  0.39359  0.91403  Biso   1.000  H
  C128     1.0000 0.16387  0.03438  0.64420  Biso   1.000  C
  C129     1.0000 0.24989  0.13412  0.74651  Biso   1.000  C
  C130     1.0000 0.18090  0.27535  0.65205  Biso   1.000  C
  C131     1.0000 0.26934  0.59287  0.86786  Biso   1.000  C
  H149     1.0000 0.36045  0.59307  0.95250  Biso   1.000  H
  H150     1.0000 0.38173  0.66621  0.88932  Biso   1.000  H
  N17      1.0000 0.18212  0.90533  0.65772  Biso   1.000  N
  C132     1.0000 0.09327  0.03545  0.59935  Biso   1.000  C
  N18      1.0000 0.20366  0.09243  0.78878  Biso   1.000  N
  C133     1.0000 0.31876  0.17035  0.78656  Biso   1.000  C
  H151     1.0000 0.13585  0.28197  0.67270  Biso   1.000  H
  H152     1.0000 0.21733  0.34528  0.66921  Biso   1.000  H
  H153     1.0000 0.16425  0.28304  0.60269  Biso   1.000  H
  C134     1.0000 0.26247  0.61556  0.79258  Biso   1.000  C
  C135     1.0000 0.22995  0.70186  0.89737  Biso   1.000  C
  C136     1.0000 0.23038  0.46265  0.87955  Biso   1.000  C
  C137     1.0000 0.12585  0.82449  0.62172  Biso   1.000  C
  H154     1.0000 0.22414  0.87806  0.68571  Biso   1.000  H
  C138     1.0000 0.06961  0.90396  0.58512  Biso   1.000  C
  H155     1.0000 0.06536  0.11094  0.58112  Biso   1.000  H
  H156     1.0000 0.15575  0.06497  0.77542  Biso   1.000  H
  C139     1.0000 0.24369  0.09993  0.85586  Biso   1.000  C
  H157     1.0000 0.36183  0.20464  0.77142  Biso   1.000  H
  C140     1.0000 0.31455  0.14746  0.85500  Biso   1.000  C
  N19      1.0000 0.19202  0.62297  0.74859  Biso   1.000  N
  C141     1.0000 0.31719  0.63397  0.75507  Biso   1.000  C
  N20      1.0000 0.24425  0.83091  0.88487  Biso   1.000  N
  C142     1.0000 0.17599  0.70196  0.93686  Biso   1.000  C
  H158     1.0000 0.25355  0.39155  0.85839  Biso   1.000  H
  H159     1.0000 0.23775  0.44628  0.92831  Biso   1.000  H
  H160     1.0000 0.17501  0.46742  0.85941  Biso   1.000  H
  C143     1.0000 0.13521  0.67771  0.62496  Biso   1.000  C
  H161     1.0000 0.02336  0.87601  0.55571  Biso   1.000  H
  C144     1.0000 0.20786  0.05834  0.91373  Biso   1.000  C
  H162     1.0000 0.35475  0.16305  0.89353  Biso   1.000  H
  C145     1.0000 0.20153  0.64469  0.68338  Biso   1.000  C
  H163     1.0000 0.14723  0.61498  0.76018  Biso   1.000  H
  C146     1.0000 0.27944  0.65160  0.68672  Biso   1.000  C
  H164     1.0000 0.37147  0.63475  0.77213  Biso   1.000  H
  H165     1.0000 0.27714  0.85770  0.86082  Biso   1.000  H
  C147     1.0000 0.19975  0.91215  0.91535  Biso   1.000  C
  C148     1.0000 0.15695  0.83296  0.94795  Biso   1.000  C
  H166     1.0000 0.15501  0.62706  0.95382  Biso   1.000  H
  C149     1.0000 0.15464  0.62920  0.55814  Biso   1.000  C
  C150     1.0000 0.05989  0.61284  0.63266  Biso   1.000  C
  C151     1.0000 0.26151  0.10207  0.98096  Biso   1.000  C
  C152     1.0000 0.12799  0.12448  0.90836  Biso   1.000  C
  H167     1.0000 0.30366  0.66573  0.64982  Biso   1.000  H
  H168     1.0000 0.12094  0.86101  0.97351  Biso   1.000  H
  H169     1.0000 0.20238  0.67069  0.55191  Biso   1.000  H
  H170     1.0000 0.16155  0.53453  0.56011  Biso   1.000  H
  H171     1.0000 0.11237  0.65170  0.52012  Biso   1.000  H
  H172     1.0000 0.01958  0.63047  0.59231  Biso   1.000  H
  H173     1.0000 0.06777  0.51865  0.63792  Biso   1.000  H
  H174     1.0000 0.04416  0.64800  0.67270  Biso   1.000  H
  H175     1.0000 0.31080  0.05562  0.98708  Biso   1.000  H
  H176     1.0000 0.27074  0.19597  0.97949  Biso   1.000  H
  H177     1.0000 0.23707  0.08221  0.01877  Biso   1.000  H
  H178     1.0000 0.10603  0.09769  0.94668  Biso   1.000  H
  H179     1.0000 0.13432  0.21944  0.90892  Biso   1.000  H
  H180     1.0000 0.09321  0.09818  0.86599  Biso   1.000  H
