data_image0
_cell_length_a       11.402
_cell_length_b       13.136
_cell_length_c       20.757
_cell_angle_alpha    77.44
_cell_angle_beta     77.54
_cell_angle_gamma    69.45

_symmetry_space_group_name_H-M    "P 1"
_symmetry_int_tables_number       1

loop_
  _symmetry_equiv_pos_as_xyz
  'x, y, z'

loop_
  _atom_site_label
  _atom_site_occupancy
  _atom_site_fract_x
  _atom_site_fract_y
  _atom_site_fract_z
  _atom_site_thermal_displace_type
  _atom_site_B_iso_or_equiv
  _atom_site_type_symbol
  C1       1.0000 0.66413  0.48390  0.45802  Biso   1.000  C
  C2       1.0000 0.68465  0.36401  0.45822  Biso   1.000  C
  C3       1.0000 0.71058  0.51594  0.50352  Biso   1.000  C
  C4       1.0000 0.59513  0.56525  0.41262  Biso   1.000  C
  N1       1.0000 0.81345  0.30045  0.43110  Biso   1.000  N
  H1       1.0000 0.62453  0.35897  0.43180  Biso   1.000  H
  H2       1.0000 0.66373  0.32937  0.50472  Biso   1.000  H
  H3       1.0000 0.75735  0.46178  0.53508  Biso   1.000  H
  C5       1.0000 0.68947  0.62735  0.50372  Biso   1.000  C
  C6       1.0000 0.57296  0.67579  0.41242  Biso   1.000  C
  H4       1.0000 0.56243  0.54430  0.38101  Biso   1.000  H
  C7       1.0000 0.82200  0.18527  0.42721  Biso   1.000  C
  H5       1.0000 0.83632  0.33500  0.38910  Biso   1.000  H
  H6       1.0000 0.86909  0.29816  0.45792  Biso   1.000  H
  H7       1.0000 0.72366  0.64820  0.53478  Biso   1.000  H
  C8       1.0000 0.61959  0.70717  0.45922  Biso   1.000  C
  C9       1.0000 0.49263  0.76252  0.36508  Biso   1.000  C
  C10      1.0000 0.95390  0.11700  0.40039  Biso   1.000  C
  H8       1.0000 0.79567  0.14901  0.47240  Biso   1.000  H
  H9       1.0000 0.76246  0.18815  0.39809  Biso   1.000  H
  H10      1.0000 0.60324  0.78288  0.46042  Biso   1.000  H
  N2       1.0000 0.57023  0.81240  0.30729  Biso   1.000  N
  H11      1.0000 0.43262  0.82140  0.38980  Biso   1.000  H
  H12      1.0000 0.44246  0.72921  0.34780  Biso   1.000  H
  N3       1.0000 0.99570  0.15011  0.32932  Biso   1.000  N
  H13      1.0000 0.95710  0.03909  0.40748  Biso   1.000  H
  H14      1.0000 0.01455  0.12136  0.42661  Biso   1.000  H
  C11      1.0000 0.48773  0.90661  0.26469  Biso   1.000  C
  H15      1.0000 0.62308  0.83696  0.32318  Biso   1.000  H
  H16      1.0000 0.61980  0.75930  0.28152  Biso   1.000  H
  C12      1.0000 0.93959  0.10821  0.28712  Biso   1.000  C
  C13      1.0000 0.13354  0.11349  0.31419  Biso   1.000  C
  C14      1.0000 0.56385  0.96829  0.21260  Biso   1.000  C
  H17      1.0000 0.44038  0.87799  0.24212  Biso   1.000  H
  H18      1.0000 0.42530  0.95809  0.29361  Biso   1.000  H
  C15      1.0000 0.93228  0.17771  0.21810  Biso   1.000  C
  H19      1.0000 0.99143  0.03120  0.28242  Biso   1.000  H
  H20      1.0000 0.85326  0.10861  0.30909  Biso   1.000  H
  H21      1.0000 0.16763  0.04096  0.34160  Biso   1.000  H
  H22      1.0000 0.15932  0.10378  0.26659  Biso   1.000  H
  C16      1.0000 0.19026  0.19352  0.32742  Biso   1.000  C
  N4       1.0000 0.64068  0.90804  0.15852  Biso   1.000  N
  H23      1.0000 0.62047  0.98718  0.23478  Biso   1.000  H
  H24      1.0000 0.50479  0.03821  0.19318  Biso   1.000  H
  N5       1.0000 0.83512  0.28998  0.21970  Biso   1.000  N
  H25      1.0000 0.91115  0.13890  0.18858  Biso   1.000  H
  H26      1.0000 0.01644  0.18602  0.19892  Biso   1.000  H
  H27      1.0000 0.28335  0.15932  0.32413  Biso   1.000  H
  H28      1.0000 0.15665  0.21047  0.37342  Biso   1.000  H
  N6       1.0000 0.16029  0.29770  0.27858  Biso   1.000  N
  C17      1.0000 0.55819  0.91444  0.11052  Biso   1.000  C
  C18      1.0000 0.73968  0.95435  0.12361  Biso   1.000  C
  C19      1.0000 0.70143  0.28978  0.23448  Biso   1.000  C
  H29      1.0000 0.84661  0.33298  0.17899  Biso   1.000  H
  H30      1.0000 0.84876  0.32185  0.25151  Biso   1.000  H
  H31      1.0000 0.19214  0.28159  0.23598  Biso   1.000  H
  H32      1.0000 0.07376  0.32868  0.28142  Biso   1.000  H
  C20      1.0000 0.21500  0.37967  0.29091  Biso   1.000  C
  C21      1.0000 0.61198  0.82180  0.06962  Biso   1.000  C
  H33      1.0000 0.47420  0.91297  0.13539  Biso   1.000  H
  H34      1.0000 0.54565  0.98549  0.08001  Biso   1.000  H
  C22      1.0000 0.85017  0.92550  0.16051  Biso   1.000  C
  H35      1.0000 0.77160  0.92839  0.07981  Biso   1.000  H
  H36      1.0000 0.70217  0.03549  0.11502  Biso   1.000  H
  C23      1.0000 0.60605  0.40247  0.23892  Biso   1.000  C
  H37      1.0000 0.68510  0.25889  0.19912  Biso   1.000  H
  H38      1.0000 0.68962  0.24110  0.27738  Biso   1.000  H
  H39      1.0000 0.30382  0.34156  0.29850  Biso   1.000  H
  H40      1.0000 0.16634  0.41072  0.33172  Biso   1.000  H
  C24      1.0000 0.21157  0.47147  0.23328  Biso   1.000  C
  N7       1.0000 0.62795  0.71130  0.11172  Biso   1.000  N
  H41      1.0000 0.69520  0.82396  0.04400  Biso   1.000  H
  H42      1.0000 0.55480  0.83268  0.03721  Biso   1.000  H
  N8       1.0000 0.92030  0.80505  0.16960  Biso   1.000  N
  H43      1.0000 0.81886  0.94960  0.20491  Biso   1.000  H
  H44      1.0000 0.90910  0.96573  0.13539  Biso   1.000  H
  C25      1.0000 0.51501  0.41718  0.29591  Biso   1.000  C
  C26      1.0000 0.60273  0.48869  0.18718  Biso   1.000  C
  C27      1.0000 0.29612  0.45379  0.17420  Biso   1.000  C
  C28      1.0000 0.12824  0.57867  0.23882  Biso   1.000  C
  C29      1.0000 0.50513  0.68612  0.13549  Biso   1.000  C
  H45      1.0000 0.68328  0.65816  0.08740  Biso   1.000  H
  H46      1.0000 0.66343  0.70808  0.14818  Biso   1.000  H
  H47      1.0000 0.87149  0.76886  0.20052  Biso   1.000  H
  H48      1.0000 0.93404  0.77960  0.12980  Biso   1.000  H
  C30      1.0000 0.04510  0.77950  0.19258  Biso   1.000  C
  H49      1.0000 0.51576  0.35776  0.33152  Biso   1.000  H
  C31      1.0000 0.42453  0.51811  0.30020  Biso   1.000  C
  C32      1.0000 0.51263  0.59148  0.19218  Biso   1.000  C
  H50      1.0000 0.66265  0.47767  0.14758  Biso   1.000  H
  H51      1.0000 0.35409  0.38218  0.17000  Biso   1.000  H
  C33      1.0000 0.29662  0.53880  0.12181  Biso   1.000  C
  C34      1.0000 0.12891  0.66331  0.18658  Biso   1.000  C
  H52      1.0000 0.07106  0.59256  0.27898  Biso   1.000  H
  H53      1.0000 0.47958  0.66856  0.09759  Biso   1.000  H
  H54      1.0000 0.43856  0.75250  0.14998  Biso   1.000  H
  H55      1.0000 0.08899  0.83130  0.16551  Biso   1.000  H
  H56      1.0000 0.02969  0.79047  0.23972  Biso   1.000  H
  H57      1.0000 0.36232  0.52820  0.33901  Biso   1.000  H
  C35      1.0000 0.42260  0.60565  0.24871  Biso   1.000  C
  H58      1.0000 0.35454  0.52539  0.08171  Biso   1.000  H
  C36      1.0000 0.21322  0.64331  0.12740  Biso   1.000  C
  H59      1.0000 0.35940  0.67514  0.25231  Biso   1.000  H
  H60      1.0000 0.21321  0.70147  0.09099  Biso   1.000  H
  C37      1.0000 0.33589  0.51610  0.54202  Biso   1.000  C
  C38      1.0000 0.28957  0.48398  0.49653  Biso   1.000  C
  C39      1.0000 0.31546  0.63599  0.54182  Biso   1.000  C
  C40      1.0000 0.40492  0.43467  0.58742  Biso   1.000  C
  C41      1.0000 0.31068  0.37259  0.49628  Biso   1.000  C
  H61      1.0000 0.24271  0.53816  0.46491  Biso   1.000  H
  N9       1.0000 0.18662  0.69948  0.56889  Biso   1.000  N
  H62      1.0000 0.37553  0.64096  0.56819  Biso   1.000  H
  H63      1.0000 0.33634  0.67056  0.49528  Biso   1.000  H
  C42      1.0000 0.42715  0.32421  0.58762  Biso   1.000  C
  H64      1.0000 0.43760  0.45571  0.61898  Biso   1.000  H
  H65      1.0000 0.27641  0.35174  0.46521  Biso   1.000  H
  C43      1.0000 0.38055  0.29275  0.54082  Biso   1.000  C
  C44      1.0000 0.17807  0.81466  0.57279  Biso   1.000  C
  H66      1.0000 0.16375  0.66493  0.61089  Biso   1.000  H
  H67      1.0000 0.13096  0.70177  0.54212  Biso   1.000  H
  C45      1.0000 0.50740  0.23750  0.63492  Biso   1.000  C
  H68      1.0000 0.39682  0.21704  0.53963  Biso   1.000  H
  C46      1.0000 0.04617  0.88294  0.59961  Biso   1.000  C
  H69      1.0000 0.20436  0.85101  0.52759  Biso   1.000  H
  H70      1.0000 0.23770  0.81178  0.60190  Biso   1.000  H
  H71      1.0000 0.56741  0.17861  0.61019  Biso   1.000  H
  H72      1.0000 0.55766  0.27081  0.65220  Biso   1.000  H
  N10      1.0000 0.42980  0.18762  0.69270  Biso   1.000  N
  N11      1.0000 0.00432  0.84989  0.67072  Biso   1.000  N
  H73      1.0000 0.04297  0.96084  0.59251  Biso   1.000  H
  H74      1.0000 0.98561  0.87858  0.57339  Biso   1.000  H
  H75      1.0000 0.37699  0.16298  0.67682  Biso   1.000  H
  H76      1.0000 0.38022  0.24070  0.71852  Biso   1.000  H
  C47      1.0000 0.51230  0.09341  0.73530  Biso   1.000  C
  C48      1.0000 0.06043  0.89180  0.71293  Biso   1.000  C
  C49      1.0000 0.86662  0.88645  0.68581  Biso   1.000  C
  H77      1.0000 0.55973  0.12202  0.75792  Biso   1.000  H
  H78      1.0000 0.57482  0.04193  0.70638  Biso   1.000  H
  C50      1.0000 0.43619  0.03173  0.78739  Biso   1.000  C
  H79      1.0000 0.00871  0.96873  0.71762  Biso   1.000  H
  H80      1.0000 0.14680  0.89132  0.69090  Biso   1.000  H
  C51      1.0000 0.06779  0.82223  0.78190  Biso   1.000  C
  H81      1.0000 0.83244  0.95898  0.65839  Biso   1.000  H
  H82      1.0000 0.84075  0.89616  0.73340  Biso   1.000  H
  C52      1.0000 0.80976  0.80648  0.67262  Biso   1.000  C
  H83      1.0000 0.37960  0.01276  0.76521  Biso   1.000  H
  N12      1.0000 0.35939  0.09190  0.84148  Biso   1.000  N
  H84      1.0000 0.49528  0.96172  0.80682  Biso   1.000  H
  H85      1.0000 0.08901  0.86103  0.81141  Biso   1.000  H
  N13      1.0000 0.16495  0.70996  0.78030  Biso   1.000  N
  H86      1.0000 0.98367  0.81398  0.80112  Biso   1.000  H
  H87      1.0000 0.71667  0.84068  0.67592  Biso   1.000  H
  H88      1.0000 0.84349  0.78945  0.62663  Biso   1.000  H
  N14      1.0000 0.83978  0.70223  0.72142  Biso   1.000  N
  C53      1.0000 0.26039  0.04558  0.87639  Biso   1.000  C
  C54      1.0000 0.44187  0.08548  0.88952  Biso   1.000  C
  H89      1.0000 0.15346  0.66696  0.82100  Biso   1.000  H
  H90      1.0000 0.15140  0.67808  0.74848  Biso   1.000  H
  C55      1.0000 0.29864  0.71015  0.76551  Biso   1.000  C
  H91      1.0000 0.80793  0.71834  0.76402  Biso   1.000  H
  H92      1.0000 0.92638  0.67124  0.71862  Biso   1.000  H
  C56      1.0000 0.78507  0.62026  0.70908  Biso   1.000  C
  C57      1.0000 0.14987  0.07452  0.83948  Biso   1.000  C
  H93      1.0000 0.22856  0.07155  0.92019  Biso   1.000  H
  H94      1.0000 0.29788  0.96443  0.88503  Biso   1.000  H
  C58      1.0000 0.38813  0.17820  0.93042  Biso   1.000  C
  H95      1.0000 0.52595  0.08696  0.86460  Biso   1.000  H
  H96      1.0000 0.45438  0.01453  0.91999  Biso   1.000  H
  H97      1.0000 0.31496  0.74103  0.80092  Biso   1.000  H
  H98      1.0000 0.31045  0.75884  0.72261  Biso   1.000  H
  C59      1.0000 0.39409  0.59746  0.76112  Biso   1.000  C
  H99      1.0000 0.69624  0.65838  0.70149  Biso   1.000  H
  H100     1.0000 0.83379  0.58930  0.66828  Biso   1.000  H
  C60      1.0000 0.78859  0.52847  0.76671  Biso   1.000  C
  N15      1.0000 0.07985  0.19489  0.83039  Biso   1.000  N
  H101     1.0000 0.18118  0.05041  0.79508  Biso   1.000  H
  H102     1.0000 0.09097  0.03420  0.86460  Biso   1.000  H
  N16      1.0000 0.37208  0.28871  0.88832  Biso   1.000  N
  H103     1.0000 0.30496  0.17598  0.95599  Biso   1.000  H
  H104     1.0000 0.44536  0.16725  0.96279  Biso   1.000  H
  C61      1.0000 0.48506  0.58276  0.70409  Biso   1.000  C
  C62      1.0000 0.39734  0.51125  0.81281  Biso   1.000  C
  C63      1.0000 0.70395  0.54614  0.82579  Biso   1.000  C
  C64      1.0000 0.87182  0.42125  0.76122  Biso   1.000  C
  H105     1.0000 0.12865  0.23106  0.79953  Biso   1.000  H
  H106     1.0000 0.06600  0.22041  0.87019  Biso   1.000  H
  C65      1.0000 0.95503  0.22051  0.80742  Biso   1.000  C
  C66      1.0000 0.49491  0.31390  0.86450  Biso   1.000  C
  H107     1.0000 0.31687  0.34178  0.91259  Biso   1.000  H
  H108     1.0000 0.33664  0.29185  0.85181  Biso   1.000  H
  H109     1.0000 0.48440  0.64218  0.66848  Biso   1.000  H
  C67      1.0000 0.57551  0.48190  0.69979  Biso   1.000  C
  C68      1.0000 0.48744  0.40846  0.80782  Biso   1.000  C
  H110     1.0000 0.33742  0.52227  0.85241  Biso   1.000  H
  H111     1.0000 0.64598  0.61775  0.82999  Biso   1.000  H
  C69      1.0000 0.70342  0.46122  0.87818  Biso   1.000  C
  C70      1.0000 0.87113  0.33670  0.81341  Biso   1.000  C
  H112     1.0000 0.92900  0.40738  0.72102  Biso   1.000  H
  H113     1.0000 0.91114  0.16872  0.83448  Biso   1.000  H
  H114     1.0000 0.97045  0.20945  0.76032  Biso   1.000  H
  H115     1.0000 0.52058  0.33137  0.90241  Biso   1.000  H
  H116     1.0000 0.56150  0.24744  0.85002  Biso   1.000  H
  C71      1.0000 0.57756  0.39428  0.75128  Biso   1.000  C
  H117     1.0000 0.63771  0.47181  0.66099  Biso   1.000  H
  C72      1.0000 0.78682  0.35671  0.87259  Biso   1.000  C
  H118     1.0000 0.64553  0.47455  0.91829  Biso   1.000  H
  H119     1.0000 0.64075  0.32479  0.74769  Biso   1.000  H
  H120     1.0000 0.78695  0.29847  0.90900  Biso   1.000  H
