data_image0
_cell_length_a       10.471
_cell_length_b       19.57
_cell_length_c       26.936
_cell_angle_alpha    71.81
_cell_angle_beta     89.51
_cell_angle_gamma    81.7

_symmetry_space_group_name_H-M    "P 1"
_symmetry_int_tables_number       1

loop_
  _symmetry_equiv_pos_as_xyz
  'x, y, z'

loop_
  _atom_site_label
  _atom_site_occupancy
  _atom_site_fract_x
  _atom_site_fract_y
  _atom_site_fract_z
  _atom_site_thermal_displace_type
  _atom_site_B_iso_or_equiv
  _atom_site_type_symbol
  O1       1.0000 0.59963  0.57293  0.46741  Biso   1.000  O
  C1       1.0000 0.65139  0.54230  0.43081  Biso   1.000  C
  C2       1.0000 0.65965  0.53218  0.51411  Biso   1.000  C
  C3       1.0000 0.59547  0.57489  0.37668  Biso   1.000  C
  C4       1.0000 0.74024  0.48441  0.45349  Biso   1.000  C
  C5       1.0000 0.74694  0.47709  0.50781  Biso   1.000  C
  C6       1.0000 0.61302  0.54962  0.56150  Biso   1.000  C
  H1       1.0000 0.51059  0.60409  0.37782  Biso   1.000  H
  H2       1.0000 0.58037  0.53533  0.36299  Biso   1.000  H
  N1       1.0000 0.67788  0.62251  0.33969  Biso   1.000  N
  H3       1.0000 0.78950  0.45400  0.43660  Biso   1.000  H
  H4       1.0000 0.80125  0.44108  0.53421  Biso   1.000  H
  N2       1.0000 0.68310  0.60220  0.57730  Biso   1.000  N
  H5       1.0000 0.62047  0.50368  0.59099  Biso   1.000  H
  H6       1.0000 0.52033  0.57012  0.55560  Biso   1.000  H
  H7       1.0000 0.69797  0.65741  0.35330  Biso   1.000  H
  H8       1.0000 0.75370  0.59492  0.33558  Biso   1.000  H
  C7       1.0000 0.60906  0.65850  0.28760  Biso   1.000  C
  C8       1.0000 0.62772  0.61339  0.62650  Biso   1.000  C
  H9       1.0000 0.76963  0.58401  0.58301  Biso   1.000  H
  H10      1.0000 0.67447  0.64591  0.55091  Biso   1.000  H
  H11      1.0000 0.52225  0.68249  0.29260  Biso   1.000  H
  H12      1.0000 0.59765  0.62108  0.27101  Biso   1.000  H
  C9       1.0000 0.68251  0.71412  0.25201  Biso   1.000  C
  C10      1.0000 0.71070  0.64948  0.65321  Biso   1.000  C
  H13      1.0000 0.61561  0.56561  0.65122  Biso   1.000  H
  H14      1.0000 0.54166  0.64352  0.61770  Biso   1.000  H
  H15      1.0000 0.77352  0.69181  0.25201  Biso   1.000  H
  H16      1.0000 0.64559  0.72789  0.21591  Biso   1.000  H
  N3       1.0000 0.67909  0.78041  0.26742  Biso   1.000  N
  N4       1.0000 0.70414  0.72821  0.62810  Biso   1.000  N
  H17      1.0000 0.68411  0.64061  0.68982  Biso   1.000  H
  H18      1.0000 0.80161  0.62639  0.65431  Biso   1.000  H
  C11      1.0000 0.55541  0.82799  0.25271  Biso   1.000  C
  C12      1.0000 0.78673  0.81810  0.24309  Biso   1.000  C
  C13      1.0000 0.58060  0.76859  0.63909  Biso   1.000  C
  C14      1.0000 0.81222  0.75513  0.64648  Biso   1.000  C
  C15      1.0000 0.53447  0.88181  0.28388  Biso   1.000  C
  H19      1.0000 0.48471  0.79820  0.25909  Biso   1.000  H
  H20      1.0000 0.55297  0.85531  0.21490  Biso   1.000  H
  C16      1.0000 0.91143  0.78721  0.27571  Biso   1.000  C
  H21      1.0000 0.76533  0.87050  0.23899  Biso   1.000  H
  H22      1.0000 0.79900  0.81301  0.20782  Biso   1.000  H
  H23      1.0000 0.59063  0.77823  0.67269  Biso   1.000  H
  H24      1.0000 0.51130  0.73808  0.64261  Biso   1.000  H
  C17      1.0000 0.54196  0.84029  0.59580  Biso   1.000  C
  H25      1.0000 0.82368  0.73324  0.68489  Biso   1.000  H
  H26      1.0000 0.79160  0.80850  0.63851  Biso   1.000  H
  C18      1.0000 0.93620  0.73729  0.62149  Biso   1.000  C
  N5       1.0000 0.52557  0.84389  0.34192  Biso   1.000  N
  H27      1.0000 0.60681  0.91042  0.27821  Biso   1.000  H
  H28      1.0000 0.45381  0.91602  0.27070  Biso   1.000  H
  N6       1.0000 0.90894  0.80802  0.32487  Biso   1.000  N
  H29      1.0000 0.92502  0.73362  0.28490  Biso   1.000  H
  H30      1.0000 0.98479  0.80550  0.25490  Biso   1.000  H
  H31      1.0000 0.46145  0.86649  0.60472  Biso   1.000  H
  H32      1.0000 0.61057  0.87121  0.59252  Biso   1.000  H
  N7       1.0000 0.52131  0.82720  0.54481  Biso   1.000  N
  H33      1.0000 0.95882  0.68382  0.63088  Biso   1.000  H
  N8       1.0000 0.92682  0.76932  0.56381  Biso   1.000  N
  H34      1.0000 0.00644  0.75580  0.63550  Biso   1.000  H
  C19      1.0000 0.39626  0.82182  0.35650  Biso   1.000  C
  H35      1.0000 0.58749  0.80328  0.35201  Biso   1.000  H
  H36      1.0000 0.54314  0.87462  0.35998  Biso   1.000  H
  H37      1.0000 0.84459  0.78820  0.34540  Biso   1.000  H
  H38      1.0000 0.89075  0.85769  0.31650  Biso   1.000  H
  C20      1.0000 0.03612  0.78157  0.35502  Biso   1.000  C
  H39      1.0000 0.52447  0.86969  0.51802  Biso   1.000  H
  H40      1.0000 0.58777  0.79323  0.54089  Biso   1.000  H
  C21      1.0000 0.39610  0.80138  0.54019  Biso   1.000  C
  H41      1.0000 0.89913  0.81851  0.55501  Biso   1.000  H
  H42      1.0000 0.86647  0.74912  0.55059  Biso   1.000  H
  C22      1.0000 0.05369  0.75661  0.53960  Biso   1.000  C
  C23      1.0000 0.39083  0.78072  0.41250  Biso   1.000  C
  H43      1.0000 0.33024  0.86581  0.34778  Biso   1.000  H
  H44      1.0000 0.37468  0.79129  0.33539  Biso   1.000  H
  C24      1.0000 0.04475  0.81040  0.39929  Biso   1.000  C
  H45      1.0000 0.04880  0.72782  0.36859  Biso   1.000  H
  H46      1.0000 0.10659  0.79632  0.33108  Biso   1.000  H
  C25      1.0000 0.39092  0.77111  0.49580  Biso   1.000  C
  H47      1.0000 0.32505  0.84251  0.53518  Biso   1.000  H
  H48      1.0000 0.38261  0.76341  0.57320  Biso   1.000  H
  C26      1.0000 0.05204  0.79921  0.48290  Biso   1.000  C
  H49      1.0000 0.12185  0.77008  0.55841  Biso   1.000  H
  H50      1.0000 0.07570  0.70411  0.54371  Biso   1.000  H
  C27      1.0000 0.36448  0.71418  0.43832  Biso   1.000  C
  O2       1.0000 0.40749  0.81921  0.44672  Biso   1.000  O
  C28      1.0000 0.06808  0.87481  0.40269  Biso   1.000  C
  O3       1.0000 0.03408  0.76241  0.44860  Biso   1.000  O
  C29      1.0000 0.36352  0.70872  0.49228  Biso   1.000  C
  C30      1.0000 0.07242  0.86812  0.45662  Biso   1.000  C
  H51      1.0000 0.34919  0.67790  0.42349  Biso   1.000  H
  H52      1.0000 0.07930  0.91660  0.37441  Biso   1.000  H
  H53      1.0000 0.34667  0.66799  0.52048  Biso   1.000  H
  H54      1.0000 0.08670  0.90462  0.47140  Biso   1.000  H
  O4       1.0000 0.40022  0.42713  0.53256  Biso   1.000  O
  C31      1.0000 0.34022  0.46782  0.48591  Biso   1.000  C
  C32      1.0000 0.34857  0.45769  0.56921  Biso   1.000  C
  C33      1.0000 0.38683  0.45042  0.43851  Biso   1.000  C
  C34      1.0000 0.25293  0.52290  0.49221  Biso   1.000  C
  C35      1.0000 0.25962  0.51560  0.54649  Biso   1.000  C
  C36      1.0000 0.40440  0.42512  0.62329  Biso   1.000  C
  N9       1.0000 0.31677  0.39779  0.42271  Biso   1.000  N
  H55      1.0000 0.37949  0.49633  0.40899  Biso   1.000  H
  H56      1.0000 0.47954  0.42987  0.44442  Biso   1.000  H
  H57      1.0000 0.19862  0.55892  0.46581  Biso   1.000  H
  H58      1.0000 0.21046  0.54601  0.56338  Biso   1.000  H
  H59      1.0000 0.48937  0.39591  0.62220  Biso   1.000  H
  H60      1.0000 0.41948  0.46473  0.63698  Biso   1.000  H
  N10      1.0000 0.32207  0.37750  0.66029  Biso   1.000  N
  C37      1.0000 0.37215  0.38660  0.37351  Biso   1.000  C
  H61      1.0000 0.23023  0.41598  0.41700  Biso   1.000  H
  H62      1.0000 0.32549  0.35408  0.44911  Biso   1.000  H
  H63      1.0000 0.30190  0.34260  0.64668  Biso   1.000  H
  H64      1.0000 0.24626  0.40509  0.66440  Biso   1.000  H
  C38      1.0000 0.39080  0.34151  0.71238  Biso   1.000  C
  C39      1.0000 0.28917  0.35051  0.34680  Biso   1.000  C
  H65      1.0000 0.38425  0.43438  0.34880  Biso   1.000  H
  H66      1.0000 0.45830  0.35647  0.38231  Biso   1.000  H
  H67      1.0000 0.47761  0.31750  0.70741  Biso   1.000  H
  H68      1.0000 0.40222  0.37892  0.72900  Biso   1.000  H
  C40      1.0000 0.31744  0.28592  0.74801  Biso   1.000  C
  N11      1.0000 0.29572  0.27179  0.37191  Biso   1.000  N
  H69      1.0000 0.31575  0.35938  0.31020  Biso   1.000  H
  H70      1.0000 0.19825  0.37361  0.34571  Biso   1.000  H
  N12      1.0000 0.32088  0.21959  0.73260  Biso   1.000  N
  H71      1.0000 0.22635  0.30818  0.74801  Biso   1.000  H
  H72      1.0000 0.35428  0.27211  0.78410  Biso   1.000  H
  C41      1.0000 0.18763  0.24493  0.35349  Biso   1.000  C
  C42      1.0000 0.41926  0.23142  0.36088  Biso   1.000  C
  C43      1.0000 0.21313  0.18191  0.75688  Biso   1.000  C
  C44      1.0000 0.44456  0.17200  0.74730  Biso   1.000  C
  H73      1.0000 0.17616  0.26683  0.31509  Biso   1.000  H
  H74      1.0000 0.20827  0.19149  0.36151  Biso   1.000  H
  C45      1.0000 0.06366  0.26272  0.37848  Biso   1.000  C
  H75      1.0000 0.40923  0.22178  0.32729  Biso   1.000  H
  H76      1.0000 0.48856  0.26191  0.35740  Biso   1.000  H
  C46      1.0000 0.45800  0.15971  0.40421  Biso   1.000  C
  C47      1.0000 0.08844  0.21278  0.72431  Biso   1.000  C
  H77      1.0000 0.23454  0.12951  0.76099  Biso   1.000  H
  H78      1.0000 0.20095  0.18703  0.79220  Biso   1.000  H
  C48      1.0000 0.46549  0.11820  0.71610  Biso   1.000  C
  H79      1.0000 0.51525  0.20181  0.74089  Biso   1.000  H
  H80      1.0000 0.44689  0.14470  0.78508  Biso   1.000  H
  H81      1.0000 0.04104  0.31619  0.36910  Biso   1.000  H
  N13      1.0000 0.07303  0.23072  0.43620  Biso   1.000  N
  H82      1.0000 0.99352  0.24421  0.36448  Biso   1.000  H
  H83      1.0000 0.53852  0.13350  0.39530  Biso   1.000  H
  H84      1.0000 0.38939  0.12879  0.40750  Biso   1.000  H
  N14      1.0000 0.47856  0.17279  0.45521  Biso   1.000  N
  N15      1.0000 0.09093  0.19199  0.67511  Biso   1.000  N
  H85      1.0000 0.07484  0.26642  0.71512  Biso   1.000  H
  H86      1.0000 0.01518  0.19449  0.74511  Biso   1.000  H
  N16      1.0000 0.47430  0.15610  0.65810  Biso   1.000  N
  H87      1.0000 0.39304  0.08963  0.72181  Biso   1.000  H
  H88      1.0000 0.54604  0.08402  0.72931  Biso   1.000  H
  H89      1.0000 0.10073  0.18149  0.44500  Biso   1.000  H
  H90      1.0000 0.13348  0.25089  0.44938  Biso   1.000  H
  C49      1.0000 0.94617  0.24338  0.46041  Biso   1.000  C
  H91      1.0000 0.47549  0.13031  0.48200  Biso   1.000  H
  H92      1.0000 0.41218  0.20683  0.45908  Biso   1.000  H
  C50      1.0000 0.60376  0.19863  0.45979  Biso   1.000  C
  C51      1.0000 0.96374  0.21842  0.64500  Biso   1.000  C
  H93      1.0000 0.15537  0.21181  0.65458  Biso   1.000  H
  H94      1.0000 0.10911  0.14232  0.68348  Biso   1.000  H
  C52      1.0000 0.60360  0.17822  0.64351  Biso   1.000  C
  H95      1.0000 0.41247  0.19671  0.64801  Biso   1.000  H
  H96      1.0000 0.45672  0.12539  0.63999  Biso   1.000  H
  H97      1.0000 0.87802  0.22991  0.44160  Biso   1.000  H
  H98      1.0000 0.92417  0.29589  0.45631  Biso   1.000  H
  C53      1.0000 0.94782  0.20078  0.51712  Biso   1.000  C
  H99      1.0000 0.67491  0.15750  0.46479  Biso   1.000  H
  H100     1.0000 0.61726  0.23658  0.42682  Biso   1.000  H
  C54      1.0000 0.60894  0.22888  0.50421  Biso   1.000  C
  C55      1.0000 0.95511  0.18961  0.60069  Biso   1.000  C
  H101     1.0000 0.95107  0.27219  0.63139  Biso   1.000  H
  H102     1.0000 0.89337  0.20369  0.66889  Biso   1.000  H
  C56      1.0000 0.60903  0.21928  0.58751  Biso   1.000  C
  H103     1.0000 0.66962  0.13420  0.65219  Biso   1.000  H
  H104     1.0000 0.62528  0.20872  0.66459  Biso   1.000  H
  C57      1.0000 0.92743  0.13192  0.54340  Biso   1.000  C
  O5       1.0000 0.96589  0.23758  0.55141  Biso   1.000  O
  C58      1.0000 0.63634  0.29129  0.50769  Biso   1.000  C
  O6       1.0000 0.59247  0.18080  0.55325  Biso   1.000  O
  C59      1.0000 0.93188  0.12520  0.59729  Biso   1.000  C
  C60      1.0000 0.63549  0.28581  0.56170  Biso   1.000  C
  H105     1.0000 0.91316  0.09542  0.52861  Biso   1.000  H
  H106     1.0000 0.65329  0.33202  0.47950  Biso   1.000  H
  H107     1.0000 0.92057  0.08339  0.62560  Biso   1.000  H
  H108     1.0000 0.65077  0.32211  0.57648  Biso   1.000  H
  C61      1.0000 0.82947  0.30262  0.22870  Biso   1.000  C
  N17      1.0000 0.83171  0.22919  0.22420  Biso   1.000  N
  C62      1.0000 0.89489  0.35353  0.18619  Biso   1.000  C
  H109     1.0000 0.87139  0.29773  0.26268  Biso   1.000  H
  H110     1.0000 0.73841  0.32471  0.22909  Biso   1.000  H
  C63      1.0000 0.72359  0.19549  0.25181  Biso   1.000  C
  C64      1.0000 0.95661  0.18409  0.24411  Biso   1.000  C
  N18      1.0000 0.82234  0.37959  0.13449  Biso   1.000  N
  H111     1.0000 0.98156  0.32852  0.18208  Biso   1.000  H
  H112     1.0000 0.90685  0.39611  0.19698  Biso   1.000  H
  C65      1.0000 0.59738  0.22371  0.22068  Biso   1.000  C
  H113     1.0000 0.71514  0.20530  0.28572  Biso   1.000  H
  H114     1.0000 0.74267  0.14222  0.25920  Biso   1.000  H
  C66      1.0000 0.98415  0.12220  0.22029  Biso   1.000  C
  H115     1.0000 0.95569  0.16350  0.28259  Biso   1.000  H
  H116     1.0000 0.02619  0.21470  0.23539  Biso   1.000  H
  C67      1.0000 0.88823  0.43518  0.09530  Biso   1.000  C
  H117     1.0000 0.73934  0.39982  0.13840  Biso   1.000  H
  H118     1.0000 0.81769  0.34078  0.12248  Biso   1.000  H
  N19      1.0000 0.59774  0.19939  0.17270  Biso   1.000  N
  H119     1.0000 0.58253  0.27749  0.21001  Biso   1.000  H
  H120     1.0000 0.52592  0.20569  0.24301  Biso   1.000  H
  N20      1.0000 0.99417  0.15141  0.16198  Biso   1.000  N
  H121     1.0000 0.91401  0.09193  0.22858  Biso   1.000  H
  H122     1.0000 0.06598  0.09091  0.23590  Biso   1.000  H
  C68      1.0000 0.83584  0.46313  0.04130  Biso   1.000  C
  H123     1.0000 0.88787  0.47722  0.10841  Biso   1.000  H
  H124     1.0000 0.97961  0.41370  0.09472  Biso   1.000  H
  C69      1.0000 0.47010  0.22467  0.14251  Biso   1.000  C
  H125     1.0000 0.66215  0.21759  0.15150  Biso   1.000  H
  H126     1.0000 0.61501  0.14942  0.18259  Biso   1.000  H
  H127     1.0000 0.92900  0.18980  0.14869  Biso   1.000  H
  H128     1.0000 0.98263  0.11571  0.14759  Biso   1.000  H
  C70      1.0000 0.12212  0.17650  0.14591  Biso   1.000  C
  C71      1.0000 0.75043  0.52102  0.01459  Biso   1.000  C
  O7       1.0000 0.89343  0.43018  0.00680  Biso   1.000  O
  C72      1.0000 0.46251  0.19258  0.09980  Biso   1.000  C
  H129     1.0000 0.39948  0.21120  0.16660  Biso   1.000  H
  H130     1.0000 0.45738  0.27838  0.12749  Biso   1.000  H
  C73      1.0000 0.11981  0.21871  0.08928  Biso   1.000  C
  H131     1.0000 0.14325  0.20729  0.16679  Biso   1.000  H
  H132     1.0000 0.19061  0.13372  0.15342  Biso   1.000  H
  H133     1.0000 0.69708  0.55260  0.02941  Biso   1.000  H
  C74      1.0000 0.75286  0.52700  0.96109  Biso   1.000  C
  C75      1.0000 0.84039  0.47012  0.95749  Biso   1.000  C
  C76      1.0000 0.44017  0.12682  0.09879  Biso   1.000  C
  O8       1.0000 0.46927  0.23890  0.04959  Biso   1.000  O
  C77      1.0000 0.14321  0.28592  0.06371  Biso   1.000  C
  O9       1.0000 0.09795  0.18151  0.05459  Biso   1.000  O
  H134     1.0000 0.70372  0.56342  0.93317  Biso   1.000  H
  C78      1.0000 0.88940  0.44710  0.91338  Biso   1.000  C
  C79      1.0000 0.43352  0.13068  0.04540  Biso   1.000  C
  H135     1.0000 0.43082  0.08581  0.12812  Biso   1.000  H
  C80      1.0000 0.45019  0.19900  0.01682  Biso   1.000  C
  C81      1.0000 0.13670  0.29329  0.00880  Biso   1.000  C
  H136     1.0000 0.16054  0.32172  0.07868  Biso   1.000  H
  C82      1.0000 0.10776  0.23023  0.00540  Biso   1.000  C
  N21      1.0000 0.80188  0.40744  0.89367  Biso   1.000  N
  H137     1.0000 0.97351  0.41552  0.92409  Biso   1.000  H
  H138     1.0000 0.90443  0.49072  0.88448  Biso   1.000  H
  H139     1.0000 0.41994  0.09252  0.03219  Biso   1.000  H
  C83      1.0000 0.44517  0.23852  0.96007  Biso   1.000  C
  H140     1.0000 0.15010  0.33479  0.98049  Biso   1.000  H
  C84      1.0000 0.09807  0.20289  0.96078  Biso   1.000  C
  C85      1.0000 0.85147  0.39212  0.84588  Biso   1.000  C
  H141     1.0000 0.79404  0.36433  0.91917  Biso   1.000  H
  H142     1.0000 0.72112  0.43482  0.88620  Biso   1.000  H
  N22      1.0000 0.57200  0.22603  0.93489  Biso   1.000  N
  H143     1.0000 0.42086  0.29121  0.95448  Biso   1.000  H
  H144     1.0000 0.37738  0.22253  0.94279  Biso   1.000  H
  N23      1.0000 0.97133  0.17744  0.95628  Biso   1.000  N
  H145     1.0000 0.16871  0.16200  0.96418  Biso   1.000  H
  H146     1.0000 0.11000  0.24202  0.92808  Biso   1.000  H
  C86      1.0000 0.77356  0.34351  0.82879  Biso   1.000  C
  H147     1.0000 0.94253  0.36839  0.85280  Biso   1.000  H
  H148     1.0000 0.84949  0.43860  0.81729  Biso   1.000  H
  C87      1.0000 0.55979  0.25019  0.87689  Biso   1.000  C
  H149     1.0000 0.62995  0.25080  0.94498  Biso   1.000  H
  H150     1.0000 0.60466  0.17730  0.94677  Biso   1.000  H
  C88      1.0000 0.95373  0.16003  0.90618  Biso   1.000  C
  H151     1.0000 0.90528  0.21290  0.95819  Biso   1.000  H
  H152     1.0000 0.96571  0.13652  0.98420  Biso   1.000  H
  N24      1.0000 0.78912  0.26804  0.86477  Biso   1.000  N
  H153     1.0000 0.68102  0.36462  0.82597  Biso   1.000  H
  H154     1.0000 0.79989  0.34263  0.79359  Biso   1.000  H
  C89      1.0000 0.68570  0.23113  0.85268  Biso   1.000  C
  H155     1.0000 0.53280  0.30350  0.86387  Biso   1.000  H
  H156     1.0000 0.49188  0.22703  0.86598  Biso   1.000  H
  C90      1.0000 0.91725  0.22749  0.86019  Biso   1.000  C
  H157     1.0000 0.88569  0.12872  0.91037  Biso   1.000  H
  H158     1.0000 0.03522  0.13252  0.89918  Biso   1.000  H
  H159     1.0000 0.71308  0.17780  0.86590  Biso   1.000  H
  H160     1.0000 0.67183  0.24534  0.81428  Biso   1.000  H
  H161     1.0000 0.98347  0.25982  0.85710  Biso   1.000  H
  H162     1.0000 0.91642  0.21372  0.82789  Biso   1.000  H
  C91      1.0000 0.17038  0.69742  0.77132  Biso   1.000  C
  C92      1.0000 0.10496  0.64653  0.81379  Biso   1.000  C
  H163     1.0000 0.12855  0.70233  0.73729  Biso   1.000  H
  H164     1.0000 0.26155  0.67530  0.77089  Biso   1.000  H
  N25      1.0000 0.16825  0.77080  0.77581  Biso   1.000  N
  N26      1.0000 0.17762  0.62042  0.86549  Biso   1.000  N
  H165     1.0000 0.01830  0.67149  0.81789  Biso   1.000  H
  H166     1.0000 0.09302  0.60390  0.80299  Biso   1.000  H
  C93      1.0000 0.27628  0.80450  0.74820  Biso   1.000  C
  C94      1.0000 0.04335  0.81590  0.75591  Biso   1.000  C
  C95      1.0000 0.11174  0.56481  0.90471  Biso   1.000  C
  H167     1.0000 0.26052  0.60022  0.86161  Biso   1.000  H
  H168     1.0000 0.18217  0.65923  0.87749  Biso   1.000  H
  C96      1.0000 0.40248  0.77630  0.77929  Biso   1.000  C
  H169     1.0000 0.28473  0.79469  0.71430  Biso   1.000  H
  H170     1.0000 0.25718  0.85782  0.74081  Biso   1.000  H
  C97      1.0000 0.01571  0.87781  0.77968  Biso   1.000  C
  H171     1.0000 0.04418  0.83651  0.71739  Biso   1.000  H
  H172     1.0000 0.97377  0.78531  0.76459  Biso   1.000  H
  C98      1.0000 0.16401  0.53692  0.95872  Biso   1.000  C
  H173     1.0000 0.11199  0.52282  0.89161  Biso   1.000  H
  H174     1.0000 0.02026  0.58629  0.90530  Biso   1.000  H
  N27      1.0000 0.40222  0.80060  0.82732  Biso   1.000  N
  H175     1.0000 0.41743  0.72251  0.79001  Biso   1.000  H
  H176     1.0000 0.47404  0.79431  0.75700  Biso   1.000  H
  N28      1.0000 0.00569  0.84860  0.83799  Biso   1.000  N
  H177     1.0000 0.08593  0.90813  0.77139  Biso   1.000  H
  H178     1.0000 0.93389  0.90910  0.76408  Biso   1.000  H
  C99      1.0000 0.24953  0.47899  0.98539  Biso   1.000  C
  O10      1.0000 0.10653  0.56981  0.99321  Biso   1.000  O
  C100     1.0000 0.52976  0.77532  0.85751  Biso   1.000  C
  H179     1.0000 0.33772  0.78240  0.84851  Biso   1.000  H
  H180     1.0000 0.38494  0.85059  0.81738  Biso   1.000  H
  H181     1.0000 0.07086  0.81021  0.85129  Biso   1.000  H
  H182     1.0000 0.01733  0.88430  0.85238  Biso   1.000  H
  C101     1.0000 0.87784  0.82349  0.85411  Biso   1.000  C
  H183     1.0000 0.30279  0.44739  0.97061  Biso   1.000  H
  C102     1.0000 0.24701  0.47299  0.03893  Biso   1.000  C
  C103     1.0000 0.15958  0.52988  0.04253  Biso   1.000  C
  C104     1.0000 0.53735  0.80741  0.90021  Biso   1.000  C
  H184     1.0000 0.60039  0.78879  0.83342  Biso   1.000  H
  H185     1.0000 0.54249  0.72163  0.87249  Biso   1.000  H
  C105     1.0000 0.88015  0.78130  0.91069  Biso   1.000  C
  H186     1.0000 0.85661  0.79272  0.83318  Biso   1.000  H
  H187     1.0000 0.80934  0.86633  0.84660  Biso   1.000  H
  H188     1.0000 0.29614  0.43659  0.06681  Biso   1.000  H
  C106     1.0000 0.11056  0.55291  0.08660  Biso   1.000  C
  C107     1.0000 0.55970  0.87319  0.90119  Biso   1.000  C
  O11      1.0000 0.53060  0.76109  0.95043  Biso   1.000  O
  C108     1.0000 0.85673  0.71413  0.93631  Biso   1.000  C
  O12      1.0000 0.90191  0.81850  0.94538  Biso   1.000  O
  N29      1.0000 0.19808  0.59257  0.10631  Biso   1.000  N
  H189     1.0000 0.02636  0.58448  0.07592  Biso   1.000  H
  H190     1.0000 0.09543  0.50929  0.11550  Biso   1.000  H
  C109     1.0000 0.56635  0.86931  0.95461  Biso   1.000  C
  H191     1.0000 0.56915  0.91419  0.87190  Biso   1.000  H
  C110     1.0000 0.54968  0.80099  0.98320  Biso   1.000  C
  C111     1.0000 0.86316  0.70671  0.99122  Biso   1.000  C
  H192     1.0000 0.83932  0.67829  0.92129  Biso   1.000  H
  C112     1.0000 0.89209  0.76984  0.99458  Biso   1.000  C
  C113     1.0000 0.14839  0.60789  0.15410  Biso   1.000  C
  H193     1.0000 0.20582  0.63568  0.08081  Biso   1.000  H
  H194     1.0000 0.27875  0.56518  0.11382  Biso   1.000  H
  H195     1.0000 0.58002  0.90749  0.96779  Biso   1.000  H
  C114     1.0000 0.55479  0.76149  0.03990  Biso   1.000  C
  H196     1.0000 0.84977  0.66521  0.01953  Biso   1.000  H
  C115     1.0000 0.90189  0.79712  0.03920  Biso   1.000  C
  C116     1.0000 0.22630  0.65648  0.17123  Biso   1.000  C
  H197     1.0000 0.05734  0.63160  0.14722  Biso   1.000  H
  H198     1.0000 0.15047  0.56140  0.18273  Biso   1.000  H
  N30      1.0000 0.42785  0.77401  0.06513  Biso   1.000  N
  H199     1.0000 0.57901  0.70880  0.04550  Biso   1.000  H
  H200     1.0000 0.62258  0.77746  0.05723  Biso   1.000  H
  H201     1.0000 0.83115  0.83801  0.03580  Biso   1.000  H
  H202     1.0000 0.88986  0.75797  0.07193  Biso   1.000  H
  N31      1.0000 0.02852  0.82263  0.04370  Biso   1.000  N
  N32      1.0000 0.21072  0.73202  0.13521  Biso   1.000  N
  H203     1.0000 0.31884  0.63539  0.17400  Biso   1.000  H
  H204     1.0000 0.20006  0.65741  0.20642  Biso   1.000  H
  C117     1.0000 0.44017  0.74980  0.12313  Biso   1.000  C
  H205     1.0000 0.36992  0.74921  0.05500  Biso   1.000  H
  H206     1.0000 0.39521  0.82271  0.05320  Biso   1.000  H
  C118     1.0000 0.04612  0.84001  0.09383  Biso   1.000  C
  H207     1.0000 0.09468  0.78709  0.04182  Biso   1.000  H
  H208     1.0000 0.03416  0.86347  0.01581  Biso   1.000  H
  C119     1.0000 0.31425  0.76891  0.14733  Biso   1.000  C
  C120     1.0000 0.08262  0.77250  0.13982  Biso   1.000  C
  H209     1.0000 0.46716  0.69651  0.13611  Biso   1.000  H
  H210     1.0000 0.50808  0.77298  0.13400  Biso   1.000  H
  H211     1.0000 0.96464  0.86747  0.10083  Biso   1.000  H
  H212     1.0000 0.11427  0.87129  0.08961  Biso   1.000  H
  H213     1.0000 0.28679  0.82220  0.13411  Biso   1.000  H
  H214     1.0000 0.32802  0.75473  0.18570  Biso   1.000  H
  H215     1.0000 0.01638  0.74022  0.14291  Biso   1.000  H
  H216     1.0000 0.08344  0.78627  0.17213  Biso   1.000  H
  Ne1      1.0000 0.30280  0.27119  0.54788  Biso   1.000  Ne
  He1      1.0000 0.27931  0.20773  0.55436  Biso   1.000  He
  He2      1.0000 0.18287  0.32787  0.56239  Biso   1.000  He
  He3      1.0000 0.45191  0.29588  0.62528  Biso   1.000  He
  He4      1.0000 0.44380  0.29274  0.44431  Biso   1.000  He
  Ar1      1.0000 0.26722  0.26735  0.55164  Biso   1.000  Ar
  Ne2      1.0000 0.80407  0.27353  0.03914  Biso   1.000  Ne
  He5      1.0000 0.78009  0.13245  0.06758  Biso   1.000  He
  He6      1.0000 0.67523  0.33852  0.03176  Biso   1.000  He
  He7      1.0000 0.99348  0.29723  0.12729  Biso   1.000  He
  He8      1.0000 0.00290  0.32622  0.91858  Biso   1.000  He
  Ar2      1.0000 0.78288  0.26714  0.04336  Biso   1.000  Ar
  Ne3      1.0000 0.69710  0.72882  0.45212  Biso   1.000  Ne
  He9      1.0000 0.04887  0.56645  0.50595  Biso   1.000  He
  He10     1.0000 0.72060  0.77425  0.45305  Biso   1.000  He
  Ar3      1.0000 0.73252  0.73252  0.44853  Biso   1.000  Ar
  Ne4      1.0000 0.19583  0.72648  0.96086  Biso   1.000  Ne
  He11     1.0000 0.31874  0.66501  0.98959  Biso   1.000  He
  He12     1.0000 0.99380  0.67340  0.08189  Biso   1.000  He
  He13     1.0000 0.22042  0.87159  0.93174  Biso   1.000  He
  He14     1.0000 0.89524  0.69865  0.85431  Biso   1.000  He
  Ar4      1.0000 0.21695  0.73290  0.95659  Biso   1.000  Ar
