data_image0
_cell_length_a       21.015
_cell_length_b       21.015
_cell_length_c       10.491
_cell_angle_alpha    90
_cell_angle_beta     90
_cell_angle_gamma    120

_symmetry_space_group_name_H-M    "P 1"
_symmetry_int_tables_number       1

loop_
  _symmetry_equiv_pos_as_xyz
  'x, y, z'

loop_
  _atom_site_label
  _atom_site_occupancy
  _atom_site_fract_x
  _atom_site_fract_y
  _atom_site_fract_z
  _atom_site_thermal_displace_type
  _atom_site_B_iso_or_equiv
  _atom_site_type_symbol
  C1       1.0000 0.60290  0.49935  0.54285  Biso   1.000  C
  C2       1.0000 0.61756  0.48622  0.41798  Biso   1.000  C
  C3       1.0000 0.66014  0.53941  0.62673  Biso   1.000  C
  H1       1.0000 0.55354  0.48067  0.56992  Biso   1.000  H
  C4       1.0000 0.55837  0.44474  0.32399  Biso   1.000  C
  C5       1.0000 0.68949  0.51331  0.37918  Biso   1.000  C
  C6       1.0000 0.73266  0.56606  0.58641  Biso   1.000  C
  C7       1.0000 0.64654  0.55732  0.75665  Biso   1.000  C
  N1       1.0000 0.49098  0.41913  0.34715  Biso   1.000  N
  H2       1.0000 0.57194  0.43704  0.24145  Biso   1.000  H
  C8       1.0000 0.74768  0.55375  0.46278  Biso   1.000  C
  H3       1.0000 0.69933  0.50424  0.29473  Biso   1.000  H
  H4       1.0000 0.77205  0.59287  0.64417  Biso   1.000  H
  N2       1.0000 0.69871  0.60265  0.82595  Biso   1.000  N
  H5       1.0000 0.59775  0.53435  0.78849  Biso   1.000  H
  C9       1.0000 0.44045  0.38144  0.24173  Biso   1.000  C
  C10      1.0000 0.82466  0.58578  0.42217  Biso   1.000  C
  C11      1.0000 0.68079  0.61754  0.95244  Biso   1.000  C
  C12      1.0000 0.38225  0.30407  0.28196  Biso   1.000  C
  H6       1.0000 0.46824  0.37869  0.16776  Biso   1.000  H
  H7       1.0000 0.41635  0.40957  0.21571  Biso   1.000  H
  N3       1.0000 0.84323  0.58326  0.30874  Biso   1.000  N
  H8       1.0000 0.86214  0.60936  0.48442  Biso   1.000  H
  H9       1.0000 0.62692  0.58947  0.96521  Biso   1.000  H
  H10      1.0000 0.69745  0.67057  0.96073  Biso   1.000  H
  C13      1.0000 0.71817  0.59551  0.05290  Biso   1.000  C
  N4       1.0000 0.41672  0.25995  0.30874  Biso   1.000  N
  H11      1.0000 0.35652  0.30666  0.35897  Biso   1.000  H
  H12      1.0000 0.34562  0.28078  0.21294  Biso   1.000  H
  C14      1.0000 0.92180  0.61771  0.28196  Biso   1.000  C
  N5       1.0000 0.68443  0.51622  0.05252  Biso   1.000  N
  H13      1.0000 0.77123  0.61826  0.03384  Biso   1.000  H
  H14      1.0000 0.71261  0.61265  0.13783  Biso   1.000  H
  C15      1.0000 0.41422  0.23885  0.42217  Biso   1.000  C
  H15      1.0000 0.95015  0.64348  0.35897  Biso   1.000  H
  H16      1.0000 0.93513  0.65436  0.21294  Biso   1.000  H
  C16      1.0000 0.94100  0.55952  0.24173  Biso   1.000  C
  C17      1.0000 0.72497  0.48919  0.02888  Biso   1.000  C
  C18      1.0000 0.44623  0.19391  0.46278  Biso   1.000  C
  H17      1.0000 0.39062  0.25275  0.48442  Biso   1.000  H
  N6       1.0000 0.92813  0.50902  0.34715  Biso   1.000  N
  H18      1.0000 0.91043  0.53177  0.16776  Biso   1.000  H
  H19      1.0000 0.99322  0.58364  0.21571  Biso   1.000  H
  C19      1.0000 0.69489  0.40897  0.02488  Biso   1.000  C
  H20      1.0000 0.77583  0.52117  0.01344  Biso   1.000  H
  C20      1.0000 0.43391  0.16660  0.58641  Biso   1.000  C
  C21      1.0000 0.48670  0.17616  0.37918  Biso   1.000  C
  C22      1.0000 0.88640  0.44166  0.32399  Biso   1.000  C
  C23      1.0000 0.61919  0.36111  0.02450  Biso   1.000  C
  C24      1.0000 0.74193  0.38083  0.02450  Biso   1.000  C
  C25      1.0000 0.46060  0.12072  0.62673  Biso   1.000  C
  H21      1.0000 0.40713  0.17918  0.64417  Biso   1.000  H
  H22      1.0000 0.49572  0.19506  0.29473  Biso   1.000  H
  C26      1.0000 0.51377  0.13132  0.41798  Biso   1.000  C
  C27      1.0000 0.86868  0.38243  0.41798  Biso   1.000  C
  H23      1.0000 0.86515  0.42809  0.24145  Biso   1.000  H
  C28      1.0000 0.59108  0.28594  0.02488  Biso   1.000  C
  H24      1.0000 0.58676  0.38028  0.02383  Biso   1.000  H
  C29      1.0000 0.71406  0.30512  0.02488  Biso   1.000  C
  H25      1.0000 0.79354  0.41325  0.02383  Biso   1.000  H
  C30      1.0000 0.44267  0.08923  0.75665  Biso   1.000  C
  C31      1.0000 0.50066  0.10357  0.54285  Biso   1.000  C
  C32      1.0000 0.55527  0.11363  0.32399  Biso   1.000  C
  C33      1.0000 0.82385  0.31056  0.37918  Biso   1.000  C
  C34      1.0000 0.89648  0.39710  0.54285  Biso   1.000  C
  C35      1.0000 0.51080  0.23578  0.02888  Biso   1.000  C
  C36      1.0000 0.63892  0.25808  0.02450  Biso   1.000  C
  C37      1.0000 0.76423  0.27506  0.02888  Biso   1.000  C
  N7       1.0000 0.39735  0.09605  0.82595  Biso   1.000  N
  H26      1.0000 0.46560  0.06335  0.78849  Biso   1.000  H
  H27      1.0000 0.51932  0.07286  0.56992  Biso   1.000  H
  N8       1.0000 0.58088  0.07187  0.34715  Biso   1.000  N
  H28      1.0000 0.56295  0.13489  0.24145  Biso   1.000  H
  C38      1.0000 0.80610  0.25231  0.46278  Biso   1.000  C
  H29      1.0000 0.80491  0.30067  0.29473  Biso   1.000  H
  C39      1.0000 0.87930  0.33990  0.62673  Biso   1.000  C
  H30      1.0000 0.92710  0.44644  0.56992  Biso   1.000  H
  N9       1.0000 0.48381  0.16819  0.05252  Biso   1.000  N
  H31      1.0000 0.47885  0.25468  0.01344  Biso   1.000  H
  H32      1.0000 0.61973  0.20649  0.02383  Biso   1.000  H
  N10      1.0000 0.83180  0.31561  0.05252  Biso   1.000  N
  H33      1.0000 0.74535  0.22418  0.01344  Biso   1.000  H
  C40      1.0000 0.38249  0.06330  0.95244  Biso   1.000  C
  C41      1.0000 0.61856  0.05901  0.24173  Biso   1.000  C
  C42      1.0000 0.76114  0.17533  0.42217  Biso   1.000  C
  C43      1.0000 0.83340  0.26731  0.58641  Biso   1.000  C
  C44      1.0000 0.91078  0.35347  0.75665  Biso   1.000  C
  C45      1.0000 0.40446  0.12264  0.05290  Biso   1.000  C
  C46      1.0000 0.87734  0.28182  0.05290  Biso   1.000  C
  H34      1.0000 0.41055  0.03747  0.96521  Biso   1.000  H
  H35      1.0000 0.32945  0.02687  0.96073  Biso   1.000  H
  C47      1.0000 0.69591  0.07819  0.28196  Biso   1.000  C
  H36      1.0000 0.62132  0.08956  0.16776  Biso   1.000  H
  H37      1.0000 0.59044  0.00676  0.21571  Biso   1.000  H
  N11      1.0000 0.74005  0.15676  0.30874  Biso   1.000  N
  H38      1.0000 0.74721  0.13786  0.48442  Biso   1.000  H
  H39      1.0000 0.82081  0.22797  0.64417  Biso   1.000  H
  N12      1.0000 0.90395  0.30127  0.82595  Biso   1.000  N
  H40      1.0000 0.93665  0.40226  0.78849  Biso   1.000  H
  H41      1.0000 0.38174  0.15297  0.03384  Biso   1.000  H
  H42      1.0000 0.38730  0.09995  0.13783  Biso   1.000  H
  C48      1.0000 0.93670  0.31918  0.95244  Biso   1.000  C
  H43      1.0000 0.84704  0.22874  0.03384  Biso   1.000  H
  H44      1.0000 0.90005  0.28737  0.13783  Biso   1.000  H
  H45      1.0000 0.69333  0.04989  0.35897  Biso   1.000  H
  H46      1.0000 0.71924  0.06489  0.21294  Biso   1.000  H
  H47      1.0000 0.96256  0.37309  0.96521  Biso   1.000  H
  H48      1.0000 0.97314  0.30259  0.96073  Biso   1.000  H
  C49      1.0000 0.36257  0.41155  0.61529  Biso   1.000  C
  C50      1.0000 0.28522  0.39237  0.57516  Biso   1.000  C
  N13      1.0000 0.40671  0.49012  0.64207  Biso   1.000  N
  H49      1.0000 0.36000  0.38320  0.69231  Biso   1.000  H
  H50      1.0000 0.38592  0.39820  0.54628  Biso   1.000  H
  N14      1.0000 0.24756  0.40518  0.68049  Biso   1.000  N
  H51      1.0000 0.28803  0.42292  0.50110  Biso   1.000  H
  H52      1.0000 0.25709  0.34012  0.54904  Biso   1.000  H
  C51      1.0000 0.42779  0.50869  0.75550  Biso   1.000  C
  C52      1.0000 0.22190  0.44693  0.65733  Biso   1.000  C
  C53      1.0000 0.47273  0.58562  0.79611  Biso   1.000  C
  H53      1.0000 0.41391  0.47122  0.81775  Biso   1.000  H
  C54      1.0000 0.18047  0.46468  0.75131  Biso   1.000  C
  H54      1.0000 0.22958  0.46820  0.57478  Biso   1.000  H
  C55      1.0000 0.50010  0.60068  0.91974  Biso   1.000  C
  C56      1.0000 0.49048  0.64386  0.71252  Biso   1.000  C
  C57      1.0000 0.15336  0.50952  0.71252  Biso   1.000  C
  C58      1.0000 0.16729  0.43688  0.87618  Biso   1.000  C
  C59      1.0000 0.54593  0.67320  0.96006  Biso   1.000  C
  H55      1.0000 0.48749  0.56128  0.97750  Biso   1.000  H
  H56      1.0000 0.47159  0.63397  0.62816  Biso   1.000  H
  C60      1.0000 0.53534  0.71579  0.75131  Biso   1.000  C
  C61      1.0000 0.11288  0.52727  0.79611  Biso   1.000  C
  H57      1.0000 0.16243  0.52842  0.62816  Biso   1.000  H
  C62      1.0000 0.12727  0.45402  0.96006  Biso   1.000  C
  H58      1.0000 0.18603  0.40622  0.90325  Biso   1.000  H
  C63      1.0000 0.56311  0.73040  0.87618  Biso   1.000  C
  C64      1.0000 0.57746  0.68678  0.08989  Biso   1.000  C
  C65      1.0000 0.55303  0.77497  0.65733  Biso   1.000  C
  C66      1.0000 0.10058  0.49990  0.91974  Biso   1.000  C
  C67      1.0000 0.08087  0.57221  0.75550  Biso   1.000  C
  C68      1.0000 0.10934  0.42254  0.08989  Biso   1.000  C
  H59      1.0000 0.59380  0.77980  0.90325  Biso   1.000  H
  N15      1.0000 0.57066  0.63463  0.15928  Biso   1.000  N
  H60      1.0000 0.60331  0.73562  0.12182  Biso   1.000  H
  N16      1.0000 0.59483  0.84238  0.68049  Biso   1.000  N
  H61      1.0000 0.53178  0.76139  0.57478  Biso   1.000  H
  H62      1.0000 0.07380  0.51249  0.97750  Biso   1.000  H
  N17      1.0000 0.08338  0.59331  0.64207  Biso   1.000  N
  H63      1.0000 0.05732  0.58611  0.81775  Biso   1.000  H
  N18      1.0000 0.06397  0.42935  0.15928  Biso   1.000  N
  H64      1.0000 0.13231  0.39671  0.12182  Biso   1.000  H
  C69      1.0000 0.60341  0.65254  0.28577  Biso   1.000  C
  C70      1.0000 0.60766  0.89288  0.57516  Biso   1.000  C
  C71      1.0000 0.04896  0.63743  0.61529  Biso   1.000  C
  C72      1.0000 0.04912  0.39660  0.28577  Biso   1.000  C
  C73      1.0000 0.54404  0.61518  0.38624  Biso   1.000  C
  H65      1.0000 0.62919  0.70639  0.29854  Biso   1.000  H
  H66      1.0000 0.63981  0.63590  0.29397  Biso   1.000  H
  C74      1.0000 0.58850  0.95107  0.61529  Biso   1.000  C
  H67      1.0000 0.57710  0.86508  0.50110  Biso   1.000  H
  H68      1.0000 0.65988  0.91700  0.54904  Biso   1.000  H
  H69      1.0000 0.02322  0.64002  0.69231  Biso   1.000  H
  H70      1.0000 0.01230  0.61408  0.54628  Biso   1.000  H
  C75      1.0000 0.10715  0.71480  0.57516  Biso   1.000  C
  H71      1.0000 0.99608  0.36017  0.29397  Biso   1.000  H
  C76      1.0000 0.07116  0.45600  0.38624  Biso   1.000  C
  H72      1.0000 0.07718  0.37078  0.29854  Biso   1.000  H
  N19      1.0000 0.49843  0.64892  0.38585  Biso   1.000  N
  H73      1.0000 0.51369  0.56210  0.36717  Biso   1.000  H
  H74      1.0000 0.56668  0.62068  0.47126  Biso   1.000  H
  N20      1.0000 0.50989  0.91662  0.64207  Biso   1.000  N
  H75      1.0000 0.61678  0.97678  0.69231  Biso   1.000  H
  H76      1.0000 0.60183  0.98772  0.54628  Biso   1.000  H
  N21      1.0000 0.15761  0.75244  0.68049  Biso   1.000  N
  H77      1.0000 0.13492  0.71200  0.50110  Biso   1.000  H
  H78      1.0000 0.08298  0.74288  0.54904  Biso   1.000  H
  N22      1.0000 0.15047  0.50155  0.38585  Biso   1.000  N
  H79      1.0000 0.04837  0.48628  0.36717  Biso   1.000  H
  H80      1.0000 0.05401  0.43331  0.47126  Biso   1.000  H
  C77      1.0000 0.43090  0.60837  0.36222  Biso   1.000  C
  C78      1.0000 0.49133  0.91909  0.75550  Biso   1.000  C
  C79      1.0000 0.22502  0.77810  0.65733  Biso   1.000  C
  C80      1.0000 0.17747  0.56908  0.36222  Biso   1.000  C
  C81      1.0000 0.38077  0.63848  0.35821  Biso   1.000  C
  H81      1.0000 0.41198  0.55749  0.34677  Biso   1.000  H
  C82      1.0000 0.41439  0.88711  0.79611  Biso   1.000  C
  H82      1.0000 0.52879  0.94272  0.81775  Biso   1.000  H
  C83      1.0000 0.28421  0.81958  0.75131  Biso   1.000  C
  H83      1.0000 0.23859  0.77040  0.57478  Biso   1.000  H
  C84      1.0000 0.25771  0.61925  0.35821  Biso   1.000  C
  H84      1.0000 0.14548  0.58798  0.34677  Biso   1.000  H
  C85      1.0000 0.30554  0.59139  0.35783  Biso   1.000  C
  C86      1.0000 0.40856  0.71414  0.35783  Biso   1.000  C
  C87      1.0000 0.35612  0.84662  0.71252  Biso   1.000  C
  C88      1.0000 0.39932  0.89942  0.91974  Biso   1.000  C
  C89      1.0000 0.26960  0.83271  0.87618  Biso   1.000  C
  C90      1.0000 0.28582  0.69441  0.35783  Biso   1.000  C
  H85      1.0000 0.28641  0.53979  0.35716  Biso   1.000  H
  C91      1.0000 0.36152  0.74227  0.35821  Biso   1.000  C
  H86      1.0000 0.46020  0.74661  0.35716  Biso   1.000  H
  H87      1.0000 0.36598  0.83760  0.62816  Biso   1.000  H
  C92      1.0000 0.32677  0.87272  0.96006  Biso   1.000  C
  H88      1.0000 0.43868  0.92618  0.97750  Biso   1.000  H
  H89      1.0000 0.22017  0.81398  0.90325  Biso   1.000  H
  H90      1.0000 0.25339  0.71359  0.35716  Biso   1.000  H
  C93      1.0000 0.39159  0.82249  0.36222  Biso   1.000  C
  C94      1.0000 0.31320  0.89068  0.08989  Biso   1.000  C
  N23      1.0000 0.35110  0.84953  0.38585  Biso   1.000  N
  H91      1.0000 0.44246  0.85447  0.34677  Biso   1.000  H
  N24      1.0000 0.36537  0.93601  0.15928  Biso   1.000  N
  H92      1.0000 0.26441  0.86772  0.12182  Biso   1.000  H
  C95      1.0000 0.38483  0.92887  0.38624  Biso   1.000  C
  C96      1.0000 0.34747  0.95085  0.28577  Biso   1.000  C
  H93      1.0000 0.43793  0.95162  0.36717  Biso   1.000  H
  H94      1.0000 0.37931  0.94601  0.47126  Biso   1.000  H
  H95      1.0000 0.29363  0.92283  0.29854  Biso   1.000  H
  H96      1.0000 0.36411  0.00393  0.29397  Biso   1.000  H
  C97      1.0000 0.01414  0.28418  0.61910  Biso   1.000  C
  N25      1.0000 0.03203  0.26935  0.49261  Biso   1.000  N
  H97      1.0000 0.96030  0.25616  0.63187  Biso   1.000  H
  C98      1.0000 0.05149  0.26220  0.71957  Biso   1.000  C
  H98      1.0000 0.03075  0.33721  0.62739  Biso   1.000  H
  C99      1.0000 0.97986  0.22402  0.42322  Biso   1.000  C
  N26      1.0000 0.01777  0.18286  0.71919  Biso   1.000  N
  H99      1.0000 0.10460  0.28495  0.70060  Biso   1.000  H
  H100     1.0000 0.04598  0.27935  0.80459  Biso   1.000  H
  C100     1.0000 0.99344  0.20605  0.29339  Biso   1.000  C
  H101     1.0000 0.93107  0.20105  0.45515  Biso   1.000  H
  C101     1.0000 0.05826  0.15583  0.69555  Biso   1.000  C
  C102     1.0000 0.93627  0.16605  0.20951  Biso   1.000  C
  C103     1.0000 0.06598  0.23275  0.25307  Biso   1.000  C
  C104     1.0000 0.02819  0.07561  0.69155  Biso   1.000  C
  H102     1.0000 0.10913  0.18781  0.68011  Biso   1.000  H
  C105     1.0000 0.95088  0.15292  0.08464  Biso   1.000  C
  H103     1.0000 0.88684  0.14731  0.23658  Biso   1.000  H
  C106     1.0000 0.08105  0.22045  0.12944  Biso   1.000  C
  H104     1.0000 0.10535  0.25951  0.31084  Biso   1.000  H
  C107     1.0000 0.95249  0.02775  0.69116  Biso   1.000  C
  C108     1.0000 0.07522  0.04747  0.69116  Biso   1.000  C
  C109     1.0000 0.89169  0.11143  0.99066  Biso   1.000  C
  C110     1.0000 0.02278  0.17995  0.04585  Biso   1.000  C
  C111     1.0000 0.15800  0.25242  0.08884  Biso   1.000  C
  H105     1.0000 0.92006  0.04692  0.69059  Biso   1.000  H
  C112     1.0000 0.92438  0.95258  0.69155  Biso   1.000  C
  C113     1.0000 0.04741  0.97176  0.69155  Biso   1.000  C
  H106     1.0000 0.12686  0.07995  0.69059  Biso   1.000  H
  N27      1.0000 0.82428  0.08577  0.01382  Biso   1.000  N
  H107     1.0000 0.90526  0.10374  0.90811  Biso   1.000  H
  H108     1.0000 0.03265  0.17094  0.96149  Biso   1.000  H
  N28      1.0000 0.17656  0.24995  0.97541  Biso   1.000  N
  H109     1.0000 0.19546  0.27605  0.15108  Biso   1.000  H
  C114     1.0000 0.84414  0.90242  0.69555  Biso   1.000  C
  C115     1.0000 0.97226  0.92472  0.69116  Biso   1.000  C
  C116     1.0000 0.09752  0.94170  0.69555  Biso   1.000  C
  C117     1.0000 0.77382  0.04813  0.90849  Biso   1.000  C
  C118     1.0000 0.25517  0.28440  0.94862  Biso   1.000  C
  N29      1.0000 0.81711  0.83483  0.71919  Biso   1.000  N
  H110     1.0000 0.81219  0.92132  0.68011  Biso   1.000  H
  H111     1.0000 0.95303  0.87313  0.69059  Biso   1.000  H
  N30      1.0000 0.16514  0.98225  0.71919  Biso   1.000  N
  H112     1.0000 0.07870  0.89082  0.68011  Biso   1.000  H
  C119     1.0000 0.71555  0.97071  0.94862  Biso   1.000  C
  H113     1.0000 0.80159  0.04533  0.83443  Biso   1.000  H
  H114     1.0000 0.74964  0.07621  0.88238  Biso   1.000  H
  H115     1.0000 0.26850  0.32105  0.87961  Biso   1.000  H
  C120     1.0000 0.27433  0.22621  0.90849  Biso   1.000  C
  H116     1.0000 0.28344  0.31012  0.02564  Biso   1.000  H
  C121     1.0000 0.73775  0.78928  0.71957  Biso   1.000  C
  C122     1.0000 0.21063  0.94846  0.71957  Biso   1.000  C
  N31      1.0000 0.75007  0.92659  0.97541  Biso   1.000  N
  H117     1.0000 0.67892  0.94742  0.87961  Biso   1.000  H
  H118     1.0000 0.68981  0.97330  0.02564  Biso   1.000  H
  H119     1.0000 0.24377  0.19841  0.83443  Biso   1.000  H
  H120     1.0000 0.32655  0.25034  0.88238  Biso   1.000  H
  N32      1.0000 0.26150  0.17572  0.01382  Biso   1.000  N
  C123     1.0000 0.71584  0.72994  0.61910  Biso   1.000  C
  H121     1.0000 0.71504  0.81961  0.70060  Biso   1.000  H
  H122     1.0000 0.72060  0.76659  0.80459  Biso   1.000  H
  C124     1.0000 0.27000  0.98582  0.61910  Biso   1.000  C
  H123     1.0000 0.18033  0.89538  0.70060  Biso   1.000  H
  H124     1.0000 0.23335  0.95401  0.80459  Biso   1.000  H
  C125     1.0000 0.74756  0.90549  0.08884  Biso   1.000  C
  C126     1.0000 0.21970  0.10830  0.99066  Biso   1.000  C
  N33      1.0000 0.73069  0.76269  0.49261  Biso   1.000  N
  H125     1.0000 0.74385  0.70411  0.63187  Biso   1.000  H
  H126     1.0000 0.66274  0.69351  0.62739  Biso   1.000  H
  N34      1.0000 0.23725  0.96791  0.49261  Biso   1.000  N
  H127     1.0000 0.30648  0.96923  0.62739  Biso   1.000  H
  H128     1.0000 0.29586  0.03973  0.63187  Biso   1.000  H
  C127     1.0000 0.77957  0.86055  0.12944  Biso   1.000  C
  H129     1.0000 0.72396  0.91939  0.15108  Biso   1.000  H
  H130     1.0000 0.19845  0.09473  0.90811  Biso   1.000  H
  C128     1.0000 0.20201  0.04912  0.08464  Biso   1.000  C
  C129     1.0000 0.77596  0.75587  0.42322  Biso   1.000  C
  C130     1.0000 0.24413  0.02011  0.42322  Biso   1.000  C
  C131     1.0000 0.76720  0.83324  0.25307  Biso   1.000  C
  C132     1.0000 0.82000  0.84280  0.04585  Biso   1.000  C
  C133     1.0000 0.15719  0.97720  0.04585  Biso   1.000  C
  C134     1.0000 0.22978  0.06374  0.20951  Biso   1.000  C
  C135     1.0000 0.79394  0.78736  0.29339  Biso   1.000  C
  H131     1.0000 0.79895  0.72999  0.45515  Biso   1.000  H
  C136     1.0000 0.21260  0.00654  0.29339  Biso   1.000  C
  H132     1.0000 0.26998  0.06896  0.45515  Biso   1.000  H
  H133     1.0000 0.74042  0.84582  0.31084  Biso   1.000  H
  H134     1.0000 0.82902  0.86170  0.96149  Biso   1.000  H
  C137     1.0000 0.84707  0.79796  0.08464  Biso   1.000  C
  H135     1.0000 0.13826  0.96731  0.96149  Biso   1.000  H
  C138     1.0000 0.13944  0.91895  0.12944  Biso   1.000  C
  H136     1.0000 0.26047  0.11313  0.23658  Biso   1.000  H
  C139     1.0000 0.83400  0.77021  0.20951  Biso   1.000  C
  C140     1.0000 0.16669  0.93395  0.25307  Biso   1.000  C
  C141     1.0000 0.88861  0.78027  0.99066  Biso   1.000  C
  C142     1.0000 0.09443  0.84197  0.08884  Biso   1.000  C
  H137     1.0000 0.85262  0.73950  0.23658  Biso   1.000  H
  H138     1.0000 0.15411  0.89461  0.31084  Biso   1.000  H
  H139     1.0000 0.89629  0.80153  0.90811  Biso   1.000  H
  N35      1.0000 0.91418  0.73851  0.01382  Biso   1.000  N
  N36      1.0000 0.07340  0.82340  0.97541  Biso   1.000  N
  H140     1.0000 0.08055  0.80450  0.15108  Biso   1.000  H
  C143     1.0000 0.95191  0.72565  0.90849  Biso   1.000  C
  C144     1.0000 0.02925  0.74483  0.94862  Biso   1.000  C
  H141     1.0000 0.95462  0.75620  0.83443  Biso   1.000  H
  H142     1.0000 0.92378  0.67340  0.88238  Biso   1.000  H
  H143     1.0000 0.05258  0.73153  0.87961  Biso   1.000  H
  H144     1.0000 0.02662  0.71653  0.02564  Biso   1.000  H
  Ne1      1.0000 0.66667  0.33333  0.63298  Biso   1.000  Ne
  He1      1.0000 0.66040  0.20283  0.72197  Biso   1.000  He
  He2      1.0000 0.79613  0.45656  0.72118  Biso   1.000  He
  He3      1.0000 0.54594  0.33945  0.71929  Biso   1.000  He
  He4      1.0000 0.66666  0.33333  0.36516  Biso   1.000  He
  Ar1      1.0000 0.66671  0.33335  0.62610  Biso   1.000  Ar
  Ne2      1.0000 0.33333  0.66667  0.96631  Biso   1.000  Ne
  He5      1.0000 0.32707  0.53614  0.05527  Biso   1.000  He
  He6      1.0000 0.46280  0.78991  0.05452  Biso   1.000  He
  He7      1.0000 0.21261  0.67278  0.05257  Biso   1.000  He
  He8      1.0000 0.33332  0.66666  0.69850  Biso   1.000  He
  Ar2      1.0000 0.33336  0.66668  0.96097  Biso   1.000  Ar
  Ne3      1.0000 0.99999  0.99999  0.29965  Biso   1.000  Ne
  He9      1.0000 0.99372  0.86946  0.38866  Biso   1.000  He
  He10     1.0000 0.12946  0.12325  0.38786  Biso   1.000  He
  He11     1.0000 0.87928  0.00611  0.38590  Biso   1.000  He
  He12     1.0000 0.99999  0.99996  0.03183  Biso   1.000  He
  Ar3      1.0000 0.99995  0.99994  0.29275  Biso   1.000  Ar
