data_image0
_cell_length_a       16.434
_cell_length_b       17.447
_cell_length_c       19.888
_cell_angle_alpha    82.06
_cell_angle_beta     83.24
_cell_angle_gamma    80.23

_symmetry_space_group_name_H-M    "P 1"
_symmetry_int_tables_number       1

loop_
  _symmetry_equiv_pos_as_xyz
  'x, y, z'

loop_
  _atom_site_label
  _atom_site_occupancy
  _atom_site_fract_x
  _atom_site_fract_y
  _atom_site_fract_z
  _atom_site_thermal_displace_type
  _atom_site_B_iso_or_equiv
  _atom_site_type_symbol
  C1       1.0000 0.57380  0.57227  0.44850  Biso   1.000  C
  C2       1.0000 0.64770  0.56766  0.40540  Biso   1.000  C
  H1       1.0000 0.55860  0.52654  0.47288  Biso   1.000  H
  C3       1.0000 0.52128  0.64496  0.45610  Biso   1.000  C
  C4       1.0000 0.67111  0.63666  0.37209  Biso   1.000  C
  O1       1.0000 0.69362  0.49685  0.39301  Biso   1.000  O
  C5       1.0000 0.54658  0.71368  0.42611  Biso   1.000  C
  O2       1.0000 0.44720  0.63715  0.49691  Biso   1.000  O
  C6       1.0000 0.75268  0.63816  0.33149  Biso   1.000  C
  C7       1.0000 0.61941  0.71027  0.38479  Biso   1.000  C
  C8       1.0000 0.76212  0.47065  0.43009  Biso   1.000  C
  C9       1.0000 0.49357  0.79174  0.44192  Biso   1.000  C
  C10      1.0000 0.44157  0.65046  0.56403  Biso   1.000  C
  C11      1.0000 0.81620  0.63998  0.37709  Biso   1.000  C
  H2       1.0000 0.76701  0.58794  0.31282  Biso   1.000  H
  C12      1.0000 0.75950  0.70306  0.26993  Biso   1.000  C
  H3       1.0000 0.63641  0.75688  0.36409  Biso   1.000  H
  H4       1.0000 0.75017  0.48988  0.47431  Biso   1.000  H
  H5       1.0000 0.77002  0.41399  0.43779  Biso   1.000  H
  O3       1.0000 0.83617  0.49449  0.39831  Biso   1.000  O
  C13      1.0000 0.51393  0.81013  0.50940  Biso   1.000  C
  H6       1.0000 0.43621  0.78156  0.44952  Biso   1.000  H
  C14      1.0000 0.49543  0.85596  0.38230  Biso   1.000  C
  H7       1.0000 0.40258  0.61956  0.59061  Biso   1.000  H
  H8       1.0000 0.49542  0.63284  0.58122  Biso   1.000  H
  O4       1.0000 0.41548  0.73124  0.57372  Biso   1.000  O
  C15      1.0000 0.84233  0.70557  0.39352  Biso   1.000  C
  C16      1.0000 0.85628  0.56656  0.41458  Biso   1.000  C
  H9       1.0000 0.81699  0.69966  0.25121  Biso   1.000  H
  H10      1.0000 0.74281  0.75386  0.28610  Biso   1.000  H
  C17      1.0000 0.70638  0.69740  0.21300  Biso   1.000  C
  C18      1.0000 0.47758  0.78005  0.57153  Biso   1.000  C
  C19      1.0000 0.57570  0.85754  0.51221  Biso   1.000  C
  H11      1.0000 0.55262  0.86295  0.36883  Biso   1.000  H
  H12      1.0000 0.46599  0.90469  0.39750  Biso   1.000  H
  C20      1.0000 0.45747  0.84079  0.32063  Biso   1.000  C
  C21      1.0000 0.89811  0.70316  0.44070  Biso   1.000  C
  H13      1.0000 0.82113  0.75417  0.37148  Biso   1.000  H
  C22      1.0000 0.91029  0.56393  0.46120  Biso   1.000  C
  H14      1.0000 0.64829  0.71010  0.22922  Biso   1.000  H
  H15      1.0000 0.71604  0.64388  0.20219  Biso   1.000  H
  C23      1.0000 0.72501  0.75199  0.14858  Biso   1.000  C
  C24      1.0000 0.49537  0.79626  0.63289  Biso   1.000  C
  H16      1.0000 0.60408  0.87674  0.47191  Biso   1.000  H
  C25      1.0000 0.59441  0.87531  0.57321  Biso   1.000  C
  H17      1.0000 0.49192  0.79715  0.30058  Biso   1.000  H
  H18      1.0000 0.40311  0.82624  0.33491  Biso   1.000  H
  C26      1.0000 0.44942  0.91196  0.26748  Biso   1.000  C
  C27      1.0000 0.92553  0.77805  0.45891  Biso   1.000  C
  C28      1.0000 0.93509  0.63067  0.47441  Biso   1.000  C
  H19      1.0000 0.93099  0.51596  0.48462  Biso   1.000  H
  H20      1.0000 0.73102  0.80309  0.15878  Biso   1.000  H
  H21      1.0000 0.68250  0.75710  0.11762  Biso   1.000  H
  C29      1.0000 0.80602  0.70896  0.12002  Biso   1.000  C
  C30      1.0000 0.55601  0.84555  0.63100  Biso   1.000  C
  H22      1.0000 0.46902  0.77603  0.67390  Biso   1.000  H
  C31      1.0000 0.66279  0.92412  0.57653  Biso   1.000  C
  H23      1.0000 0.42838  0.95898  0.28911  Biso   1.000  H
  H24      1.0000 0.41132  0.90677  0.23529  Biso   1.000  H
  C32      1.0000 0.53432  0.91700  0.23198  Biso   1.000  C
  C33      1.0000 0.87448  0.80027  0.52262  Biso   1.000  C
  H25      1.0000 0.98338  0.76458  0.46921  Biso   1.000  H
  C34      1.0000 0.92142  0.84374  0.39913  Biso   1.000  C
  O5       1.0000 0.99648  0.62703  0.51532  Biso   1.000  O
  H26      1.0000 0.80740  0.65230  0.12558  Biso   1.000  H
  H27      1.0000 0.85349  0.72156  0.13818  Biso   1.000  H
  C35      1.0000 0.79504  0.74597  0.04902  Biso   1.000  C
  O6       1.0000 0.56639  0.86816  0.69359  Biso   1.000  O
  H28      1.0000 0.65010  0.94854  0.61892  Biso   1.000  H
  C36      1.0000 0.66743  0.99134  0.51660  Biso   1.000  C
  C37      1.0000 0.74821  0.87076  0.58051  Biso   1.000  C
  H29      1.0000 0.55801  0.86839  0.21300  Biso   1.000  H
  H30      1.0000 0.57140  0.92824  0.26202  Biso   1.000  H
  C38      1.0000 0.51799  0.98298  0.17602  Biso   1.000  C
  C39      1.0000 0.89598  0.77234  0.58642  Biso   1.000  C
  C40      1.0000 0.79732  0.84987  0.52098  Biso   1.000  C
  H31      1.0000 0.86401  0.86403  0.39163  Biso   1.000  H
  H32      1.0000 0.94898  0.82376  0.35781  Biso   1.000  H
  C41      1.0000 0.96399  0.90858  0.41642  Biso   1.000  C
  C42      1.0000 0.97543  0.63975  0.58469  Biso   1.000  C
  H33      1.0000 0.83619  0.71889  0.01821  Biso   1.000  H
  H34      1.0000 0.74093  0.74261  0.03800  Biso   1.000  H
  H35      1.0000 0.80264  0.79971  0.04519  Biso   1.000  H
  C43      1.0000 0.61061  0.81615  0.74021  Biso   1.000  C
  H36      1.0000 0.68683  0.96897  0.47452  Biso   1.000  H
  H37      1.0000 0.61232  0.02074  0.51180  Biso   1.000  H
  C44      1.0000 0.72552  0.04657  0.52853  Biso   1.000  C
  C45      1.0000 0.77631  0.84092  0.63962  Biso   1.000  C
  H38      1.0000 0.56863  0.98996  0.14833  Biso   1.000  H
  H39      1.0000 0.47858  0.97149  0.14812  Biso   1.000  H
  H40      1.0000 0.49551  0.03038  0.19571  Biso   1.000  H
  C46      1.0000 0.85279  0.79023  0.64702  Biso   1.000  C
  O7       1.0000 0.97388  0.71922  0.59459  Biso   1.000  O
  H41      1.0000 0.77801  0.86943  0.47890  Biso   1.000  H
  H42      1.0000 0.93389  0.93047  0.45610  Biso   1.000  H
  C47      1.0000 0.96770  0.97255  0.35730  Biso   1.000  C
  H43      1.0000 0.01989  0.88674  0.42749  Biso   1.000  H
  H44      1.0000 0.92133  0.62502  0.59989  Biso   1.000  H
  H45      1.0000 0.01552  0.60642  0.61239  Biso   1.000  H
  C48      1.0000 0.69127  0.81773  0.74439  Biso   1.000  C
  C49      1.0000 0.56421  0.76480  0.79259  Biso   1.000  C
  H46      1.0000 0.70211  0.07394  0.56730  Biso   1.000  H
  H47      1.0000 0.77833  0.01604  0.53940  Biso   1.000  H
  C50      1.0000 0.74010  0.10737  0.46549  Biso   1.000  C
  O8       1.0000 0.73609  0.86721  0.70083  Biso   1.000  O
  H48      1.0000 0.87191  0.77072  0.68910  Biso   1.000  H
  H49      1.0000 0.91113  0.99403  0.34833  Biso   1.000  H
  H50      1.0000 0.99370  0.94817  0.31752  Biso   1.000  H
  C51      1.0000 0.01203  0.03995  0.36199  Biso   1.000  C
  C52      1.0000 0.73557  0.76901  0.79999  Biso   1.000  C
  C53      1.0000 0.61238  0.71362  0.84253  Biso   1.000  C
  O9       1.0000 0.49093  0.76850  0.79361  Biso   1.000  O
  H51      1.0000 0.76693  0.08057  0.42718  Biso   1.000  H
  H52      1.0000 0.68728  0.13656  0.45289  Biso   1.000  H
  C54      1.0000 0.79680  0.16555  0.48293  Biso   1.000  C
  H53      1.0000 0.99001  0.08817  0.33511  Biso   1.000  H
  C55      1.0000 0.08998  0.99797  0.33001  Biso   1.000  C
  H54      1.0000 0.01512  0.04927  0.40882  Biso   1.000  H
  C56      1.0000 0.69248  0.71868  0.84794  Biso   1.000  C
  O10      1.0000 0.80707  0.77770  0.80652  Biso   1.000  O
  O11      1.0000 0.56650  0.66990  0.89272  Biso   1.000  O
  H55      1.0000 0.84963  0.13665  0.49589  Biso   1.000  H
  H56      1.0000 0.76994  0.19323  0.52073  Biso   1.000  H
  C57      1.0000 0.81033  0.22196  0.42132  Biso   1.000  C
  H57      1.0000 0.10372  0.94708  0.35562  Biso   1.000  H
  H58      1.0000 0.08321  0.99148  0.28411  Biso   1.000  H
  H59      1.0000 0.13453  0.02727  0.33012  Biso   1.000  H
  O12      1.0000 0.72966  0.67952  0.90511  Biso   1.000  O
  C58      1.0000 0.56221  0.59368  0.87783  Biso   1.000  C
  H60      1.0000 0.81933  0.27047  0.43473  Biso   1.000  H
  H61      1.0000 0.85794  0.20086  0.39311  Biso   1.000  H
  H62      1.0000 0.76230  0.23129  0.39642  Biso   1.000  H
  C59      1.0000 0.78151  0.60479  0.90093  Biso   1.000  C
  C60      1.0000 0.60766  0.52942  0.91680  Biso   1.000  C
  C61      1.0000 0.51399  0.57932  0.83039  Biso   1.000  C
  C62      1.0000 0.75397  0.53868  0.93179  Biso   1.000  C
  C63      1.0000 0.86088  0.60260  0.86762  Biso   1.000  C
  C64      1.0000 0.66618  0.53943  0.96750  Biso   1.000  C
  C65      1.0000 0.59576  0.45388  0.90624  Biso   1.000  C
  C66      1.0000 0.50591  0.50483  0.82029  Biso   1.000  C
  H63      1.0000 0.48587  0.62163  0.80422  Biso   1.000  H
  C67      1.0000 0.80856  0.46850  0.93082  Biso   1.000  C
  C68      1.0000 0.91509  0.53234  0.86472  Biso   1.000  C
  H64      1.0000 0.87817  0.64903  0.84692  Biso   1.000  H
  H65      1.0000 0.64816  0.59179  0.98162  Biso   1.000  H
  C69      1.0000 0.66263  0.48061  0.03309  Biso   1.000  C
  C70      1.0000 0.54537  0.44299  0.85982  Biso   1.000  C
  H66      1.0000 0.62317  0.41042  0.93154  Biso   1.000  H
  O13      1.0000 0.45352  0.50020  0.77270  Biso   1.000  O
  H67      1.0000 0.79029  0.42268  0.95173  Biso   1.000  H
  C71      1.0000 0.88967  0.46403  0.89971  Biso   1.000  C
  O14      1.0000 0.99511  0.53609  0.83473  Biso   1.000  O
  H68      1.0000 0.68458  0.42843  0.02141  Biso   1.000  H
  H69      1.0000 0.60507  0.48084  0.05110  Biso   1.000  H
  C72      1.0000 0.70967  0.49773  0.08741  Biso   1.000  C
  C73      1.0000 0.53170  0.35881  0.84651  Biso   1.000  C
  C74      1.0000 0.48877  0.47891  0.70940  Biso   1.000  C
  C75      1.0000 0.95130  0.38828  0.89782  Biso   1.000  C
  C76      1.0000 0.00539  0.51522  0.76760  Biso   1.000  C
  H70      1.0000 0.76278  0.51113  0.06670  Biso   1.000  H
  H71      1.0000 0.67931  0.54278  0.10771  Biso   1.000  H
  C77      1.0000 0.72558  0.42642  0.14576  Biso   1.000  C
  C78      1.0000 0.59439  0.33391  0.79162  Biso   1.000  C
  H72      1.0000 0.47688  0.36414  0.82993  Biso   1.000  H
  C79      1.0000 0.53049  0.30542  0.91613  Biso   1.000  C
  O15      1.0000 0.50298  0.39585  0.70823  Biso   1.000  O
  H73      1.0000 0.45230  0.50323  0.67492  Biso   1.000  H
  H74      1.0000 0.54110  0.49862  0.69813  Biso   1.000  H
  C80      1.0000 0.94260  0.32831  0.95954  Biso   1.000  C
  C81      1.0000 0.94348  0.35563  0.83253  Biso   1.000  C
  H75      1.0000 0.00706  0.40209  0.89471  Biso   1.000  H
  H76      1.0000 0.95207  0.52460  0.74903  Biso   1.000  H
  O16      1.0000 0.04120  0.43219  0.76821  Biso   1.000  O
  H77      1.0000 0.04169  0.54724  0.73883  Biso   1.000  H
  H78      1.0000 0.76077  0.38280  0.12648  Biso   1.000  H
  H79      1.0000 0.67321  0.40973  0.16377  Biso   1.000  H
  C82      1.0000 0.76640  0.44800  0.20361  Biso   1.000  C
  C83      1.0000 0.67176  0.28705  0.80499  Biso   1.000  C
  C84      1.0000 0.58269  0.35342  0.72521  Biso   1.000  C
  H80      1.0000 0.49290  0.33190  0.95000  Biso   1.000  H
  H81      1.0000 0.58551  0.29478  0.93164  Biso   1.000  H
  C85      1.0000 0.50197  0.22748  0.90823  Biso   1.000  C
  H82      1.0000 0.97935  0.28013  0.95133  Biso   1.000  H
  H83      1.0000 0.88616  0.31701  0.96591  Biso   1.000  H
  C86      1.0000 0.96220  0.35503  0.02269  Biso   1.000  C
  C87      1.0000 0.88962  0.30020  0.83049  Biso   1.000  C
  C88      1.0000 0.98071  0.38154  0.76990  Biso   1.000  C
  H84      1.0000 0.82002  0.46310  0.18657  Biso   1.000  H
  H85      1.0000 0.73208  0.49200  0.22309  Biso   1.000  H
  C89      1.0000 0.77756  0.37712  0.25798  Biso   1.000  C
  C90      1.0000 0.73226  0.26651  0.74883  Biso   1.000  C
  H86      1.0000 0.68349  0.26962  0.84972  Biso   1.000  H
  C91      1.0000 0.64092  0.33510  0.66982  Biso   1.000  C
  H87      1.0000 0.54840  0.19390  0.88701  Biso   1.000  H
  H88      1.0000 0.45860  0.23841  0.87762  Biso   1.000  H
  C92      1.0000 0.47015  0.18352  0.97402  Biso   1.000  C
  H89      1.0000 0.92413  0.40260  0.03069  Biso   1.000  H
  C93      1.0000 0.95788  0.29560  0.08971  Biso   1.000  C
  H90      1.0000 0.01760  0.36864  0.01468  Biso   1.000  H
  H91      1.0000 0.86146  0.27993  0.87053  Biso   1.000  H
  C94      1.0000 0.87919  0.27634  0.76729  Biso   1.000  C
  C95      1.0000 0.97141  0.35791  0.70833  Biso   1.000  C
  H92      1.0000 0.79948  0.39128  0.29639  Biso   1.000  H
  H93      1.0000 0.72488  0.36031  0.27231  Biso   1.000  H
  H94      1.0000 0.81531  0.33532  0.23941  Biso   1.000  H
  C96      1.0000 0.81516  0.21744  0.76760  Biso   1.000  C
  C97      1.0000 0.71699  0.29173  0.68400  Biso   1.000  C
  H95      1.0000 0.62867  0.35166  0.62509  Biso   1.000  H
  H96      1.0000 0.43940  0.14622  0.96071  Biso   1.000  H
  H97      1.0000 0.42950  0.22138  0.99621  Biso   1.000  H
  C98      1.0000 0.51999  0.14001  0.02901  Biso   1.000  C
  H98      1.0000 0.90020  0.29008  0.10220  Biso   1.000  H
  H99      1.0000 0.97559  0.31952  0.12567  Biso   1.000  H
  C99      1.0000 0.99798  0.22920  0.08996  Biso   1.000  C
  C100     1.0000 0.91818  0.30741  0.71012  Biso   1.000  C
  H100     1.0000 0.00026  0.37603  0.66783  Biso   1.000  H
  H101     1.0000 0.83556  0.18772  0.72899  Biso   1.000  H
  C101     1.0000 0.81698  0.15915  0.82809  Biso   1.000  C
  O17      1.0000 0.77208  0.27246  0.62963  Biso   1.000  O
  H102     1.0000 0.54513  0.17550  0.04987  Biso   1.000  H
  H103     1.0000 0.48378  0.11382  0.06390  Biso   1.000  H
  C102     1.0000 0.58598  0.08005  0.99999  Biso   1.000  C
  H104     1.0000 0.97842  0.20152  0.05727  Biso   1.000  H
  C103     1.0000 0.98701  0.18393  0.16397  Biso   1.000  C
  H105     1.0000 0.05631  0.23231  0.07640  Biso   1.000  H
  O18      1.0000 0.91026  0.28033  0.64753  Biso   1.000  O
  H106     1.0000 0.87367  0.13500  0.83442  Biso   1.000  H
  H107     1.0000 0.79390  0.18380  0.86839  Biso   1.000  H
  C104     1.0000 0.76597  0.09740  0.81743  Biso   1.000  C
  C105     1.0000 0.83866  0.31517  0.61228  Biso   1.000  C
  H108     1.0000 0.56085  0.03759  0.98831  Biso   1.000  H
  H109     1.0000 0.61398  0.10352  0.95913  Biso   1.000  H
  H110     1.0000 0.62489  0.05934  0.03238  Biso   1.000  H
  H111     1.0000 0.99310  0.12872  0.16158  Biso   1.000  H
  H112     1.0000 0.93279  0.20170  0.18550  Biso   1.000  H
  H113     1.0000 0.02827  0.19411  0.19080  Biso   1.000  H
  H114     1.0000 0.78176  0.08085  0.77240  Biso   1.000  H
  H115     1.0000 0.70746  0.11941  0.82019  Biso   1.000  H
  C106     1.0000 0.78095  0.02791  0.87150  Biso   1.000  C
  H116     1.0000 0.85387  0.31792  0.56352  Biso   1.000  H
  H117     1.0000 0.82088  0.36824  0.62340  Biso   1.000  H
  H118     1.0000 0.77226  0.04549  0.91623  Biso   1.000  H
  H119     1.0000 0.83736  0.00151  0.86472  Biso   1.000  H
  C107     1.0000 0.72198  0.97093  0.86803  Biso   1.000  C
  H120     1.0000 0.73391  0.94640  0.82641  Biso   1.000  H
  H121     1.0000 0.66469  0.99631  0.87160  Biso   1.000  H
  C108     1.0000 0.73895  0.91193  0.92904  Biso   1.000  C
  H122     1.0000 0.70398  0.87259  0.93291  Biso   1.000  H
  H123     1.0000 0.79639  0.88728  0.92470  Biso   1.000  H
  H124     1.0000 0.72899  0.93761  0.96989  Biso   1.000  H
  O19      1.0000 0.55277  0.36276  0.50313  Biso   1.000  O
  C109     1.0000 0.55840  0.34944  0.43601  Biso   1.000  C
  C110     1.0000 0.47869  0.35495  0.54388  Biso   1.000  C
  O20      1.0000 0.58449  0.26867  0.42631  Biso   1.000  O
  H125     1.0000 0.59739  0.38035  0.40943  Biso   1.000  H
  H126     1.0000 0.50461  0.36706  0.41882  Biso   1.000  H
  C111     1.0000 0.45339  0.28623  0.57393  Biso   1.000  C
  C112     1.0000 0.42618  0.42765  0.55148  Biso   1.000  C
  C113     1.0000 0.52239  0.21986  0.42851  Biso   1.000  C
  C114     1.0000 0.50640  0.20816  0.55812  Biso   1.000  C
  C115     1.0000 0.38057  0.28964  0.61519  Biso   1.000  C
  C116     1.0000 0.35228  0.43225  0.59459  Biso   1.000  C
  H127     1.0000 0.44138  0.47337  0.52710  Biso   1.000  H
  C117     1.0000 0.50460  0.20365  0.36710  Biso   1.000  C
  C118     1.0000 0.48612  0.18973  0.49058  Biso   1.000  C
  H128     1.0000 0.56382  0.21835  0.55052  Biso   1.000  H
  C119     1.0000 0.50461  0.14395  0.61769  Biso   1.000  C
  C120     1.0000 0.32887  0.36325  0.62789  Biso   1.000  C
  H129     1.0000 0.36356  0.24303  0.63590  Biso   1.000  H
  O21      1.0000 0.30641  0.50305  0.60703  Biso   1.000  O
  C121     1.0000 0.44397  0.15436  0.36898  Biso   1.000  C
  H130     1.0000 0.53102  0.22388  0.32609  Biso   1.000  H
  C122     1.0000 0.42427  0.14236  0.48783  Biso   1.000  C
  H131     1.0000 0.44736  0.13696  0.63121  Biso   1.000  H
  H132     1.0000 0.53399  0.09523  0.60249  Biso   1.000  H
  C123     1.0000 0.54250  0.15912  0.67941  Biso   1.000  C
  C124     1.0000 0.24729  0.36175  0.66849  Biso   1.000  C
  C125     1.0000 0.23792  0.52926  0.56990  Biso   1.000  C
  O22      1.0000 0.43359  0.13175  0.30640  Biso   1.000  O
  C126     1.0000 0.40557  0.12453  0.42682  Biso   1.000  C
  H133     1.0000 0.39589  0.12316  0.52812  Biso   1.000  H
  H134     1.0000 0.50806  0.20276  0.69940  Biso   1.000  H
  H135     1.0000 0.59687  0.17360  0.66513  Biso   1.000  H
  C127     1.0000 0.55055  0.08795  0.73251  Biso   1.000  C
  C128     1.0000 0.18377  0.35993  0.62289  Biso   1.000  C
  H136     1.0000 0.23297  0.41191  0.68721  Biso   1.000  H
  C129     1.0000 0.24047  0.29685  0.73011  Biso   1.000  C
  O23      1.0000 0.16381  0.50542  0.60173  Biso   1.000  O
  H137     1.0000 0.24980  0.51003  0.52573  Biso   1.000  H
  H138     1.0000 0.23002  0.58593  0.56220  Biso   1.000  H
  C130     1.0000 0.38942  0.18375  0.25983  Biso   1.000  C
  C131     1.0000 0.33719  0.07573  0.42351  Biso   1.000  C
  H139     1.0000 0.57159  0.04093  0.71093  Biso   1.000  H
  H140     1.0000 0.58866  0.09315  0.76469  Biso   1.000  H
  C132     1.0000 0.46566  0.08291  0.76801  Biso   1.000  C
  C133     1.0000 0.15770  0.29433  0.60652  Biso   1.000  C
  C134     1.0000 0.14370  0.43335  0.58540  Biso   1.000  C
  H141     1.0000 0.18298  0.30024  0.74883  Biso   1.000  H
  H142     1.0000 0.25717  0.24606  0.71389  Biso   1.000  H
  C135     1.0000 0.29359  0.30250  0.78703  Biso   1.000  C
  C136     1.0000 0.30870  0.18219  0.25559  Biso   1.000  C
  C137     1.0000 0.43577  0.23511  0.20739  Biso   1.000  C
  C138     1.0000 0.25176  0.12915  0.41953  Biso   1.000  C
  H143     1.0000 0.34987  0.05137  0.38112  Biso   1.000  H
  C139     1.0000 0.33260  0.00857  0.48339  Biso   1.000  C
  H144     1.0000 0.44196  0.13151  0.78703  Biso   1.000  H
  H145     1.0000 0.42858  0.07160  0.73802  Biso   1.000  H
  C140     1.0000 0.48198  0.01693  0.82401  Biso   1.000  C
  C141     1.0000 0.10187  0.29675  0.55929  Biso   1.000  C
  H146     1.0000 0.17890  0.24574  0.62851  Biso   1.000  H
  C142     1.0000 0.08970  0.43592  0.53878  Biso   1.000  C
  H147     1.0000 0.35168  0.28981  0.77081  Biso   1.000  H
  H148     1.0000 0.28400  0.35603  0.79780  Biso   1.000  H
  C143     1.0000 0.27497  0.24792  0.85140  Biso   1.000  C
  C144     1.0000 0.26440  0.23090  0.20000  Biso   1.000  C
  O24      1.0000 0.26389  0.13269  0.29921  Biso   1.000  O
  C145     1.0000 0.38759  0.28629  0.15751  Biso   1.000  C
  O25      1.0000 0.50911  0.23140  0.20642  Biso   1.000  O
  C146     1.0000 0.22372  0.15898  0.36041  Biso   1.000  C
  C147     1.0000 0.20272  0.15004  0.47900  Biso   1.000  C
  H149     1.0000 0.31320  0.03093  0.52552  Biso   1.000  H
  H150     1.0000 0.38766  0.97917  0.48819  Biso   1.000  H
  C148     1.0000 0.27451  0.95334  0.47151  Biso   1.000  C
  H151     1.0000 0.43141  0.00989  0.85171  Biso   1.000  H
  H152     1.0000 0.52139  0.02841  0.85191  Biso   1.000  H
  H153     1.0000 0.50446  0.96953  0.80433  Biso   1.000  H
  C149     1.0000 0.07450  0.22186  0.54113  Biso   1.000  C
  C150     1.0000 0.06489  0.36923  0.52562  Biso   1.000  C
  H154     1.0000 0.06898  0.48395  0.51542  Biso   1.000  H
  H155     1.0000 0.26896  0.19682  0.84120  Biso   1.000  H
  H156     1.0000 0.31747  0.24281  0.88242  Biso   1.000  H
  C151     1.0000 0.19397  0.29089  0.88002  Biso   1.000  C
  C152     1.0000 0.30750  0.28116  0.15210  Biso   1.000  C
  O26      1.0000 0.19290  0.22220  0.19352  Biso   1.000  O
  O27      1.0000 0.43348  0.33000  0.10732  Biso   1.000  O
  C153     1.0000 0.14718  0.20968  0.35302  Biso   1.000  C
  C154     1.0000 0.12549  0.19964  0.47742  Biso   1.000  C
  H157     1.0000 0.22197  0.13048  0.52108  Biso   1.000  H
  H158     1.0000 0.29787  0.92598  0.43269  Biso   1.000  H
  H159     1.0000 0.22170  0.98387  0.46059  Biso   1.000  H
  C155     1.0000 0.25988  0.89255  0.53450  Biso   1.000  C
  H160     1.0000 0.01659  0.23533  0.53083  Biso   1.000  H
  C156     1.0000 0.07861  0.15616  0.60091  Biso   1.000  C
  O28      1.0000 0.00349  0.37287  0.48472  Biso   1.000  O
  H161     1.0000 0.19258  0.34762  0.87441  Biso   1.000  H
  H162     1.0000 0.14650  0.27829  0.86181  Biso   1.000  H
  C157     1.0000 0.20500  0.25388  0.95102  Biso   1.000  C
  O29      1.0000 0.27031  0.32038  0.09492  Biso   1.000  O
  C158     1.0000 0.43784  0.40616  0.12221  Biso   1.000  C
  H163     1.0000 0.12807  0.22919  0.31089  Biso   1.000  H
  C159     1.0000 0.10399  0.22756  0.41361  Biso   1.000  C
  H164     1.0000 0.23311  0.91934  0.57281  Biso   1.000  H
  H165     1.0000 0.31269  0.86335  0.54710  Biso   1.000  H
  C160     1.0000 0.20317  0.83436  0.51711  Biso   1.000  C
  H166     1.0000 0.13597  0.13582  0.60841  Biso   1.000  H
  H167     1.0000 0.05099  0.17614  0.64223  Biso   1.000  H
  C161     1.0000 0.03598  0.09133  0.58362  Biso   1.000  C
  C162     1.0000 0.02461  0.36017  0.41530  Biso   1.000  C
  H168     1.0000 0.16378  0.28101  0.98183  Biso   1.000  H
  H169     1.0000 0.25910  0.25730  0.96204  Biso   1.000  H
  H170     1.0000 0.19740  0.20020  0.95480  Biso   1.000  H
  C163     1.0000 0.21853  0.39506  0.09911  Biso   1.000  C
  C164     1.0000 0.39231  0.47049  0.08319  Biso   1.000  C
  C165     1.0000 0.48599  0.42059  0.16960  Biso   1.000  C
  O30      1.0000 0.02611  0.28064  0.40540  Biso   1.000  O
  H171     1.0000 0.15040  0.86326  0.50410  Biso   1.000  H
  H172     1.0000 0.23010  0.80662  0.47931  Biso   1.000  H
  C166     1.0000 0.18964  0.77794  0.57872  Biso   1.000  C
  H173     1.0000 0.06609  0.06945  0.54388  Biso   1.000  H
  C167     1.0000 0.03228  0.02736  0.64268  Biso   1.000  C
  H174     1.0000 0.98008  0.11317  0.57250  Biso   1.000  H
  H175     1.0000 0.07871  0.37484  0.40010  Biso   1.000  H
  H176     1.0000 0.98453  0.39344  0.38760  Biso   1.000  H
  C168     1.0000 0.24601  0.46117  0.06820  Biso   1.000  C
  C169     1.0000 0.13909  0.39731  0.13241  Biso   1.000  C
  C170     1.0000 0.33380  0.46048  0.03249  Biso   1.000  C
  C171     1.0000 0.40422  0.54597  0.09380  Biso   1.000  C
  C172     1.0000 0.49413  0.49509  0.17970  Biso   1.000  C
  H177     1.0000 0.51410  0.37828  0.19581  Biso   1.000  H
  H178     1.0000 0.18070  0.72944  0.56531  Biso   1.000  H
  H179     1.0000 0.14209  0.79904  0.60693  Biso   1.000  H
  H180     1.0000 0.23768  0.76862  0.60361  Biso   1.000  H
  H181     1.0000 0.08891  0.00581  0.65171  Biso   1.000  H
  H182     1.0000 0.00627  0.05173  0.68252  Biso   1.000  H
  C173     1.0000 0.98796  0.95991  0.63799  Biso   1.000  C
  C174     1.0000 0.19141  0.53140  0.06922  Biso   1.000  C
  C175     1.0000 0.08488  0.46757  0.13532  Biso   1.000  C
  H183     1.0000 0.12180  0.35087  0.15312  Biso   1.000  H
  H184     1.0000 0.35181  0.40811  0.01841  Biso   1.000  H
  C176     1.0000 0.33741  0.51930  0.96695  Biso   1.000  C
  C177     1.0000 0.45461  0.55686  0.14022  Biso   1.000  C
  H185     1.0000 0.37680  0.58949  0.06850  Biso   1.000  H
  O31      1.0000 0.54653  0.49965  0.22729  Biso   1.000  O
  H186     1.0000 0.98485  0.95063  0.59122  Biso   1.000  H
  C178     1.0000 0.90999  0.00194  0.67002  Biso   1.000  C
  H187     1.0000 0.00996  0.91174  0.66492  Biso   1.000  H
  H188     1.0000 0.20970  0.57717  0.04830  Biso   1.000  H
  C179     1.0000 0.11030  0.53588  0.10028  Biso   1.000  C
  O32      1.0000 0.00493  0.46376  0.16531  Biso   1.000  O
  H189     1.0000 0.31539  0.57148  0.97863  Biso   1.000  H
  H190     1.0000 0.39490  0.51906  0.94894  Biso   1.000  H
  C180     1.0000 0.29030  0.50217  0.91263  Biso   1.000  C
  C181     1.0000 0.46834  0.64110  0.15348  Biso   1.000  C
  C182     1.0000 0.51121  0.52100  0.29059  Biso   1.000  C
  H191     1.0000 0.86550  0.97264  0.66992  Biso   1.000  H
  H192     1.0000 0.89631  0.05283  0.64442  Biso   1.000  H
  H193     1.0000 0.91676  0.00842  0.71593  Biso   1.000  H
  C183     1.0000 0.04868  0.61157  0.10222  Biso   1.000  C
  C184     1.0000 0.99458  0.48470  0.23239  Biso   1.000  C
  H194     1.0000 0.23719  0.48877  0.93333  Biso   1.000  H
  H195     1.0000 0.32067  0.45707  0.89232  Biso   1.000  H
  C185     1.0000 0.27439  0.57349  0.85422  Biso   1.000  C
  C186     1.0000 0.40558  0.66599  0.20841  Biso   1.000  C
  H196     1.0000 0.52309  0.63577  0.17011  Biso   1.000  H
  C187     1.0000 0.46948  0.69448  0.08391  Biso   1.000  C
  O33      1.0000 0.49699  0.60406  0.29181  Biso   1.000  O
  H197     1.0000 0.54767  0.49667  0.32512  Biso   1.000  H
  H198     1.0000 0.45887  0.50128  0.30191  Biso   1.000  H
  C188     1.0000 0.05743  0.67160  0.04050  Biso   1.000  C
  C189     1.0000 0.05649  0.64427  0.16751  Biso   1.000  C
  H199     1.0000 0.99293  0.59777  0.10528  Biso   1.000  H
  H200     1.0000 0.04791  0.47525  0.25100  Biso   1.000  H
  O34      1.0000 0.95879  0.56765  0.23183  Biso   1.000  O
  H201     1.0000 0.95828  0.45267  0.26121  Biso   1.000  H
  H202     1.0000 0.23920  0.61711  0.87350  Biso   1.000  H
  H203     1.0000 0.32677  0.59018  0.83622  Biso   1.000  H
  C190     1.0000 0.23357  0.55190  0.79643  Biso   1.000  C
  C191     1.0000 0.32822  0.71287  0.19500  Biso   1.000  C
  C192     1.0000 0.41728  0.64649  0.27482  Biso   1.000  C
  H204     1.0000 0.50713  0.66801  0.04999  Biso   1.000  H
  H205     1.0000 0.41453  0.70507  0.06840  Biso   1.000  H
  C193     1.0000 0.49801  0.77237  0.09181  Biso   1.000  C
  H206     1.0000 0.02063  0.71978  0.04871  Biso   1.000  H
  H207     1.0000 0.11381  0.68289  0.03412  Biso   1.000  H
  C194     1.0000 0.03778  0.64488  0.97730  Biso   1.000  C
  C195     1.0000 0.11043  0.69965  0.16950  Biso   1.000  C
  C196     1.0000 0.01932  0.61838  0.23009  Biso   1.000  C
  H208     1.0000 0.17996  0.53681  0.81342  Biso   1.000  H
  H209     1.0000 0.26789  0.50790  0.77695  Biso   1.000  H
  C197     1.0000 0.22241  0.62279  0.74201  Biso   1.000  C
  C198     1.0000 0.26771  0.73340  0.25121  Biso   1.000  C
  H210     1.0000 0.31648  0.73029  0.15032  Biso   1.000  H
  C199     1.0000 0.35913  0.66474  0.33022  Biso   1.000  C
  H211     1.0000 0.45164  0.80601  0.11298  Biso   1.000  H
  H212     1.0000 0.54143  0.76149  0.12242  Biso   1.000  H
  C200     1.0000 0.52982  0.81639  0.02601  Biso   1.000  C
  H213     1.0000 0.98238  0.63127  0.98531  Biso   1.000  H
  H214     1.0000 0.07591  0.59725  0.96934  Biso   1.000  H
  C201     1.0000 0.04209  0.70431  0.91033  Biso   1.000  C
  H215     1.0000 0.13851  0.71997  0.12951  Biso   1.000  H
  C202     1.0000 0.12079  0.72358  0.23269  Biso   1.000  C
  C203     1.0000 0.02862  0.64199  0.29171  Biso   1.000  C
  H216     1.0000 0.20050  0.60863  0.70360  Biso   1.000  H
  H217     1.0000 0.27509  0.63960  0.72773  Biso   1.000  H
  H218     1.0000 0.18473  0.66458  0.76063  Biso   1.000  H
  C204     1.0000 0.18482  0.78248  0.23239  Biso   1.000  C
  C205     1.0000 0.28299  0.70818  0.31599  Biso   1.000  C
  H219     1.0000 0.37131  0.64825  0.37490  Biso   1.000  H
  H220     1.0000 0.56064  0.85369  0.03928  Biso   1.000  H
  H221     1.0000 0.57053  0.77852  0.00383  Biso   1.000  H
  C206     1.0000 0.47998  0.85990  0.97103  Biso   1.000  C
  H222     1.0000 0.09978  0.70976  0.89783  Biso   1.000  H
  H223     1.0000 0.02439  0.68040  0.87432  Biso   1.000  H
  C207     1.0000 0.00200  0.77071  0.91002  Biso   1.000  C
  C208     1.0000 0.08179  0.69249  0.28992  Biso   1.000  C
  H224     1.0000 0.99971  0.62387  0.33221  Biso   1.000  H
  H225     1.0000 0.16441  0.81219  0.27100  Biso   1.000  H
  C209     1.0000 0.18300  0.84077  0.17189  Biso   1.000  C
  O35      1.0000 0.22789  0.72745  0.37041  Biso   1.000  O
  C210     1.0000 0.41404  0.91997  0.00000  Biso   1.000  C
  H226     1.0000 0.45492  0.82436  0.95012  Biso   1.000  H
  H227     1.0000 0.51619  0.88608  0.93614  Biso   1.000  H
  H228     1.0000 0.94366  0.76760  0.92364  Biso   1.000  H
  H229     1.0000 0.02162  0.79840  0.94272  Biso   1.000  H
  C211     1.0000 0.01303  0.81599  0.83601  Biso   1.000  C
  O36      1.0000 0.08971  0.71958  0.35251  Biso   1.000  O
  H230     1.0000 0.12630  0.86490  0.16562  Biso   1.000  H
  H231     1.0000 0.20608  0.81611  0.13160  Biso   1.000  H
  C212     1.0000 0.23400  0.90250  0.18260  Biso   1.000  C
  C213     1.0000 0.16132  0.68475  0.38770  Biso   1.000  C
  H232     1.0000 0.43912  0.96232  0.01168  Biso   1.000  H
  H233     1.0000 0.38599  0.89639  0.04091  Biso   1.000  H
  H234     1.0000 0.37508  0.94058  0.96761  Biso   1.000  H
  H235     1.0000 0.97170  0.80580  0.80923  Biso   1.000  H
  H236     1.0000 0.00688  0.87120  0.83841  Biso   1.000  H
  H237     1.0000 0.06718  0.79820  0.81454  Biso   1.000  H
  H238     1.0000 0.21822  0.91906  0.22759  Biso   1.000  H
  H239     1.0000 0.29252  0.88050  0.17980  Biso   1.000  H
  C214     1.0000 0.21902  0.97200  0.12849  Biso   1.000  C
  H240     1.0000 0.14611  0.68193  0.43652  Biso   1.000  H
  H241     1.0000 0.17909  0.63168  0.37658  Biso   1.000  H
  H242     1.0000 0.22771  0.95441  0.08380  Biso   1.000  H
  H243     1.0000 0.16261  0.99839  0.13532  Biso   1.000  H
  C215     1.0000 0.27799  0.02898  0.13201  Biso   1.000  C
  H244     1.0000 0.26612  0.05351  0.17363  Biso   1.000  H
  H245     1.0000 0.33529  0.00360  0.12838  Biso   1.000  H
  C216     1.0000 0.26102  0.08798  0.07100  Biso   1.000  C
  H246     1.0000 0.29599  0.12731  0.06712  Biso   1.000  H
  H247     1.0000 0.20365  0.11257  0.07529  Biso   1.000  H
  H248     1.0000 0.27105  0.06231  0.03009  Biso   1.000  H
