data_image0
_cell_length_a       10.257
_cell_length_b       12.362
_cell_length_c       14.237
_cell_angle_alpha    94.33
_cell_angle_beta     108.53
_cell_angle_gamma    96.72

_symmetry_space_group_name_H-M    "P 1"
_symmetry_int_tables_number       1

loop_
  _symmetry_equiv_pos_as_xyz
  'x, y, z'

loop_
  _atom_site_label
  _atom_site_occupancy
  _atom_site_fract_x
  _atom_site_fract_y
  _atom_site_fract_z
  _atom_site_thermal_displace_type
  _atom_site_B_iso_or_equiv
  _atom_site_type_symbol
  C1       1.0000 0.61045  0.60703  0.47702  Biso   1.000  C
  N1       1.0000 0.54293  0.59065  0.37913  Biso   1.000  N
  C2       1.0000 0.58386  0.68581  0.53962  Biso   1.000  C
  C3       1.0000 0.71998  0.53661  0.51754  Biso   1.000  C
  C4       1.0000 0.44946  0.65718  0.34003  Biso   1.000  C
  C5       1.0000 0.48772  0.75230  0.50023  Biso   1.000  C
  H1       1.0000 0.63092  0.69351  0.60805  Biso   1.000  H
  S1       1.0000 0.89291  0.61296  0.57529  Biso   1.000  S
  H2       1.0000 0.72095  0.48430  0.46352  Biso   1.000  H
  H3       1.0000 0.69545  0.49555  0.56634  Biso   1.000  H
  C6       1.0000 0.37647  0.63430  0.23049  Biso   1.000  C
  C7       1.0000 0.42112  0.73922  0.39830  Biso   1.000  C
  H4       1.0000 0.46763  0.80545  0.54134  Biso   1.000  H
  C8       1.0000 0.94202  0.64097  0.46814  Biso   1.000  C
  S2       1.0000 0.22968  0.52565  0.19900  Biso   1.000  S
  H5       1.0000 0.44144  0.61374  0.19803  Biso   1.000  H
  H6       1.0000 0.34425  0.70064  0.20542  Biso   1.000  H
  H7       1.0000 0.35803  0.78519  0.36943  Biso   1.000  H
  H8       1.0000 0.94238  0.57143  0.43173  Biso   1.000  H
  C9       1.0000 0.85093  0.70742  0.39621  Biso   1.000  C
  H9       1.0000 0.03639  0.67962  0.49135  Biso   1.000  H
  C10      1.0000 0.10776  0.59499  0.23818  Biso   1.000  C
  C11      1.0000 0.81544  0.80395  0.43031  Biso   1.000  C
  C12      1.0000 0.80223  0.67184  0.29541  Biso   1.000  C
  C13      1.0000 0.06910  0.69462  0.18565  Biso   1.000  C
  H10      1.0000 0.02378  0.54355  0.22668  Biso   1.000  H
  H11      1.0000 0.14714  0.61790  0.30951  Biso   1.000  H
  H12      1.0000 0.84938  0.82900  0.49814  Biso   1.000  H
  C14      1.0000 0.73034  0.86336  0.36495  Biso   1.000  C
  C15      1.0000 0.72127  0.73295  0.22870  Biso   1.000  C
  H13      1.0000 0.82411  0.60629  0.27205  Biso   1.000  H
  C16      1.0000 0.03365  0.68856  0.08267  Biso   1.000  C
  C17      1.0000 0.07254  0.79264  0.24101  Biso   1.000  C
  C18      1.0000 0.68278  0.82695  0.26280  Biso   1.000  C
  C19      1.0000 0.68885  0.96484  0.40509  Biso   1.000  C
  O1       1.0000 0.68356  0.69004  0.13043  Biso   1.000  O
  C20      1.0000 0.00194  0.78060  0.03619  Biso   1.000  C
  H14      1.0000 0.03120  0.62288  0.04529  Biso   1.000  H
  C21      1.0000 0.03895  0.88490  0.19370  Biso   1.000  C
  H15      1.0000 0.09745  0.79669  0.31011  Biso   1.000  H
  H16      1.0000 0.62521  0.86619  0.21810  Biso   1.000  H
  S3       1.0000 0.81576  0.08626  0.42412  Biso   1.000  S
  H17      1.0000 0.67511  0.95294  0.46814  Biso   1.000  H
  H18      1.0000 0.60076  0.97711  0.35905  Biso   1.000  H
  C22      1.0000 0.63544  0.76032  0.05544  Biso   1.000  C
  C23      1.0000 0.00182  0.87730  0.09140  Biso   1.000  C
  O2       1.0000 0.97254  0.78486  0.93546  Biso   1.000  O
  C24      1.0000 0.05534  0.99415  0.25273  Biso   1.000  C
  C25      1.0000 0.77569  0.12390  0.29914  Biso   1.000  C
  C26      1.0000 0.47912  0.74921  0.01492  Biso   1.000  C
  H19      1.0000 0.67023  0.74322  0.00097  Biso   1.000  H
  H20      1.0000 0.67306  0.83585  0.08342  Biso   1.000  H
  H21      1.0000 0.97640  0.93804  0.05902  Biso   1.000  H
  C27      1.0000 0.03441  0.71258  0.88576  Biso   1.000  C
  H22      1.0000 0.01993  0.98450  0.30749  Biso   1.000  H
  S4       1.0000 0.23494  0.05941  0.30175  Biso   1.000  S
  H23      1.0000 0.00046  0.04176  0.21034  Biso   1.000  H
  C28      1.0000 0.64686  0.17600  0.26735  Biso   1.000  C
  H24      1.0000 0.85316  0.17449  0.29548  Biso   1.000  H
  H25      1.0000 0.76432  0.05871  0.25310  Biso   1.000  H
  C29      1.0000 0.41198  0.83852  0.00589  Biso   1.000  C
  C30      1.0000 0.40031  0.64729  0.98135  Biso   1.000  C
  H26      1.0000 0.99547  0.63758  0.88711  Biso   1.000  H
  C31      1.0000 0.18998  0.72513  0.93098  Biso   1.000  C
  H27      1.0000 0.01070  0.72603  0.81644  Biso   1.000  H
  C32      1.0000 0.27682  0.07028  0.18878  Biso   1.000  C
  N2       1.0000 0.52665  0.10676  0.23691  Biso   1.000  N
  C33      1.0000 0.65232  0.28805  0.27265  Biso   1.000  C
  C34      1.0000 0.26900  0.82759  0.96374  Biso   1.000  C
  H28      1.0000 0.46335  0.90812  0.02850  Biso   1.000  H
  C35      1.0000 0.25817  0.63531  0.94165  Biso   1.000  C
  H29      1.0000 0.44437  0.58534  0.98590  Biso   1.000  H
  H30      1.0000 0.28920  0.99913  0.16244  Biso   1.000  H
  C36      1.0000 0.40836  0.14986  0.21288  Biso   1.000  C
  H31      1.0000 0.20178  0.09615  0.13901  Biso   1.000  H
  C37      1.0000 0.53029  0.33153  0.24534  Biso   1.000  C
  H32      1.0000 0.73743  0.33374  0.29429  Biso   1.000  H
  H33      1.0000 0.22549  0.88989  0.95747  Biso   1.000  H
  H34      1.0000 0.20727  0.56531  0.92158  Biso   1.000  H
  C38      1.0000 0.40712  0.26149  0.21504  Biso   1.000  C
  H35      1.0000 0.53137  0.40705  0.24728  Biso   1.000  H
  H36      1.0000 0.32304  0.28896  0.19602  Biso   1.000  H
  C39      1.0000 0.38950  0.39301  0.52306  Biso   1.000  C
  C40      1.0000 0.41610  0.31423  0.46046  Biso   1.000  C
  N3       1.0000 0.45713  0.40939  0.62096  Biso   1.000  N
  C41      1.0000 0.27997  0.46343  0.48254  Biso   1.000  C
  H37      1.0000 0.36913  0.30653  0.39203  Biso   1.000  H
  C42      1.0000 0.51223  0.24774  0.49985  Biso   1.000  C
  C43      1.0000 0.55049  0.34286  0.66006  Biso   1.000  C
  S5       1.0000 0.10702  0.38715  0.42472  Biso   1.000  S
  H38      1.0000 0.27897  0.51573  0.53649  Biso   1.000  H
  H39      1.0000 0.30460  0.50449  0.43374  Biso   1.000  H
  H40      1.0000 0.53233  0.19460  0.45874  Biso   1.000  H
  C44      1.0000 0.57880  0.26081  0.60171  Biso   1.000  C
  C45      1.0000 0.62355  0.36573  0.76952  Biso   1.000  C
  C46      1.0000 0.05804  0.35915  0.53194  Biso   1.000  C
  H41      1.0000 0.64193  0.21486  0.63066  Biso   1.000  H
  S6       1.0000 0.77034  0.47438  0.80101  Biso   1.000  S
  H42      1.0000 0.55853  0.38638  0.80205  Biso   1.000  H
  H43      1.0000 0.65572  0.29948  0.79466  Biso   1.000  H
  H44      1.0000 0.05758  0.42862  0.56835  Biso   1.000  H
  C47      1.0000 0.14899  0.29261  0.60379  Biso   1.000  C
  H45      1.0000 0.96357  0.32042  0.50873  Biso   1.000  H
  C48      1.0000 0.89225  0.40504  0.76183  Biso   1.000  C
  C49      1.0000 0.18450  0.19616  0.56970  Biso   1.000  C
  C50      1.0000 0.19771  0.32827  0.70460  Biso   1.000  C
  C51      1.0000 0.93095  0.30542  0.81444  Biso   1.000  C
  H46      1.0000 0.97625  0.45656  0.77332  Biso   1.000  H
  H47      1.0000 0.85278  0.38213  0.69050  Biso   1.000  H
  H48      1.0000 0.15068  0.17104  0.50194  Biso   1.000  H
  C52      1.0000 0.26962  0.13676  0.63513  Biso   1.000  C
  C53      1.0000 0.27876  0.26717  0.77131  Biso   1.000  C
  H49      1.0000 0.17594  0.39375  0.72803  Biso   1.000  H
  C54      1.0000 0.96637  0.31147  0.91733  Biso   1.000  C
  C55      1.0000 0.92752  0.20748  0.75907  Biso   1.000  C
  C56      1.0000 0.31725  0.17316  0.73721  Biso   1.000  C
  C57      1.0000 0.31117  0.03519  0.59492  Biso   1.000  C
  O3       1.0000 0.31640  0.31008  0.86965  Biso   1.000  O
  C58      1.0000 0.99807  0.21943  0.96382  Biso   1.000  C
  H50      1.0000 0.96873  0.37715  0.95472  Biso   1.000  H
  C59      1.0000 0.96110  0.11515  0.80638  Biso   1.000  C
  H51      1.0000 0.90257  0.20335  0.68990  Biso   1.000  H
  H52      1.0000 0.37471  0.13384  0.78190  Biso   1.000  H
  H53      1.0000 0.32484  0.04711  0.53194  Biso   1.000  H
  H54      1.0000 0.39929  0.02293  0.64103  Biso   1.000  H
  S7       1.0000 0.18425  0.91377  0.57589  Biso   1.000  S
  C60      1.0000 0.36452  0.23972  0.94464  Biso   1.000  C
  C61      1.0000 0.99823  0.12274  0.90868  Biso   1.000  C
  O4       1.0000 0.02749  0.21526  0.06455  Biso   1.000  O
  C62      1.0000 0.94473  0.00597  0.74736  Biso   1.000  C
  C63      1.0000 0.22426  0.87614  0.70095  Biso   1.000  C
  H55      1.0000 0.32980  0.25689  0.99904  Biso   1.000  H
  H56      1.0000 0.32701  0.16428  0.91666  Biso   1.000  H
  C64      1.0000 0.52084  0.25083  0.98516  Biso   1.000  C
  H57      1.0000 0.02356  0.06209  0.94106  Biso   1.000  H
  C65      1.0000 0.96555  0.28746  0.11432  Biso   1.000  C
  H58      1.0000 0.98009  0.01553  0.69251  Biso   1.000  H
  S8       1.0000 0.76512  0.94071  0.69833  Biso   1.000  S
  H59      1.0000 0.99961  0.95836  0.78974  Biso   1.000  H
  H60      1.0000 0.14676  0.82554  0.70453  Biso   1.000  H
  H61      1.0000 0.23570  0.94132  0.74691  Biso   1.000  H
  C66      1.0000 0.35320  0.82404  0.73273  Biso   1.000  C
  C67      1.0000 0.58798  0.16153  0.99419  Biso   1.000  C
  C68      1.0000 0.59961  0.35274  0.01866  Biso   1.000  C
  C69      1.0000 0.81008  0.27499  0.06910  Biso   1.000  C
  H62      1.0000 0.98923  0.27409  0.18356  Biso   1.000  H
  H63      1.0000 0.00449  0.36246  0.11298  Biso   1.000  H
  C70      1.0000 0.72319  0.92975  0.81123  Biso   1.000  C
  C71      1.0000 0.34774  0.71208  0.72743  Biso   1.000  C
  N4       1.0000 0.47327  0.89328  0.76310  Biso   1.000  N
  H64      1.0000 0.53670  0.09192  0.97158  Biso   1.000  H
  C72      1.0000 0.73092  0.17244  0.03627  Biso   1.000  C
  C73      1.0000 0.74185  0.36472  0.05836  Biso   1.000  C
  H65      1.0000 0.55559  0.41479  0.01418  Biso   1.000  H
  H66      1.0000 0.71076  0.00091  0.83764  Biso   1.000  H
  C74      1.0000 0.59161  0.85026  0.78720  Biso   1.000  C
  H67      1.0000 0.79819  0.90397  0.86107  Biso   1.000  H
  H68      1.0000 0.26250  0.66637  0.70572  Biso   1.000  H
  C75      1.0000 0.46966  0.66851  0.75474  Biso   1.000  C
  H69      1.0000 0.77446  0.11015  0.04261  Biso   1.000  H
  H70      1.0000 0.79269  0.43473  0.07850  Biso   1.000  H
  C76      1.0000 0.59293  0.73855  0.78504  Biso   1.000  C
  H71      1.0000 0.46857  0.59306  0.75273  Biso   1.000  H
  H72      1.0000 0.67692  0.71116  0.80406  Biso   1.000  H
  Ne1      1.0000 0.54322  0.17731  0.75002  Biso   1.000  Ne
  He1      1.0000 0.39514  0.01605  0.85894  Biso   1.000  He
  He2      1.0000 0.56569  0.05138  0.59957  Biso   1.000  He
  Ar1      1.0000 0.58445  0.13140  0.74812  Biso   1.000  Ar
  Ne2      1.0000 0.45677  0.82276  0.25003  Biso   1.000  Ne
  He3      1.0000 0.41234  0.92215  0.33323  Biso   1.000  He
  He4      1.0000 0.48177  0.93378  0.16841  Biso   1.000  He
  Ar2      1.0000 0.42371  0.86871  0.25203  Biso   1.000  Ar
