data_image0
_cell_length_a       19.813
_cell_length_b       20.818
_cell_length_c       21.366
_cell_angle_alpha    90
_cell_angle_beta     92.35
_cell_angle_gamma    90

_symmetry_space_group_name_H-M    "P 1"
_symmetry_int_tables_number       1

loop_
  _symmetry_equiv_pos_as_xyz
  'x, y, z'

loop_
  _atom_site_label
  _atom_site_occupancy
  _atom_site_fract_x
  _atom_site_fract_y
  _atom_site_fract_z
  _atom_site_thermal_displace_type
  _atom_site_B_iso_or_equiv
  _atom_site_type_symbol
  C1       1.0000 0.55245  0.46758  0.43906  Biso   1.000  C
  C2       1.0000 0.56530  0.46527  0.36893  Biso   1.000  C
  H1       1.0000 0.58985  0.48799  0.46089  Biso   1.000  H
  H2       1.0000 0.51186  0.49150  0.44571  Biso   1.000  H
  H3       1.0000 0.54733  0.42458  0.45461  Biso   1.000  H
  C3       1.0000 0.50679  0.43198  0.33211  Biso   1.000  C
  C4       1.0000 0.58090  0.53113  0.34275  Biso   1.000  C
  H4       1.0000 0.60556  0.43871  0.36401  Biso   1.000  H
  C5       1.0000 0.49359  0.36771  0.34298  Biso   1.000  C
  C6       1.0000 0.46589  0.46378  0.28733  Biso   1.000  C
  C7       1.0000 0.61449  0.53670  0.28644  Biso   1.000  C
  C8       1.0000 0.55935  0.58781  0.37020  Biso   1.000  C
  C9       1.0000 0.43874  0.33702  0.31258  Biso   1.000  C
  O1       1.0000 0.53514  0.33514  0.38425  Biso   1.000  O
  C10      1.0000 0.41267  0.43429  0.25375  Biso   1.000  C
  H5       1.0000 0.47463  0.50682  0.27951  Biso   1.000  H
  O2       1.0000 0.63793  0.48516  0.25384  Biso   1.000  O
  C11      1.0000 0.62462  0.59650  0.25970  Biso   1.000  C
  C12      1.0000 0.56934  0.64862  0.34504  Biso   1.000  C
  H6       1.0000 0.53692  0.58488  0.40748  Biso   1.000  H
  C13      1.0000 0.39942  0.37021  0.26785  Biso   1.000  C
  H7       1.0000 0.42852  0.29460  0.32218  Biso   1.000  H
  H8       1.0000 0.52782  0.29652  0.38088  Biso   1.000  H
  C14      1.0000 0.36784  0.46902  0.20442  Biso   1.000  C
  H9       1.0000 0.63211  0.45211  0.27389  Biso   1.000  H
  C15      1.0000 0.60185  0.65117  0.28822  Biso   1.000  C
  H10      1.0000 0.64684  0.59958  0.22232  Biso   1.000  H
  C16      1.0000 0.54502  0.71006  0.37502  Biso   1.000  C
  O3       1.0000 0.34599  0.34071  0.23534  Biso   1.000  O
  C17      1.0000 0.29622  0.47781  0.22836  Biso   1.000  C
  C18      1.0000 0.39809  0.53122  0.18297  Biso   1.000  C
  O4       1.0000 0.61062  0.70948  0.25829  Biso   1.000  O
  C19      1.0000 0.49536  0.74724  0.33174  Biso   1.000  C
  H11      1.0000 0.58485  0.73749  0.38200  Biso   1.000  H
  C20      1.0000 0.51435  0.69992  0.43924  Biso   1.000  C
  H12      1.0000 0.35260  0.30181  0.23412  Biso   1.000  H
  H13      1.0000 0.26844  0.49928  0.19702  Biso   1.000  H
  H14      1.0000 0.27713  0.43650  0.23712  Biso   1.000  H
  H15      1.0000 0.29834  0.50312  0.26602  Biso   1.000  H
  C21      1.0000 0.45601  0.53137  0.14718  Biso   1.000  C
  C22      1.0000 0.37180  0.59108  0.19697  Biso   1.000  C
  H16      1.0000 0.63012  0.70348  0.22559  Biso   1.000  H
  C23      1.0000 0.45468  0.71630  0.28607  Biso   1.000  C
  C24      1.0000 0.48902  0.81348  0.33666  Biso   1.000  C
  H17      1.0000 0.54557  0.67648  0.46609  Biso   1.000  H
  H18      1.0000 0.50523  0.74090  0.45779  Biso   1.000  H
  H19      1.0000 0.47293  0.67610  0.43400  Biso   1.000  H
  O5       1.0000 0.48306  0.47382  0.12999  Biso   1.000  O
  C25      1.0000 0.48471  0.58843  0.12844  Biso   1.000  C
  C26      1.0000 0.39852  0.64977  0.17781  Biso   1.000  C
  H20      1.0000 0.33365  0.59232  0.22091  Biso   1.000  H
  C27      1.0000 0.40959  0.74940  0.24560  Biso   1.000  C
  H21      1.0000 0.45765  0.67192  0.28241  Biso   1.000  H
  C28      1.0000 0.44289  0.84730  0.29895  Biso   1.000  C
  O6       1.0000 0.53051  0.84441  0.38004  Biso   1.000  O
  H22      1.0000 0.51652  0.48031  0.10938  Biso   1.000  H
  H23      1.0000 0.52362  0.58718  0.10549  Biso   1.000  H
  C29      1.0000 0.45704  0.64713  0.14296  Biso   1.000  C
  C30      1.0000 0.36788  0.71347  0.19491  Biso   1.000  C
  C31      1.0000 0.40368  0.81521  0.25361  Biso   1.000  C
  H24      1.0000 0.43821  0.89139  0.30401  Biso   1.000  H
  H25      1.0000 0.52555  0.88342  0.37638  Biso   1.000  H
  O7       1.0000 0.48530  0.70319  0.12352  Biso   1.000  O
  H26      1.0000 0.36792  0.74018  0.15711  Biso   1.000  H
  C32      1.0000 0.29398  0.70910  0.21421  Biso   1.000  C
  O8       1.0000 0.35962  0.85282  0.21829  Biso   1.000  O
  H27      1.0000 0.51879  0.69512  0.10362  Biso   1.000  H
  H28      1.0000 0.26769  0.68662  0.18241  Biso   1.000  H
  H29      1.0000 0.29202  0.68638  0.25309  Biso   1.000  H
  H30      1.0000 0.27612  0.75161  0.21899  Biso   1.000  H
  H31      1.0000 0.35092  0.83519  0.18461  Biso   1.000  H
  C33      1.0000 0.44766  0.53242  0.56094  Biso   1.000  C
  C34      1.0000 0.43481  0.53473  0.63107  Biso   1.000  C
  H32      1.0000 0.41025  0.51201  0.53911  Biso   1.000  H
  H33      1.0000 0.48825  0.50850  0.55429  Biso   1.000  H
  H34      1.0000 0.45277  0.57542  0.54539  Biso   1.000  H
  C35      1.0000 0.41921  0.46887  0.65725  Biso   1.000  C
  H35      1.0000 0.39455  0.56129  0.63598  Biso   1.000  H
  C36      1.0000 0.49332  0.56802  0.66788  Biso   1.000  C
  C37      1.0000 0.44076  0.41219  0.62980  Biso   1.000  C
  C38      1.0000 0.38561  0.46330  0.71356  Biso   1.000  C
  C39      1.0000 0.50652  0.63229  0.65706  Biso   1.000  C
  C40      1.0000 0.53416  0.53622  0.71267  Biso   1.000  C
  C41      1.0000 0.43077  0.35138  0.65500  Biso   1.000  C
  H36      1.0000 0.46313  0.41512  0.59251  Biso   1.000  H
  C42      1.0000 0.37549  0.40350  0.74030  Biso   1.000  C
  O9       1.0000 0.36212  0.51484  0.74616  Biso   1.000  O
  O10      1.0000 0.46497  0.66486  0.61579  Biso   1.000  O
  C43      1.0000 0.56136  0.66298  0.68742  Biso   1.000  C
  C44      1.0000 0.58743  0.56571  0.74625  Biso   1.000  C
  H37      1.0000 0.52547  0.49318  0.72049  Biso   1.000  H
  C45      1.0000 0.45503  0.28994  0.62498  Biso   1.000  C
  C46      1.0000 0.39820  0.34883  0.71178  Biso   1.000  C
  H38      1.0000 0.35327  0.40042  0.77768  Biso   1.000  H
  H39      1.0000 0.36795  0.54789  0.72611  Biso   1.000  H
  H40      1.0000 0.47224  0.70348  0.61912  Biso   1.000  H
  H41      1.0000 0.57159  0.70540  0.67781  Biso   1.000  H
  C47      1.0000 0.60069  0.62979  0.73215  Biso   1.000  C
  C48      1.0000 0.63226  0.53098  0.79558  Biso   1.000  C
  C49      1.0000 0.48576  0.30008  0.56075  Biso   1.000  C
  C50      1.0000 0.50474  0.25276  0.66831  Biso   1.000  C
  H42      1.0000 0.41525  0.26251  0.61800  Biso   1.000  H
  O11      1.0000 0.38948  0.29052  0.74171  Biso   1.000  O
  O12      1.0000 0.65411  0.65929  0.76466  Biso   1.000  O
  C51      1.0000 0.60202  0.46878  0.81703  Biso   1.000  C
  C52      1.0000 0.70388  0.52219  0.77164  Biso   1.000  C
  H43      1.0000 0.45454  0.32352  0.53391  Biso   1.000  H
  H44      1.0000 0.49483  0.25910  0.54220  Biso   1.000  H
  H45      1.0000 0.52717  0.32390  0.56600  Biso   1.000  H
  C53      1.0000 0.51104  0.18652  0.66334  Biso   1.000  C
  C54      1.0000 0.54542  0.28370  0.71393  Biso   1.000  C
  H46      1.0000 0.36998  0.29652  0.77440  Biso   1.000  H
  H47      1.0000 0.64745  0.69819  0.76593  Biso   1.000  H
  C55      1.0000 0.62825  0.40892  0.80302  Biso   1.000  C
  C56      1.0000 0.54409  0.46863  0.85282  Biso   1.000  C
  H48      1.0000 0.73167  0.50072  0.80302  Biso   1.000  H
  H49      1.0000 0.72298  0.56350  0.76288  Biso   1.000  H
  H50      1.0000 0.70176  0.49688  0.73403  Biso   1.000  H
  O13      1.0000 0.46960  0.15559  0.61996  Biso   1.000  O
  C57      1.0000 0.55722  0.15270  0.70105  Biso   1.000  C
  C58      1.0000 0.59052  0.25060  0.75440  Biso   1.000  C
  H51      1.0000 0.54246  0.32808  0.71758  Biso   1.000  H
  C59      1.0000 0.60159  0.35023  0.82218  Biso   1.000  C
  H52      1.0000 0.66646  0.40768  0.77909  Biso   1.000  H
  C60      1.0000 0.51540  0.41157  0.87156  Biso   1.000  C
  O14      1.0000 0.51699  0.52618  0.87001  Biso   1.000  O
  H53      1.0000 0.47455  0.11658  0.62362  Biso   1.000  H
  C61      1.0000 0.59642  0.18479  0.74639  Biso   1.000  C
  H54      1.0000 0.56184  0.10861  0.69599  Biso   1.000  H
  C62      1.0000 0.63218  0.28653  0.80513  Biso   1.000  C
  C63      1.0000 0.54302  0.35287  0.85703  Biso   1.000  C
  H55      1.0000 0.47649  0.41282  0.89451  Biso   1.000  H
  H56      1.0000 0.48358  0.51969  0.89062  Biso   1.000  H
  O15      1.0000 0.64048  0.14718  0.78171  Biso   1.000  O
  H57      1.0000 0.63218  0.25982  0.84289  Biso   1.000  H
  C64      1.0000 0.70612  0.29090  0.78579  Biso   1.000  C
  O16      1.0000 0.51476  0.29681  0.87647  Biso   1.000  O
  H58      1.0000 0.64919  0.16481  0.81539  Biso   1.000  H
  H59      1.0000 0.73236  0.31338  0.81759  Biso   1.000  H
  H60      1.0000 0.70809  0.31362  0.74691  Biso   1.000  H
  H61      1.0000 0.72398  0.24839  0.78101  Biso   1.000  H
  H62      1.0000 0.48127  0.30488  0.89638  Biso   1.000  H
  O17      1.0000 0.64043  0.35282  0.28171  Biso   1.000  O
  C65      1.0000 0.59637  0.31521  0.24639  Biso   1.000  C
  H63      1.0000 0.64913  0.33519  0.31539  Biso   1.000  H
  C66      1.0000 0.55717  0.34730  0.20105  Biso   1.000  C
  C67      1.0000 0.59046  0.24940  0.25440  Biso   1.000  C
  C68      1.0000 0.51098  0.31348  0.16334  Biso   1.000  C
  H64      1.0000 0.56184  0.39139  0.19599  Biso   1.000  H
  C69      1.0000 0.54537  0.21630  0.21393  Biso   1.000  C
  C70      1.0000 0.63213  0.21347  0.30513  Biso   1.000  C
  C71      1.0000 0.50469  0.24724  0.16826  Biso   1.000  C
  O18      1.0000 0.46955  0.34441  0.11996  Biso   1.000  O
  H65      1.0000 0.54240  0.17192  0.21758  Biso   1.000  H
  C72      1.0000 0.60154  0.14977  0.32218  Biso   1.000  C
  H66      1.0000 0.63213  0.24018  0.34289  Biso   1.000  H
  C73      1.0000 0.70607  0.20910  0.28579  Biso   1.000  C
  C74      1.0000 0.45498  0.21006  0.12498  Biso   1.000  C
  H67      1.0000 0.47450  0.38342  0.12362  Biso   1.000  H
  C75      1.0000 0.54302  0.14713  0.35704  Biso   1.000  C
  C76      1.0000 0.62820  0.09108  0.30303  Biso   1.000  C
  H68      1.0000 0.73231  0.18662  0.31759  Biso   1.000  H
  H69      1.0000 0.70804  0.18638  0.24691  Biso   1.000  H
  H70      1.0000 0.72393  0.25161  0.28101  Biso   1.000  H
  C77      1.0000 0.43072  0.14862  0.15500  Biso   1.000  C
  H71      1.0000 0.41520  0.23749  0.11800  Biso   1.000  H
  C78      1.0000 0.48570  0.19992  0.06076  Biso   1.000  C
  O19      1.0000 0.51470  0.20319  0.37648  Biso   1.000  O
  C79      1.0000 0.51534  0.08843  0.37156  Biso   1.000  C
  C80      1.0000 0.60197  0.03122  0.31703  Biso   1.000  C
  H72      1.0000 0.66641  0.09232  0.27909  Biso   1.000  H
  C81      1.0000 0.39815  0.15117  0.21178  Biso   1.000  C
  C82      1.0000 0.44071  0.08781  0.12980  Biso   1.000  C
  H73      1.0000 0.45449  0.17648  0.03391  Biso   1.000  H
  H74      1.0000 0.49483  0.24090  0.04221  Biso   1.000  H
  H75      1.0000 0.52712  0.17610  0.06600  Biso   1.000  H
  H76      1.0000 0.48121  0.19512  0.39638  Biso   1.000  H
  C83      1.0000 0.54404  0.03137  0.35282  Biso   1.000  C
  H77      1.0000 0.47644  0.08718  0.39451  Biso   1.000  H
  C84      1.0000 0.63221  0.96902  0.29558  Biso   1.000  C
  O20      1.0000 0.38943  0.20948  0.24171  Biso   1.000  O
  C85      1.0000 0.37544  0.09650  0.24030  Biso   1.000  C
  C86      1.0000 0.41916  0.03113  0.15725  Biso   1.000  C
  H78      1.0000 0.46313  0.08488  0.09251  Biso   1.000  H
  O21      1.0000 0.51694  0.97382  0.37001  Biso   1.000  O
  C87      1.0000 0.58738  0.93429  0.24625  Biso   1.000  C
  C88      1.0000 0.70383  0.97781  0.27164  Biso   1.000  C
  H79      1.0000 0.36993  0.20348  0.27440  Biso   1.000  H
  H80      1.0000 0.35322  0.09958  0.27768  Biso   1.000  H
  C89      1.0000 0.38556  0.03670  0.21356  Biso   1.000  C
  C90      1.0000 0.43476  0.96527  0.13107  Biso   1.000  C
  H81      1.0000 0.48353  0.98031  0.39062  Biso   1.000  H
  C91      1.0000 0.53411  0.96378  0.21267  Biso   1.000  C
  C92      1.0000 0.60064  0.87021  0.23215  Biso   1.000  C
  H82      1.0000 0.70171  0.00312  0.23398  Biso   1.000  H
  H83      1.0000 0.73161  0.99928  0.30298  Biso   1.000  H
  H84      1.0000 0.72292  0.93650  0.26288  Biso   1.000  H
  O22      1.0000 0.36212  0.98516  0.24616  Biso   1.000  O
  H85      1.0000 0.39450  0.93871  0.13598  Biso   1.000  H
  C93      1.0000 0.44760  0.96758  0.06094  Biso   1.000  C
  C94      1.0000 0.49327  0.93198  0.16788  Biso   1.000  C
  H86      1.0000 0.52542  0.00682  0.22049  Biso   1.000  H
  C95      1.0000 0.56131  0.83702  0.18742  Biso   1.000  C
  O23      1.0000 0.65406  0.84071  0.26466  Biso   1.000  O
  H87      1.0000 0.36794  0.95211  0.22611  Biso   1.000  H
  H88      1.0000 0.41020  0.98799  0.03911  Biso   1.000  H
  H89      1.0000 0.48819  0.99150  0.05429  Biso   1.000  H
  H90      1.0000 0.45272  0.92458  0.04539  Biso   1.000  H
  C96      1.0000 0.50647  0.86771  0.15706  Biso   1.000  C
  H91      1.0000 0.57153  0.79460  0.17781  Biso   1.000  H
  H92      1.0000 0.64740  0.80181  0.26588  Biso   1.000  H
  O24      1.0000 0.46492  0.83514  0.11575  Biso   1.000  O
  H93      1.0000 0.47223  0.79652  0.11912  Biso   1.000  H
  O25      1.0000 0.35968  0.64718  0.71829  Biso   1.000  O
  H94      1.0000 0.35097  0.66481  0.68461  Biso   1.000  H
  C97      1.0000 0.40369  0.68479  0.75361  Biso   1.000  C
  C98      1.0000 0.40964  0.75060  0.74560  Biso   1.000  C
  C99      1.0000 0.44294  0.65270  0.79895  Biso   1.000  C
  C100     1.0000 0.36793  0.78653  0.69491  Biso   1.000  C
  C101     1.0000 0.45473  0.78370  0.78607  Biso   1.000  C
  H95      1.0000 0.43827  0.60861  0.80401  Biso   1.000  H
  C102     1.0000 0.48907  0.68652  0.83666  Biso   1.000  C
  C103     1.0000 0.39857  0.85023  0.67781  Biso   1.000  C
  H96      1.0000 0.36797  0.75982  0.65711  Biso   1.000  H
  C104     1.0000 0.29403  0.79090  0.71421  Biso   1.000  C
  C105     1.0000 0.49542  0.75276  0.83174  Biso   1.000  C
  H97      1.0000 0.45765  0.82808  0.78241  Biso   1.000  H
  O26      1.0000 0.53051  0.65559  0.88003  Biso   1.000  O
  C106     1.0000 0.45709  0.85287  0.64296  Biso   1.000  C
  C107     1.0000 0.37186  0.90892  0.69697  Biso   1.000  C
  H98      1.0000 0.26775  0.81338  0.68240  Biso   1.000  H
  H99      1.0000 0.29207  0.81362  0.75309  Biso   1.000  H
  H100     1.0000 0.27618  0.74839  0.71899  Biso   1.000  H
  C108     1.0000 0.54508  0.78994  0.87502  Biso   1.000  C
  H101     1.0000 0.52560  0.61658  0.87638  Biso   1.000  H
  O27      1.0000 0.48535  0.79681  0.62352  Biso   1.000  O
  C109     1.0000 0.48476  0.91157  0.62844  Biso   1.000  C
  C110     1.0000 0.39814  0.96878  0.68297  Biso   1.000  C
  H102     1.0000 0.33365  0.90768  0.72091  Biso   1.000  H
  C111     1.0000 0.56939  0.85138  0.84504  Biso   1.000  C
  H103     1.0000 0.58490  0.76251  0.88200  Biso   1.000  H
  C112     1.0000 0.51440  0.80008  0.93924  Biso   1.000  C
  H104     1.0000 0.51884  0.80488  0.60362  Biso   1.000  H
  C113     1.0000 0.45606  0.96863  0.64718  Biso   1.000  C
  H105     1.0000 0.52367  0.91282  0.60549  Biso   1.000  H
  C114     1.0000 0.36790  0.03098  0.70442  Biso   1.000  C
  C115     1.0000 0.60191  0.84883  0.78822  Biso   1.000  C
  C116     1.0000 0.55940  0.91219  0.87024  Biso   1.000  C
  H106     1.0000 0.54557  0.82352  0.96608  Biso   1.000  H
  H107     1.0000 0.50528  0.75910  0.95779  Biso   1.000  H
  H108     1.0000 0.47299  0.82390  0.93400  Biso   1.000  H
  O28      1.0000 0.48311  0.02618  0.62999  Biso   1.000  O
  C117     1.0000 0.41268  0.06571  0.75375  Biso   1.000  C
  C118     1.0000 0.29622  0.02219  0.72836  Biso   1.000  C
  O29      1.0000 0.61068  0.79052  0.75829  Biso   1.000  O
  C119     1.0000 0.62467  0.90350  0.75970  Biso   1.000  C
  C120     1.0000 0.58095  0.96887  0.84275  Biso   1.000  C
  H109     1.0000 0.53697  0.91512  0.90748  Biso   1.000  H
  H110     1.0000 0.51658  0.01969  0.60942  Biso   1.000  H
  C121     1.0000 0.39947  0.12979  0.76785  Biso   1.000  C
  C122     1.0000 0.46595  0.03622  0.78733  Biso   1.000  C
  H111     1.0000 0.29839  0.99688  0.76602  Biso   1.000  H
  H112     1.0000 0.26844  0.00072  0.69702  Biso   1.000  H
  H113     1.0000 0.27718  0.06350  0.73712  Biso   1.000  H
  H114     1.0000 0.63018  0.79652  0.72559  Biso   1.000  H
  H115     1.0000 0.64689  0.90042  0.72231  Biso   1.000  H
  C123     1.0000 0.61455  0.96330  0.78644  Biso   1.000  C
  C124     1.0000 0.56530  0.03473  0.86893  Biso   1.000  C
  O30      1.0000 0.34605  0.15929  0.73534  Biso   1.000  O
  C125     1.0000 0.43880  0.16298  0.81258  Biso   1.000  C
  H116     1.0000 0.47468  0.99318  0.77951  Biso   1.000  H
  C126     1.0000 0.50684  0.06802  0.83211  Biso   1.000  C
  O31      1.0000 0.63799  0.01484  0.75384  Biso   1.000  O
  H117     1.0000 0.60556  0.06129  0.86401  Biso   1.000  H
  C127     1.0000 0.55250  0.03242  0.93906  Biso   1.000  C
  H118     1.0000 0.35265  0.19819  0.73412  Biso   1.000  H
  C128     1.0000 0.49364  0.13229  0.84298  Biso   1.000  C
  H119     1.0000 0.42857  0.20540  0.82218  Biso   1.000  H
  H120     1.0000 0.63216  0.04789  0.77389  Biso   1.000  H
  H121     1.0000 0.58991  0.01201  0.96088  Biso   1.000  H
  H122     1.0000 0.51191  0.00850  0.94571  Biso   1.000  H
  H123     1.0000 0.54738  0.07542  0.95461  Biso   1.000  H
  O32      1.0000 0.53519  0.16486  0.88425  Biso   1.000  O
  H124     1.0000 0.52787  0.20348  0.88092  Biso   1.000  H
  C129     1.0000 0.79646  0.43938  0.24002  Biso   1.000  C
  C130     1.0000 0.86612  0.42987  0.21281  Biso   1.000  C
  H125     1.0000 0.76763  0.46181  0.21018  Biso   1.000  H
  H126     1.0000 0.80111  0.46402  0.27792  Biso   1.000  H
  H127     1.0000 0.77712  0.39831  0.24902  Biso   1.000  H
  C131     1.0000 0.89594  0.49183  0.18859  Biso   1.000  C
  C132     1.0000 0.91293  0.39423  0.26007  Biso   1.000  C
  H128     1.0000 0.85952  0.40138  0.17660  Biso   1.000  H
  C133     1.0000 0.95320  0.49169  0.15163  Biso   1.000  C
  C134     1.0000 0.86964  0.55188  0.20222  Biso   1.000  C
  C135     1.0000 0.90059  0.33072  0.27450  Biso   1.000  C
  C136     1.0000 0.96674  0.42468  0.29230  Biso   1.000  C
  O33      1.0000 0.98119  0.43429  0.13500  Biso   1.000  O
  C137     1.0000 0.98076  0.54885  0.13097  Biso   1.000  C
  C138     1.0000 0.89504  0.61000  0.18198  Biso   1.000  C
  H129     1.0000 0.83212  0.55322  0.22691  Biso   1.000  H
  O34      1.0000 0.84667  0.30099  0.24325  Biso   1.000  O
  C139     1.0000 0.94156  0.29772  0.31750  Biso   1.000  C
  H130     1.0000 0.97491  0.46782  0.28401  Biso   1.000  H
  C140     1.0000 0.00872  0.39312  0.33638  Biso   1.000  C
  H131     1.0000 0.01391  0.44101  0.11369  Biso   1.000  H
  C141     1.0000 0.95289  0.60726  0.14573  Biso   1.000  C
  H132     1.0000 0.01870  0.54760  0.10680  Biso   1.000  H
  C142     1.0000 0.86528  0.67437  0.19955  Biso   1.000  C
  H133     1.0000 0.85371  0.26232  0.24152  Biso   1.000  H
  C143     1.0000 0.99602  0.32842  0.34710  Biso   1.000  C
  H134     1.0000 0.93252  0.25492  0.32649  Biso   1.000  H
  C144     1.0000 0.06657  0.42727  0.37310  Biso   1.000  C
  O35      1.0000 0.98026  0.66337  0.12437  Biso   1.000  O
  H135     1.0000 0.86233  0.70050  0.16142  Biso   1.000  H
  C145     1.0000 0.79373  0.66923  0.22400  Biso   1.000  C
  C146     1.0000 0.91089  0.71030  0.24719  Biso   1.000  C
  O36      1.0000 0.03948  0.29527  0.38720  Biso   1.000  O
  C147     1.0000 0.08218  0.49222  0.34504  Biso   1.000  C
  H136     1.0000 0.10703  0.40061  0.36940  Biso   1.000  H
  C148     1.0000 0.05219  0.43093  0.44299  Biso   1.000  C
  H137     1.0000 0.01333  0.65511  0.10399  Biso   1.000  H
  H138     1.0000 0.76520  0.64660  0.19402  Biso   1.000  H
  H139     1.0000 0.77594  0.71150  0.23019  Biso   1.000  H
  H140     1.0000 0.79531  0.64641  0.26312  Biso   1.000  H
  C149     1.0000 0.90652  0.77654  0.25450  Biso   1.000  C
  C150     1.0000 0.95686  0.67768  0.28682  Biso   1.000  C
  H141     1.0000 0.03294  0.25660  0.38308  Biso   1.000  H
  C151     1.0000 0.11620  0.49548  0.28916  Biso   1.000  C
  C152     1.0000 0.06139  0.55034  0.37128  Biso   1.000  C
  H142     1.0000 0.08885  0.45249  0.46501  Biso   1.000  H
  H143     1.0000 0.04762  0.38832  0.45939  Biso   1.000  H
  H144     1.0000 0.01104  0.45432  0.44828  Biso   1.000  H
  O37      1.0000 0.86083  0.81367  0.21988  Biso   1.000  O
  C153     1.0000 0.94762  0.80911  0.29820  Biso   1.000  C
  C154     1.0000 0.99938  0.70871  0.33076  Biso   1.000  C
  H145     1.0000 0.95925  0.63320  0.28382  Biso   1.000  H
  O38      1.0000 0.13927  0.44337  0.25848  Biso   1.000  O
  C155     1.0000 0.12694  0.55409  0.26031  Biso   1.000  C
  C156     1.0000 0.07231  0.60995  0.34425  Biso   1.000  C
  H146     1.0000 0.03902  0.54890  0.40870  Biso   1.000  H
  H147     1.0000 0.86532  0.85152  0.23000  Biso   1.000  H
  H148     1.0000 0.94383  0.85340  0.30251  Biso   1.000  H
  C157     1.0000 0.99444  0.77510  0.33535  Biso   1.000  C
  C158     1.0000 0.05085  0.67259  0.37277  Biso   1.000  C
  H149     1.0000 0.13070  0.41080  0.27811  Biso   1.000  H
  C159     1.0000 0.10411  0.60995  0.28729  Biso   1.000  C
  H150     1.0000 0.14942  0.55582  0.22302  Biso   1.000  H
  O39      1.0000 0.03800  0.80627  0.37657  Biso   1.000  O
  H151     1.0000 0.09124  0.69968  0.37638  Biso   1.000  H
  C160     1.0000 0.02444  0.66611  0.43868  Biso   1.000  C
  O40      1.0000 0.11258  0.66707  0.25520  Biso   1.000  O
  H152     1.0000 0.03235  0.84518  0.37329  Biso   1.000  H
  H153     1.0000 0.98272  0.64262  0.43681  Biso   1.000  H
  H154     1.0000 0.05705  0.64358  0.46491  Biso   1.000  H
  H155     1.0000 0.01682  0.70809  0.45569  Biso   1.000  H
  H156     1.0000 0.13173  0.65991  0.22260  Biso   1.000  H
  C161     1.0000 0.20359  0.56062  0.75998  Biso   1.000  C
  C162     1.0000 0.13399  0.57013  0.78719  Biso   1.000  C
  H157     1.0000 0.23247  0.53819  0.78982  Biso   1.000  H
  H158     1.0000 0.19899  0.53598  0.72208  Biso   1.000  H
  H159     1.0000 0.22298  0.60169  0.75098  Biso   1.000  H
  C163     1.0000 0.10417  0.50817  0.81141  Biso   1.000  C
  C164     1.0000 0.08718  0.60577  0.73993  Biso   1.000  C
  H160     1.0000 0.14058  0.59862  0.82340  Biso   1.000  H
  C165     1.0000 0.13042  0.44812  0.79778  Biso   1.000  C
  C166     1.0000 0.04690  0.50831  0.84837  Biso   1.000  C
  C167     1.0000 0.03336  0.57532  0.70770  Biso   1.000  C
  C168     1.0000 0.09951  0.66928  0.72550  Biso   1.000  C
  C169     1.0000 0.10506  0.39000  0.81801  Biso   1.000  C
  H161     1.0000 0.16799  0.44678  0.77309  Biso   1.000  H
  C170     1.0000 0.01935  0.45115  0.86903  Biso   1.000  C
  O41      1.0000 0.01892  0.56571  0.86500  Biso   1.000  O
  C171     1.0000 0.99139  0.60688  0.66362  Biso   1.000  C
  H162     1.0000 0.02515  0.53218  0.71599  Biso   1.000  H
  C172     1.0000 0.05849  0.70228  0.68250  Biso   1.000  C
  O42      1.0000 0.15338  0.69901  0.75674  Biso   1.000  O
  C173     1.0000 0.13478  0.32563  0.80050  Biso   1.000  C
  C174     1.0000 0.04716  0.39274  0.85427  Biso   1.000  C
  H163     1.0000 0.98140  0.45240  0.89320  Biso   1.000  H
  H164     1.0000 0.98620  0.55899  0.88631  Biso   1.000  H
  C175     1.0000 0.93349  0.57273  0.62690  Biso   1.000  C
  C176     1.0000 0.00409  0.67158  0.65289  Biso   1.000  C
  H165     1.0000 0.06758  0.74508  0.67350  Biso   1.000  H
  H166     1.0000 0.14640  0.73768  0.75852  Biso   1.000  H
  C177     1.0000 0.08921  0.28970  0.75281  Biso   1.000  C
  H167     1.0000 0.13777  0.29950  0.83863  Biso   1.000  H
  C178     1.0000 0.20637  0.33077  0.77600  Biso   1.000  C
  O43      1.0000 0.01984  0.33663  0.87563  Biso   1.000  O
  C179     1.0000 0.91792  0.50778  0.65496  Biso   1.000  C
  H168     1.0000 0.89307  0.59939  0.63060  Biso   1.000  H
  C180     1.0000 0.94791  0.56907  0.55701  Biso   1.000  C
  O44      1.0000 0.96062  0.70473  0.61280  Biso   1.000  O
  C181     1.0000 0.09358  0.22346  0.74550  Biso   1.000  C
  C182     1.0000 0.04319  0.32232  0.71318  Biso   1.000  C
  H169     1.0000 0.23485  0.35340  0.80602  Biso   1.000  H
  H170     1.0000 0.22417  0.28850  0.76981  Biso   1.000  H
  H171     1.0000 0.20479  0.35359  0.73688  Biso   1.000  H
  H172     1.0000 0.98678  0.34489  0.89601  Biso   1.000  H
  C183     1.0000 0.93872  0.44966  0.62872  Biso   1.000  C
  C184     1.0000 0.88390  0.50452  0.71089  Biso   1.000  C
  H173     1.0000 0.91126  0.54751  0.53499  Biso   1.000  H
  H174     1.0000 0.95244  0.61168  0.54061  Biso   1.000  H
  H175     1.0000 0.98907  0.54568  0.55171  Biso   1.000  H
  H176     1.0000 0.96717  0.74340  0.61692  Biso   1.000  H
  C185     1.0000 0.05248  0.19089  0.70180  Biso   1.000  C
  O45      1.0000 0.13927  0.18633  0.78012  Biso   1.000  O
  C186     1.0000 0.00072  0.29129  0.66924  Biso   1.000  C
  H177     1.0000 0.04086  0.36680  0.71623  Biso   1.000  H
  C187     1.0000 0.92780  0.39005  0.65575  Biso   1.000  C
  H178     1.0000 0.96104  0.45110  0.59130  Biso   1.000  H
  C188     1.0000 0.87312  0.44591  0.73969  Biso   1.000  C
  O46      1.0000 0.86083  0.55663  0.74152  Biso   1.000  O
  C189     1.0000 0.00567  0.22490  0.66465  Biso   1.000  C
  H179     1.0000 0.05628  0.14660  0.69749  Biso   1.000  H
  H180     1.0000 0.13479  0.14848  0.77000  Biso   1.000  H
  C190     1.0000 0.94925  0.32741  0.62722  Biso   1.000  C
  C191     1.0000 0.89600  0.39005  0.71271  Biso   1.000  C
  H181     1.0000 0.85069  0.44418  0.77698  Biso   1.000  H
  H182     1.0000 0.86935  0.58920  0.72189  Biso   1.000  H
  O47      1.0000 0.96210  0.19373  0.62343  Biso   1.000  O
  H183     1.0000 0.90887  0.30032  0.62362  Biso   1.000  H
  C192     1.0000 0.97566  0.33389  0.56132  Biso   1.000  C
  O48      1.0000 0.88752  0.33293  0.74480  Biso   1.000  O
  H184     1.0000 0.96775  0.15482  0.62671  Biso   1.000  H
  H185     1.0000 0.01733  0.35738  0.56319  Biso   1.000  H
  H186     1.0000 0.94306  0.35642  0.53508  Biso   1.000  H
  H187     1.0000 0.98324  0.29191  0.54431  Biso   1.000  H
  H188     1.0000 0.86837  0.34009  0.77740  Biso   1.000  H
  O49      1.0000 0.86083  0.68633  0.71988  Biso   1.000  O
  H189     1.0000 0.86537  0.64848  0.73000  Biso   1.000  H
  C193     1.0000 0.90653  0.72346  0.75450  Biso   1.000  C
  C194     1.0000 0.91095  0.78970  0.74719  Biso   1.000  C
  C195     1.0000 0.94762  0.69089  0.79820  Biso   1.000  C
  C196     1.0000 0.86533  0.82563  0.69955  Biso   1.000  C
  C197     1.0000 0.95692  0.82232  0.78686  Biso   1.000  C
  H190     1.0000 0.94388  0.64660  0.80251  Biso   1.000  H
  C198     1.0000 0.99449  0.72490  0.83535  Biso   1.000  C
  C199     1.0000 0.89509  0.89000  0.68198  Biso   1.000  C
  H191     1.0000 0.86239  0.79950  0.66142  Biso   1.000  H
  C200     1.0000 0.79379  0.83077  0.72400  Biso   1.000  C
  C201     1.0000 0.99944  0.79129  0.83076  Biso   1.000  C
  H192     1.0000 0.95925  0.86680  0.78382  Biso   1.000  H
  O50      1.0000 0.03800  0.69373  0.87657  Biso   1.000  O
  C202     1.0000 0.95295  0.89274  0.64573  Biso   1.000  C
  C203     1.0000 0.86969  0.94812  0.70222  Biso   1.000  C
  H193     1.0000 0.76526  0.85340  0.69402  Biso   1.000  H
  H194     1.0000 0.77599  0.78850  0.73018  Biso   1.000  H
  H195     1.0000 0.79536  0.85359  0.76311  Biso   1.000  H
  C204     1.0000 0.05086  0.82741  0.87277  Biso   1.000  C
  H196     1.0000 0.03241  0.65482  0.87329  Biso   1.000  H
  O51      1.0000 0.98032  0.83663  0.62437  Biso   1.000  O
  C205     1.0000 0.98081  0.95115  0.63097  Biso   1.000  C
  H197     1.0000 0.83217  0.94678  0.72691  Biso   1.000  H
  C206     1.0000 0.89599  0.00817  0.68859  Biso   1.000  C
  H198     1.0000 0.09129  0.80032  0.87638  Biso   1.000  H
  C207     1.0000 0.02450  0.83389  0.93868  Biso   1.000  C
  C208     1.0000 0.07236  0.89005  0.84425  Biso   1.000  C
  H199     1.0000 0.01333  0.84489  0.60399  Biso   1.000  H
  C209     1.0000 0.95326  0.00831  0.65163  Biso   1.000  C
  H200     1.0000 0.01876  0.95240  0.60680  Biso   1.000  H
  C210     1.0000 0.86617  0.07013  0.71281  Biso   1.000  C
  H201     1.0000 0.98278  0.85738  0.93681  Biso   1.000  H
  H202     1.0000 0.05710  0.85642  0.96491  Biso   1.000  H
  H203     1.0000 0.01687  0.79191  0.95569  Biso   1.000  H
  C211     1.0000 0.10416  0.89005  0.78729  Biso   1.000  C
  C212     1.0000 0.06144  0.94966  0.87127  Biso   1.000  C
  O52      1.0000 0.98119  0.06571  0.63500  Biso   1.000  O
  C213     1.0000 0.91298  0.10577  0.76007  Biso   1.000  C
  H204     1.0000 0.85957  0.09862  0.67660  Biso   1.000  H
  C214     1.0000 0.79651  0.06062  0.74002  Biso   1.000  C
  O53      1.0000 0.11263  0.83293  0.75520  Biso   1.000  O
  C215     1.0000 0.12699  0.94591  0.76030  Biso   1.000  C
  H205     1.0000 0.03907  0.95110  0.90870  Biso   1.000  H
  C216     1.0000 0.08224  0.00778  0.84504  Biso   1.000  C
  H206     1.0000 0.01396  0.05899  0.61369  Biso   1.000  H
  C217     1.0000 0.90065  0.16928  0.77450  Biso   1.000  C
  C218     1.0000 0.96680  0.07532  0.79230  Biso   1.000  C
  H207     1.0000 0.76769  0.03819  0.71018  Biso   1.000  H
  H208     1.0000 0.80117  0.03598  0.77792  Biso   1.000  H
  H209     1.0000 0.77718  0.10169  0.74902  Biso   1.000  H
  H210     1.0000 0.13178  0.84009  0.72260  Biso   1.000  H
  H211     1.0000 0.14947  0.94418  0.72302  Biso   1.000  H
  C219     1.0000 0.11626  0.00452  0.78916  Biso   1.000  C
  C220     1.0000 0.06662  0.07273  0.87310  Biso   1.000  C
  O54      1.0000 0.84672  0.19901  0.74325  Biso   1.000  O
  C221     1.0000 0.94162  0.20228  0.81755  Biso   1.000  C
  H212     1.0000 0.97496  0.03218  0.78401  Biso   1.000  H
  C222     1.0000 0.00877  0.10688  0.83638  Biso   1.000  C
  O55      1.0000 0.13933  0.05663  0.75848  Biso   1.000  O
  H213     1.0000 0.10708  0.09939  0.86940  Biso   1.000  H
  C223     1.0000 0.05220  0.06907  0.94299  Biso   1.000  C
  H214     1.0000 0.85376  0.23768  0.74152  Biso   1.000  H
  C224     1.0000 0.99607  0.17158  0.84710  Biso   1.000  C
  H215     1.0000 0.93257  0.24508  0.82649  Biso   1.000  H
  H216     1.0000 0.13076  0.08920  0.77810  Biso   1.000  H
  H217     1.0000 0.08890  0.04751  0.96501  Biso   1.000  H
  H218     1.0000 0.04767  0.11168  0.95939  Biso   1.000  H
  H219     1.0000 0.01109  0.04568  0.94828  Biso   1.000  H
  O56      1.0000 0.03953  0.20473  0.88720  Biso   1.000  O
  H220     1.0000 0.03299  0.24340  0.88313  Biso   1.000  H
  O57      1.0000 0.13922  0.31367  0.28012  Biso   1.000  O
  C225     1.0000 0.09353  0.27654  0.24550  Biso   1.000  C
  H221     1.0000 0.13474  0.35152  0.27000  Biso   1.000  H
  C226     1.0000 0.08916  0.21030  0.25281  Biso   1.000  C
  C227     1.0000 0.05243  0.30911  0.20180  Biso   1.000  C
  C228     1.0000 0.13477  0.17437  0.30045  Biso   1.000  C
  C229     1.0000 0.04319  0.17768  0.21318  Biso   1.000  C
  H222     1.0000 0.05623  0.35340  0.19749  Biso   1.000  H
  C230     1.0000 0.00561  0.27510  0.16465  Biso   1.000  C
  C231     1.0000 0.20632  0.16923  0.27600  Biso   1.000  C
  C232     1.0000 0.10501  0.11000  0.31802  Biso   1.000  C
  H223     1.0000 0.13772  0.20050  0.33858  Biso   1.000  H
  C233     1.0000 0.00067  0.20871  0.16924  Biso   1.000  C
  H224     1.0000 0.04080  0.13320  0.21618  Biso   1.000  H
  O58      1.0000 0.96205  0.30627  0.12343  Biso   1.000  O
  H225     1.0000 0.23485  0.14660  0.30602  Biso   1.000  H
  H226     1.0000 0.22411  0.21150  0.26981  Biso   1.000  H
  H227     1.0000 0.20474  0.14641  0.23688  Biso   1.000  H
  C234     1.0000 0.04711  0.10726  0.35427  Biso   1.000  C
  C235     1.0000 0.13041  0.05188  0.29778  Biso   1.000  C
  C236     1.0000 0.94920  0.17259  0.12722  Biso   1.000  C
  H228     1.0000 0.96770  0.34518  0.12671  Biso   1.000  H
  O59      1.0000 0.01979  0.16337  0.37563  Biso   1.000  O
  C237     1.0000 0.01930  0.04885  0.36903  Biso   1.000  C
  H229     1.0000 0.16793  0.05322  0.27309  Biso   1.000  H
  C238     1.0000 0.10411  0.99183  0.31141  Biso   1.000  C
  H230     1.0000 0.90881  0.19968  0.12362  Biso   1.000  H
  C239     1.0000 0.97561  0.16611  0.06132  Biso   1.000  C
  C240     1.0000 0.92775  0.10995  0.15575  Biso   1.000  C
  H231     1.0000 0.98672  0.15511  0.39601  Biso   1.000  H
  H232     1.0000 0.98135  0.04760  0.39320  Biso   1.000  H
  C241     1.0000 0.04685  0.99169  0.34837  Biso   1.000  C
  C242     1.0000 0.13393  0.92987  0.28719  Biso   1.000  C
  H233     1.0000 0.01733  0.14262  0.06319  Biso   1.000  H
  H234     1.0000 0.94300  0.14358  0.03509  Biso   1.000  H
  H235     1.0000 0.98318  0.20809  0.04431  Biso   1.000  H
  C243     1.0000 0.89594  0.10995  0.21271  Biso   1.000  C
  C244     1.0000 0.93867  0.05034  0.12872  Biso   1.000  C
  O60      1.0000 0.01886  0.93429  0.36500  Biso   1.000  O
  C245     1.0000 0.08712  0.89423  0.23993  Biso   1.000  C
  H236     1.0000 0.14053  0.90138  0.32340  Biso   1.000  H
  C246     1.0000 0.20354  0.93938  0.25998  Biso   1.000  C
  O61      1.0000 0.88747  0.16707  0.24480  Biso   1.000  O
  C247     1.0000 0.87311  0.05409  0.23969  Biso   1.000  C
  C248     1.0000 0.91787  0.99222  0.15496  Biso   1.000  C
  H237     1.0000 0.96098  0.04890  0.09130  Biso   1.000  H
  H238     1.0000 0.98614  0.94101  0.38631  Biso   1.000  H
  C249     1.0000 0.09946  0.83072  0.22550  Biso   1.000  C
  C250     1.0000 0.03331  0.92468  0.20770  Biso   1.000  C
  H239     1.0000 0.23242  0.96181  0.28982  Biso   1.000  H
  H240     1.0000 0.19894  0.96402  0.22208  Biso   1.000  H
  H241     1.0000 0.22293  0.89831  0.25098  Biso   1.000  H
  H242     1.0000 0.86832  0.15991  0.27740  Biso   1.000  H
  C251     1.0000 0.88385  0.99548  0.21084  Biso   1.000  C
  H243     1.0000 0.85064  0.05582  0.27698  Biso   1.000  H
  C252     1.0000 0.93349  0.92727  0.12690  Biso   1.000  C
  O62      1.0000 0.15333  0.80099  0.25674  Biso   1.000  O
  C253     1.0000 0.05849  0.79772  0.18250  Biso   1.000  C
  C254     1.0000 0.99134  0.89312  0.16362  Biso   1.000  C
  H244     1.0000 0.02510  0.96782  0.21599  Biso   1.000  H
  O63      1.0000 0.86078  0.94337  0.24152  Biso   1.000  O
  H245     1.0000 0.89302  0.90061  0.13060  Biso   1.000  H
  C255     1.0000 0.94786  0.93093  0.05701  Biso   1.000  C
  H246     1.0000 0.14634  0.76232  0.25848  Biso   1.000  H
  C256     1.0000 0.00404  0.82842  0.15289  Biso   1.000  C
  H247     1.0000 0.06753  0.75492  0.17351  Biso   1.000  H
  H248     1.0000 0.86930  0.91080  0.22189  Biso   1.000  H
  H249     1.0000 0.91120  0.95249  0.03499  Biso   1.000  H
  H250     1.0000 0.95238  0.88832  0.04061  Biso   1.000  H
  H251     1.0000 0.98901  0.95432  0.05171  Biso   1.000  H
  O64      1.0000 0.96057  0.79527  0.11280  Biso   1.000  O
  H252     1.0000 0.96711  0.75660  0.11692  Biso   1.000  H
