data_image0
_cell_length_a       10.06
_cell_length_b       12.56
_cell_length_c       17.568
_cell_angle_alpha    93.97
_cell_angle_beta     93.78
_cell_angle_gamma    96.38

_symmetry_space_group_name_H-M    "P 1"
_symmetry_int_tables_number       1

loop_
  _symmetry_equiv_pos_as_xyz
  'x, y, z'

loop_
  _atom_site_label
  _atom_site_occupancy
  _atom_site_fract_x
  _atom_site_fract_y
  _atom_site_fract_z
  _atom_site_thermal_displace_type
  _atom_site_B_iso_or_equiv
  _atom_site_type_symbol
  C1       1.0000 0.60914  0.43765  0.55185  Biso   1.000  C
  C2       1.0000 0.50658  0.35402  0.53709  Biso   1.000  C
  C3       1.0000 0.68624  0.47125  0.49372  Biso   1.000  C
  H1       1.0000 0.62304  0.47746  0.60129  Biso   1.000  H
  C4       1.0000 0.48245  0.29977  0.46460  Biso   1.000  C
  O1       1.0000 0.42254  0.32508  0.59236  Biso   1.000  O
  C5       1.0000 0.66672  0.41961  0.42014  Biso   1.000  C
  O2       1.0000 0.78094  0.55913  0.51363  Biso   1.000  O
  C6       1.0000 0.36861  0.20767  0.45012  Biso   1.000  C
  C7       1.0000 0.56435  0.33456  0.40790  Biso   1.000  C
  H2       1.0000 0.44309  0.37375  0.63190  Biso   1.000  H
  C8       1.0000 0.75725  0.45459  0.35783  Biso   1.000  C
  H3       1.0000 0.81006  0.58734  0.47610  Biso   1.000  H
  C9       1.0000 0.34078  0.17341  0.36544  Biso   1.000  C
  C10      1.0000 0.39318  0.11353  0.49813  Biso   1.000  C
  H4       1.0000 0.28506  0.23292  0.47021  Biso   1.000  H
  H5       1.0000 0.54834  0.29947  0.35692  Biso   1.000  H
  C11      1.0000 0.70077  0.41216  0.27761  Biso   1.000  C
  C12      1.0000 0.89963  0.42548  0.37683  Biso   1.000  C
  H6       1.0000 0.76343  0.52998  0.35863  Biso   1.000  H
  C13      1.0000 0.27309  0.23738  0.31772  Biso   1.000  C
  C14      1.0000 0.38553  0.08129  0.33151  Biso   1.000  C
  H7       1.0000 0.39684  0.13677  0.55283  Biso   1.000  H
  H8       1.0000 0.47806  0.08428  0.48840  Biso   1.000  H
  H9       1.0000 0.32162  0.05365  0.48668  Biso   1.000  H
  C15      1.0000 0.58583  0.44907  0.24409  Biso   1.000  C
  C16      1.0000 0.75921  0.33588  0.23390  Biso   1.000  C
  H10      1.0000 0.93561  0.45934  0.42752  Biso   1.000  H
  H11      1.0000 0.96122  0.45321  0.33701  Biso   1.000  H
  H12      1.0000 0.89569  0.34527  0.37883  Biso   1.000  H
  C17      1.0000 0.25501  0.21092  0.23922  Biso   1.000  C
  O3       1.0000 0.22302  0.32941  0.34267  Biso   1.000  O
  C18      1.0000 0.36805  0.05102  0.25330  Biso   1.000  C
  H13      1.0000 0.43444  0.03491  0.36413  Biso   1.000  H
  O4       1.0000 0.52666  0.52677  0.28322  Biso   1.000  O
  C19      1.0000 0.53264  0.40826  0.17142  Biso   1.000  C
  C20      1.0000 0.71130  0.29529  0.16021  Biso   1.000  C
  H14      1.0000 0.83763  0.30954  0.25690  Biso   1.000  H
  C21      1.0000 0.30338  0.11996  0.20861  Biso   1.000  C
  H15      1.0000 0.21187  0.25555  0.20529  Biso   1.000  H
  H16      1.0000 0.23904  0.34603  0.39182  Biso   1.000  H
  C22      1.0000 0.41628  0.95063  0.21559  Biso   1.000  C
  H17      1.0000 0.44598  0.53503  0.25890  Biso   1.000  H
  C23      1.0000 0.59472  0.33263  0.13005  Biso   1.000  C
  H18      1.0000 0.45258  0.43222  0.15002  Biso   1.000  H
  C24      1.0000 0.77730  0.21127  0.11460  Biso   1.000  C
  O5       1.0000 0.28751  0.09912  0.12948  Biso   1.000  O
  C25      1.0000 0.47412  0.87756  0.27241  Biso   1.000  C
  C26      1.0000 0.51653  0.97829  0.15592  Biso   1.000  C
  H19      1.0000 0.33826  0.90824  0.18819  Biso   1.000  H
  O6       1.0000 0.54298  0.29497  0.05756  Biso   1.000  O
  C27      1.0000 0.69253  0.10247  0.10865  Biso   1.000  C
  C28      1.0000 0.92167  0.20171  0.14464  Biso   1.000  C
  H20      1.0000 0.78263  0.23391  0.06111  Biso   1.000  H
  H21      1.0000 0.36605  0.06502  0.11203  Biso   1.000  H
  H22      1.0000 0.40920  0.85538  0.30948  Biso   1.000  H
  H23      1.0000 0.49572  0.81347  0.24283  Biso   1.000  H
  H24      1.0000 0.55905  0.91597  0.30079  Biso   1.000  H
  C29      1.0000 0.60084  0.07451  0.16187  Biso   1.000  C
  C30      1.0000 0.52657  0.90707  0.09240  Biso   1.000  C
  H25      1.0000 0.46897  0.31928  0.04680  Biso   1.000  H
  C31      1.0000 0.70356  0.02668  0.04800  Biso   1.000  C
  H26      1.0000 0.92488  0.17365  0.19768  Biso   1.000  H
  H27      1.0000 0.96123  0.14941  0.11003  Biso   1.000  H
  H28      1.0000 0.97699  0.27201  0.14579  Biso   1.000  H
  H29      1.0000 0.59416  0.12836  0.20558  Biso   1.000  H
  O7       1.0000 0.44146  0.81333  0.08342  Biso   1.000  O
  C32      1.0000 0.62132  0.92984  0.04005  Biso   1.000  C
  O8       1.0000 0.79958  0.05191  0.99771  Biso   1.000  O
  H30      1.0000 0.43900  0.78256  0.03610  Biso   1.000  H
  H31      1.0000 0.62964  0.87973  0.99834  Biso   1.000  H
  H32      1.0000 0.78504  0.00807  0.95617  Biso   1.000  H
  C33      1.0000 0.39096  0.56244  0.44818  Biso   1.000  C
  C34      1.0000 0.31388  0.52893  0.50631  Biso   1.000  C
  C35      1.0000 0.49353  0.64608  0.46294  Biso   1.000  C
  H33      1.0000 0.37706  0.52263  0.39868  Biso   1.000  H
  O9       1.0000 0.21916  0.44097  0.48640  Biso   1.000  O
  C36      1.0000 0.33338  0.58049  0.57989  Biso   1.000  C
  C37      1.0000 0.51766  0.70041  0.53543  Biso   1.000  C
  O10      1.0000 0.57747  0.67510  0.40767  Biso   1.000  O
  H34      1.0000 0.19005  0.41275  0.52393  Biso   1.000  H
  C38      1.0000 0.24287  0.54559  0.64220  Biso   1.000  C
  C39      1.0000 0.43575  0.66554  0.59213  Biso   1.000  C
  C40      1.0000 0.63151  0.79251  0.54991  Biso   1.000  C
  H35      1.0000 0.55701  0.62635  0.36813  Biso   1.000  H
  C41      1.0000 0.29933  0.58793  0.72242  Biso   1.000  C
  C42      1.0000 0.10048  0.57469  0.62315  Biso   1.000  C
  H36      1.0000 0.23669  0.47019  0.64140  Biso   1.000  H
  H37      1.0000 0.45177  0.70071  0.64311  Biso   1.000  H
  C43      1.0000 0.60684  0.88664  0.50190  Biso   1.000  C
  C44      1.0000 0.65932  0.82668  0.63459  Biso   1.000  C
  H38      1.0000 0.71505  0.76718  0.52983  Biso   1.000  H
  C45      1.0000 0.41427  0.55102  0.75589  Biso   1.000  C
  C46      1.0000 0.24089  0.66421  0.76613  Biso   1.000  C
  H39      1.0000 0.06449  0.54076  0.57251  Biso   1.000  H
  H40      1.0000 0.03889  0.54688  0.66303  Biso   1.000  H
  H41      1.0000 0.10433  0.65491  0.62120  Biso   1.000  H
  H42      1.0000 0.60327  0.86333  0.44720  Biso   1.000  H
  H43      1.0000 0.52205  0.91590  0.51163  Biso   1.000  H
  H44      1.0000 0.67847  0.94644  0.51329  Biso   1.000  H
  C47      1.0000 0.72701  0.76272  0.68231  Biso   1.000  C
  C48      1.0000 0.61449  0.91889  0.66852  Biso   1.000  C
  O11      1.0000 0.47335  0.47340  0.71681  Biso   1.000  O
  C49      1.0000 0.46747  0.59184  0.82861  Biso   1.000  C
  C50      1.0000 0.28880  0.70481  0.83982  Biso   1.000  C
  H45      1.0000 0.16247  0.69056  0.74313  Biso   1.000  H
  O12      1.0000 0.77708  0.67069  0.65736  Biso   1.000  O
  C51      1.0000 0.74510  0.78926  0.76081  Biso   1.000  C
  C52      1.0000 0.63206  0.94908  0.74673  Biso   1.000  C
  H46      1.0000 0.56567  0.96518  0.63590  Biso   1.000  H
  H47      1.0000 0.55402  0.46506  0.74113  Biso   1.000  H
  C53      1.0000 0.40540  0.66754  0.86998  Biso   1.000  C
  H48      1.0000 0.54752  0.56788  0.85001  Biso   1.000  H
  C54      1.0000 0.22271  0.78883  0.88543  Biso   1.000  C
  H49      1.0000 0.76106  0.65406  0.60821  Biso   1.000  H
  C55      1.0000 0.69672  0.88014  0.79142  Biso   1.000  C
  H50      1.0000 0.78814  0.74463  0.79474  Biso   1.000  H
  C56      1.0000 0.58382  0.04947  0.78444  Biso   1.000  C
  O13      1.0000 0.45702  0.70512  0.94241  Biso   1.000  O
  C57      1.0000 0.30757  0.89763  0.89138  Biso   1.000  C
  C58      1.0000 0.07833  0.79839  0.85539  Biso   1.000  C
  H51      1.0000 0.21748  0.76619  0.93892  Biso   1.000  H
  O14      1.0000 0.71261  0.90106  0.87055  Biso   1.000  O
  C59      1.0000 0.48357  0.02180  0.84406  Biso   1.000  C
  C60      1.0000 0.52598  0.12253  0.72757  Biso   1.000  C
  H52      1.0000 0.66184  0.09185  0.81179  Biso   1.000  H
  H53      1.0000 0.53114  0.68082  0.95323  Biso   1.000  H
  C61      1.0000 0.29654  0.97342  0.95203  Biso   1.000  C
  C62      1.0000 0.39926  0.92559  0.83817  Biso   1.000  C
  H54      1.0000 0.07513  0.82652  0.80229  Biso   1.000  H
  H55      1.0000 0.03888  0.85069  0.89000  Biso   1.000  H
  H56      1.0000 0.02312  0.72809  0.85424  Biso   1.000  H
  H57      1.0000 0.63405  0.93508  0.88800  Biso   1.000  H
  C63      1.0000 0.47353  0.09302  0.90763  Biso   1.000  C
  H58      1.0000 0.59080  0.14479  0.69049  Biso   1.000  H
  H59      1.0000 0.50429  0.18663  0.75720  Biso   1.000  H
  H60      1.0000 0.44104  0.08412  0.69919  Biso   1.000  H
  O15      1.0000 0.20053  0.94827  0.00226  Biso   1.000  O
  C64      1.0000 0.37878  0.07025  0.95992  Biso   1.000  C
  H61      1.0000 0.40595  0.87181  0.79439  Biso   1.000  H
  O16      1.0000 0.55866  0.18685  0.91661  Biso   1.000  O
  H62      1.0000 0.21497  0.99203  0.04386  Biso   1.000  H
  H63      1.0000 0.37047  0.12045  0.00169  Biso   1.000  H
  H64      1.0000 0.56112  0.21762  0.96393  Biso   1.000  H
