data_image0
_cell_length_a       13.938
_cell_length_b       14.215
_cell_length_c       30.064
_cell_angle_alpha    90
_cell_angle_beta     92.13
_cell_angle_gamma    90

_symmetry_space_group_name_H-M    "P 1"
_symmetry_int_tables_number       1

loop_
  _symmetry_equiv_pos_as_xyz
  'x, y, z'

loop_
  _atom_site_label
  _atom_site_occupancy
  _atom_site_fract_x
  _atom_site_fract_y
  _atom_site_fract_z
  _atom_site_thermal_displace_type
  _atom_site_B_iso_or_equiv
  _atom_site_type_symbol
  C1       1.0000 0.50697  0.41857  0.44935  Biso   1.000  C
  C2       1.0000 0.45934  0.41942  0.40834  Biso   1.000  C
  C3       1.0000 0.60305  0.39761  0.45318  Biso   1.000  C
  H1       1.0000 0.47097  0.44502  0.47561  Biso   1.000  H
  C4       1.0000 0.50549  0.39557  0.37003  Biso   1.000  C
  O1       1.0000 0.36484  0.44713  0.40818  Biso   1.000  O
  C5       1.0000 0.65316  0.37193  0.41593  Biso   1.000  C
  O2       1.0000 0.64595  0.40148  0.49509  Biso   1.000  O
  C6       1.0000 0.45354  0.39501  0.32433  Biso   1.000  C
  C7       1.0000 0.60205  0.37263  0.37533  Biso   1.000  C
  H2       1.0000 0.35095  0.46198  0.38441  Biso   1.000  H
  C8       1.0000 0.75954  0.34780  0.42019  Biso   1.000  C
  H3       1.0000 0.72594  0.44200  0.49499  Biso   1.000  H
  C9       1.0000 0.49466  0.32262  0.29221  Biso   1.000  C
  C10      1.0000 0.44846  0.49321  0.30393  Biso   1.000  C
  H4       1.0000 0.39093  0.37397  0.33099  Biso   1.000  H
  H5       1.0000 0.63594  0.35399  0.34700  Biso   1.000  H
  C11      1.0000 0.79166  0.26901  0.38851  Biso   1.000  C
  C12      1.0000 0.82115  0.43419  0.41720  Biso   1.000  C
  H6       1.0000 0.76798  0.32001  0.44759  Biso   1.000  H
  C13      1.0000 0.43439  0.31129  0.25011  Biso   1.000  C
  H7       1.0000 0.49979  0.26219  0.30709  Biso   1.000  H
  H8       1.0000 0.55877  0.34189  0.28469  Biso   1.000  H
  C14      1.0000 0.36846  0.55223  0.30752  Biso   1.000  C
  C15      1.0000 0.52550  0.52832  0.28139  Biso   1.000  C
  H9       1.0000 0.85263  0.28772  0.37669  Biso   1.000  H
  H10      1.0000 0.74547  0.26641  0.36361  Biso   1.000  H
  C16      1.0000 0.80054  0.19268  0.40269  Biso   1.000  C
  C17      1.0000 0.86137  0.47661  0.45531  Biso   1.000  C
  C18      1.0000 0.84234  0.47513  0.37632  Biso   1.000  C
  H11      1.0000 0.36293  0.28597  0.26628  Biso   1.000  H
  H12      1.0000 0.43896  0.39100  0.23200  Biso   1.000  H
  H13      1.0000 0.46896  0.26198  0.22501  Biso   1.000  H
  O3       1.0000 0.29072  0.51959  0.32943  Biso   1.000  O
  C19      1.0000 0.36789  0.64052  0.28875  Biso   1.000  C
  C20      1.0000 0.52607  0.61632  0.26162  Biso   1.000  C
  H14      1.0000 0.57899  0.48899  0.27920  Biso   1.000  H
  H15      1.0000 0.82245  0.15167  0.37979  Biso   1.000  H
  H16      1.0000 0.84663  0.19311  0.42718  Biso   1.000  H
  H17      1.0000 0.73993  0.17059  0.41271  Biso   1.000  H
  O4       1.0000 0.83972  0.43820  0.49582  Biso   1.000  O
  C21      1.0000 0.91874  0.55477  0.45228  Biso   1.000  C
  C22      1.0000 0.89940  0.55392  0.37210  Biso   1.000  C
  H18      1.0000 0.81198  0.44699  0.35379  Biso   1.000  H
  H19      1.0000 0.25895  0.56602  0.33671  Biso   1.000  H
  C23      1.0000 0.44660  0.67281  0.26638  Biso   1.000  C
  H20      1.0000 0.31093  0.67900  0.29241  Biso   1.000  H
  C24      1.0000 0.61196  0.64882  0.23586  Biso   1.000  C
  H21      1.0000 0.84795  0.47401  0.52058  Biso   1.000  H
  C25      1.0000 0.93705  0.59339  0.41137  Biso   1.000  C
  H22      1.0000 0.94293  0.58002  0.48111  Biso   1.000  H
  C26      1.0000 0.92418  0.59501  0.32690  Biso   1.000  C
  O5       1.0000 0.44540  0.76131  0.24704  Biso   1.000  O
  C27      1.0000 0.69289  0.68590  0.26625  Biso   1.000  C
  C28      1.0000 0.64418  0.57369  0.20277  Biso   1.000  C
  H23      1.0000 0.59197  0.70200  0.21559  Biso   1.000  H
  O6       1.0000 0.99407  0.67239  0.40834  Biso   1.000  O
  C29      1.0000 0.84304  0.66029  0.30989  Biso   1.000  C
  C30      1.0000 0.95110  0.51819  0.29394  Biso   1.000  C
  H24      1.0000 0.98595  0.64200  0.33219  Biso   1.000  H
  H25      1.0000 0.41896  0.78699  0.25999  Biso   1.000  H
  C31      1.0000 0.69444  0.77868  0.28109  Biso   1.000  C
  C32      1.0000 0.76851  0.62912  0.28229  Biso   1.000  C
  C33      1.0000 0.56459  0.54260  0.17112  Biso   1.000  C
  H26      1.0000 0.65901  0.52001  0.21769  Biso   1.000  H
  H27      1.0000 0.70297  0.60499  0.18530  Biso   1.000  H
  H28      1.0000 0.98193  0.71403  0.43601  Biso   1.000  H
  C34      1.0000 0.84178  0.75491  0.32280  Biso   1.000  C
  C35      1.0000 0.99209  0.55941  0.25210  Biso   1.000  C
  H29      1.0000 0.88895  0.47999  0.28659  Biso   1.000  H
  H30      1.0000 0.01501  0.48097  0.30270  Biso   1.000  H
  O7       1.0000 0.62330  0.84263  0.26898  Biso   1.000  O
  C36      1.0000 0.76765  0.81351  0.30829  Biso   1.000  C
  H31      1.0000 0.76597  0.55800  0.27041  Biso   1.000  H
  H32      1.0000 0.53799  0.60499  0.15621  Biso   1.000  H
  H33      1.0000 0.57400  0.50503  0.14799  Biso   1.000  H
  H34      1.0000 0.51200  0.50798  0.18460  Biso   1.000  H
  O8       1.0000 0.91067  0.79522  0.34990  Biso   1.000  O
  H35      1.0000 0.93699  0.59698  0.23430  Biso   1.000  H
  H36      1.0000 0.01099  0.50798  0.23100  Biso   1.000  H
  H37      1.0000 0.07596  0.59297  0.26199  Biso   1.000  H
  H38      1.0000 0.56395  0.81097  0.26069  Biso   1.000  H
  H39      1.0000 0.76595  0.88203  0.31931  Biso   1.000  H
  H40      1.0000 0.93385  0.75540  0.36690  Biso   1.000  H
  C37      1.0000 0.49292  0.58143  0.55064  Biso   1.000  C
  C38      1.0000 0.39683  0.60239  0.54681  Biso   1.000  C
  C39      1.0000 0.54054  0.58058  0.59165  Biso   1.000  C
  H41      1.0000 0.52891  0.55498  0.52441  Biso   1.000  H
  C40      1.0000 0.34672  0.62807  0.58406  Biso   1.000  C
  O9       1.0000 0.35394  0.59852  0.50491  Biso   1.000  O
  C41      1.0000 0.49440  0.60443  0.62996  Biso   1.000  C
  O10      1.0000 0.63505  0.55287  0.59181  Biso   1.000  O
  C42      1.0000 0.24034  0.65220  0.57980  Biso   1.000  C
  C43      1.0000 0.39783  0.62737  0.62467  Biso   1.000  C
  H42      1.0000 0.27395  0.55800  0.50501  Biso   1.000  H
  C44      1.0000 0.54628  0.60499  0.67569  Biso   1.000  C
  H43      1.0000 0.64894  0.53802  0.61561  Biso   1.000  H
  C45      1.0000 0.17873  0.56581  0.58279  Biso   1.000  C
  C46      1.0000 0.20823  0.73099  0.61149  Biso   1.000  C
  H44      1.0000 0.23190  0.67999  0.55240  Biso   1.000  H
  H45      1.0000 0.36394  0.64601  0.65299  Biso   1.000  H
  C47      1.0000 0.55143  0.50679  0.69606  Biso   1.000  C
  C48      1.0000 0.50523  0.67738  0.70781  Biso   1.000  C
  H46      1.0000 0.60888  0.62603  0.66900  Biso   1.000  H
  C49      1.0000 0.13851  0.52339  0.54468  Biso   1.000  C
  C50      1.0000 0.15747  0.52487  0.62367  Biso   1.000  C
  H47      1.0000 0.14719  0.71228  0.62330  Biso   1.000  H
  H48      1.0000 0.25442  0.73359  0.63638  Biso   1.000  H
  C51      1.0000 0.19934  0.80732  0.59731  Biso   1.000  C
  C52      1.0000 0.63142  0.44777  0.69250  Biso   1.000  C
  C53      1.0000 0.47438  0.47168  0.71860  Biso   1.000  C
  H49      1.0000 0.50009  0.73781  0.69290  Biso   1.000  H
  H50      1.0000 0.44112  0.65811  0.71530  Biso   1.000  H
  C54      1.0000 0.56550  0.68871  0.74989  Biso   1.000  C
  O11      1.0000 0.16009  0.56180  0.50417  Biso   1.000  O
  C55      1.0000 0.08115  0.44523  0.54774  Biso   1.000  C
  C56      1.0000 0.10049  0.44608  0.62790  Biso   1.000  C
  H51      1.0000 0.18791  0.55301  0.64620  Biso   1.000  H
  H52      1.0000 0.17743  0.84833  0.62021  Biso   1.000  H
  H53      1.0000 0.15325  0.80689  0.57281  Biso   1.000  H
  H54      1.0000 0.25988  0.82941  0.58729  Biso   1.000  H
  O12      1.0000 0.70909  0.48041  0.67057  Biso   1.000  O
  C57      1.0000 0.63199  0.35948  0.71124  Biso   1.000  C
  C58      1.0000 0.47382  0.38368  0.73840  Biso   1.000  C
  H55      1.0000 0.42089  0.51101  0.72079  Biso   1.000  H
  H56      1.0000 0.63688  0.71403  0.73371  Biso   1.000  H
  H57      1.0000 0.56092  0.60900  0.76799  Biso   1.000  H
  H58      1.0000 0.53092  0.73802  0.77498  Biso   1.000  H
  H59      1.0000 0.15194  0.52599  0.47941  Biso   1.000  H
  C59      1.0000 0.06283  0.40661  0.58862  Biso   1.000  C
  H60      1.0000 0.05695  0.41998  0.51889  Biso   1.000  H
  C60      1.0000 0.07570  0.40499  0.67310  Biso   1.000  C
  H61      1.0000 0.74094  0.43398  0.66331  Biso   1.000  H
  C61      1.0000 0.55329  0.32719  0.73361  Biso   1.000  C
  H62      1.0000 0.68888  0.32100  0.70761  Biso   1.000  H
  C62      1.0000 0.38792  0.35118  0.76413  Biso   1.000  C
  O13      1.0000 0.00582  0.32761  0.59165  Biso   1.000  O
  C63      1.0000 0.04878  0.48181  0.70605  Biso   1.000  C
  C64      1.0000 0.15677  0.33971  0.69011  Biso   1.000  C
  H63      1.0000 0.01393  0.35800  0.66780  Biso   1.000  H
  O14      1.0000 0.55448  0.23869  0.75295  Biso   1.000  O
  C65      1.0000 0.30699  0.31410  0.73374  Biso   1.000  C
  C66      1.0000 0.35570  0.42631  0.79722  Biso   1.000  C
  H64      1.0000 0.40791  0.29800  0.78440  Biso   1.000  H
  H65      1.0000 0.01795  0.28597  0.56399  Biso   1.000  H
  C67      1.0000 0.00780  0.44059  0.74789  Biso   1.000  C
  H66      1.0000 0.11093  0.52001  0.71341  Biso   1.000  H
  H67      1.0000 0.98487  0.51903  0.69730  Biso   1.000  H
  C68      1.0000 0.15811  0.24509  0.67719  Biso   1.000  C
  C69      1.0000 0.23138  0.37088  0.71770  Biso   1.000  C
  H68      1.0000 0.58092  0.21301  0.74000  Biso   1.000  H
  C70      1.0000 0.30537  0.22132  0.71890  Biso   1.000  C
  C71      1.0000 0.43530  0.45740  0.82887  Biso   1.000  C
  H69      1.0000 0.34088  0.47999  0.78231  Biso   1.000  H
  H70      1.0000 0.29691  0.39501  0.81469  Biso   1.000  H
  H71      1.0000 0.06289  0.40302  0.76570  Biso   1.000  H
  H72      1.0000 0.98890  0.49202  0.76899  Biso   1.000  H
  H73      1.0000 0.92392  0.40703  0.73800  Biso   1.000  H
  O15      1.0000 0.08921  0.20478  0.65010  Biso   1.000  O
  C72      1.0000 0.23224  0.18649  0.69170  Biso   1.000  C
  H74      1.0000 0.23391  0.44200  0.72958  Biso   1.000  H
  O16      1.0000 0.37658  0.15737  0.73101  Biso   1.000  O
  H75      1.0000 0.46189  0.39501  0.84378  Biso   1.000  H
  H76      1.0000 0.42589  0.49497  0.85201  Biso   1.000  H
  H77      1.0000 0.48788  0.49202  0.81539  Biso   1.000  H
  H78      1.0000 0.06604  0.24460  0.63309  Biso   1.000  H
  H79      1.0000 0.23394  0.11797  0.68069  Biso   1.000  H
  H80      1.0000 0.43586  0.18903  0.73930  Biso   1.000  H
  C73      1.0000 0.50789  0.05937  0.24791  Biso   1.000  C
  C74      1.0000 0.54888  0.01822  0.20607  Biso   1.000  C
  H81      1.0000 0.56298  0.09701  0.26568  Biso   1.000  H
  H82      1.0000 0.48899  0.00802  0.26901  Biso   1.000  H
  H83      1.0000 0.42394  0.09300  0.23799  Biso   1.000  H
  C75      1.0000 0.57579  0.09497  0.17308  Biso   1.000  C
  H84      1.0000 0.61095  0.98002  0.21339  Biso   1.000  H
  H85      1.0000 0.48497  0.98101  0.19732  Biso   1.000  H
  C76      1.0000 0.60058  0.05389  0.12788  Biso   1.000  C
  C77      1.0000 0.65687  0.16032  0.19013  Biso   1.000  C
  H86      1.0000 0.51395  0.14203  0.16779  Biso   1.000  H
  C78      1.0000 0.56292  0.09342  0.08864  Biso   1.000  C
  C79      1.0000 0.65757  0.97510  0.12366  Biso   1.000  C
  C80      1.0000 0.65820  0.25487  0.17718  Biso   1.000  C
  C81      1.0000 0.73147  0.12909  0.21772  Biso   1.000  C
  O17      1.0000 0.50591  0.17242  0.09163  Biso   1.000  O
  C82      1.0000 0.58124  0.05480  0.04773  Biso   1.000  C
  C83      1.0000 0.67883  0.93422  0.08281  Biso   1.000  C
  H87      1.0000 0.68800  0.94703  0.14619  Biso   1.000  H
  O18      1.0000 0.58930  0.29518  0.15008  Biso   1.000  O
  C84      1.0000 0.73226  0.31347  0.19172  Biso   1.000  C
  C85      1.0000 0.80709  0.18593  0.23376  Biso   1.000  C
  H88      1.0000 0.73400  0.05797  0.22960  Biso   1.000  H
  H89      1.0000 0.51797  0.21400  0.06401  Biso   1.000  H
  H90      1.0000 0.55698  0.07999  0.01891  Biso   1.000  H
  C86      1.0000 0.63861  0.97657  0.04467  Biso   1.000  C
  C87      1.0000 0.74043  0.84777  0.07979  Biso   1.000  C
  H91      1.0000 0.56606  0.25543  0.13311  Biso   1.000  H
  C88      1.0000 0.80547  0.27872  0.21892  Biso   1.000  C
  H92      1.0000 0.73396  0.38199  0.18071  Biso   1.000  H
  C89      1.0000 0.88802  0.14879  0.26415  Biso   1.000  C
  O19      1.0000 0.66019  0.93823  0.00419  Biso   1.000  O
  C90      1.0000 0.84682  0.87190  0.08408  Biso   1.000  C
  C91      1.0000 0.70832  0.76898  0.11147  Biso   1.000  C
  H93      1.0000 0.73199  0.81998  0.05239  Biso   1.000  H
  O20      1.0000 0.87668  0.34260  0.23100  Biso   1.000  O
  C92      1.0000 0.97391  0.11629  0.23839  Biso   1.000  C
  C93      1.0000 0.85580  0.07372  0.29721  Biso   1.000  C
  H94      1.0000 0.90801  0.20197  0.28439  Biso   1.000  H
  H95      1.0000 0.65189  0.97397  0.97940  Biso   1.000  H
  C94      1.0000 0.89692  0.89757  0.04683  Biso   1.000  C
  C95      1.0000 0.89793  0.87260  0.12469  Biso   1.000  C
  H96      1.0000 0.64728  0.78769  0.12329  Biso   1.000  H
  H97      1.0000 0.75451  0.76637  0.13640  Biso   1.000  H
  C96      1.0000 0.69943  0.69272  0.09729  Biso   1.000  C
  H98      1.0000 0.93596  0.31101  0.23929  Biso   1.000  H
  C97      1.0000 0.97448  0.02828  0.21862  Biso   1.000  C
  C98      1.0000 0.05338  0.17278  0.23360  Biso   1.000  C
  C99      1.0000 0.93539  0.04263  0.32889  Biso   1.000  C
  H99      1.0000 0.84097  0.01998  0.28229  Biso   1.000  H
  H100     1.0000 0.79701  0.10503  0.31471  Biso   1.000  H
  O21      1.0000 0.85403  0.90151  0.00493  Biso   1.000  O
  C100     1.0000 0.99301  0.91861  0.05066  Biso   1.000  C
  C101     1.0000 0.99449  0.89560  0.12995  Biso   1.000  C
  H101     1.0000 0.86397  0.85403  0.15301  Biso   1.000  H
  H102     1.0000 0.67752  0.65171  0.12019  Biso   1.000  H
  H103     1.0000 0.65327  0.69307  0.07280  Biso   1.000  H
  H104     1.0000 0.75998  0.67063  0.08731  Biso   1.000  H
  H105     1.0000 0.92099  0.98903  0.22082  Biso   1.000  H
  C102     1.0000 0.05152  0.99318  0.19605  Biso   1.000  C
  O22      1.0000 0.05457  0.26127  0.25294  Biso   1.000  O
  C103     1.0000 0.13209  0.14049  0.21126  Biso   1.000  C
  H106     1.0000 0.96199  0.10503  0.34380  Biso   1.000  H
  H107     1.0000 0.92598  0.00499  0.35199  Biso   1.000  H
  H108     1.0000 0.98798  0.00802  0.31541  Biso   1.000  H
  H109     1.0000 0.77404  0.94203  0.00499  Biso   1.000  H
  C104     1.0000 0.04064  0.91938  0.09163  Biso   1.000  C
  H110     1.0000 0.02900  0.94499  0.02440  Biso   1.000  H
  C105     1.0000 0.04637  0.89497  0.17568  Biso   1.000  C
  C106     1.0000 0.13152  0.05220  0.19249  Biso   1.000  C
  H111     1.0000 0.08101  0.28702  0.23999  Biso   1.000  H
  H112     1.0000 0.18898  0.17897  0.20760  Biso   1.000  H
  O23      1.0000 0.13514  0.94710  0.09183  Biso   1.000  O
  C107     1.0000 0.00532  0.82258  0.20780  Biso   1.000  C
  H113     1.0000 0.10897  0.87401  0.16899  Biso   1.000  H
  O24      1.0000 0.20918  0.01963  0.17059  Biso   1.000  O
  H114     1.0000 0.14903  0.96201  0.11560  Biso   1.000  H
  H115     1.0000 0.94121  0.84193  0.21529  Biso   1.000  H
  H116     1.0000 0.00018  0.76222  0.19289  Biso   1.000  H
  C108     1.0000 0.06559  0.81133  0.24991  Biso   1.000  C
  H117     1.0000 0.24103  0.06599  0.16330  Biso   1.000  H
  H118     1.0000 0.13697  0.78600  0.23370  Biso   1.000  H
  H119     1.0000 0.06102  0.89103  0.26801  Biso   1.000  H
  H120     1.0000 0.03101  0.76201  0.27500  Biso   1.000  H
  C109     1.0000 0.49199  0.94063  0.75208  Biso   1.000  C
  C110     1.0000 0.45101  0.98178  0.79392  Biso   1.000  C
  H121     1.0000 0.43690  0.90299  0.73431  Biso   1.000  H
  H122     1.0000 0.51089  0.99198  0.73101  Biso   1.000  H
  H123     1.0000 0.57587  0.90700  0.76200  Biso   1.000  H
  C111     1.0000 0.42409  0.90503  0.82691  Biso   1.000  C
  H124     1.0000 0.38886  0.01998  0.78660  Biso   1.000  H
  H125     1.0000 0.51492  0.01899  0.80271  Biso   1.000  H
  C112     1.0000 0.34301  0.83968  0.80987  Biso   1.000  C
  C113     1.0000 0.39930  0.94611  0.87211  Biso   1.000  C
  H126     1.0000 0.48586  0.85797  0.83220  Biso   1.000  H
  C114     1.0000 0.26841  0.87091  0.78227  Biso   1.000  C
  C115     1.0000 0.34168  0.74513  0.82281  Biso   1.000  C
  C116     1.0000 0.43696  0.90658  0.91135  Biso   1.000  C
  C117     1.0000 0.34224  0.02490  0.87634  Biso   1.000  C
  C118     1.0000 0.19279  0.81407  0.76623  Biso   1.000  C
  H127     1.0000 0.26588  0.94203  0.77039  Biso   1.000  H
  C119     1.0000 0.26756  0.68653  0.80830  Biso   1.000  C
  O25      1.0000 0.41058  0.70482  0.84991  Biso   1.000  O
  O26      1.0000 0.49397  0.82758  0.90836  Biso   1.000  O
  C120     1.0000 0.41864  0.94520  0.95226  Biso   1.000  C
  C121     1.0000 0.32106  0.06578  0.91721  Biso   1.000  C
  H128     1.0000 0.31188  0.05297  0.85380  Biso   1.000  H
  C122     1.0000 0.11187  0.85121  0.73587  Biso   1.000  C
  C123     1.0000 0.19442  0.72128  0.78107  Biso   1.000  C
  H129     1.0000 0.26585  0.61801  0.81929  Biso   1.000  H
  H130     1.0000 0.43375  0.74457  0.86688  Biso   1.000  H
  H131     1.0000 0.48184  0.78600  0.93598  Biso   1.000  H
  H132     1.0000 0.44284  0.92001  0.98109  Biso   1.000  H
  C124     1.0000 0.36128  0.02343  0.95532  Biso   1.000  C
  C125     1.0000 0.25945  0.15223  0.92021  Biso   1.000  C
  C126     1.0000 0.14409  0.92628  0.70279  Biso   1.000  C
  C127     1.0000 0.02597  0.88371  0.76160  Biso   1.000  C
  H133     1.0000 0.09188  0.79803  0.71560  Biso   1.000  H
  O27      1.0000 0.12321  0.65740  0.76899  Biso   1.000  O
  O28      1.0000 0.33962  0.06177  0.99580  Biso   1.000  O
  C128     1.0000 0.15307  0.12810  0.91591  Biso   1.000  C
  C129     1.0000 0.29156  0.23102  0.88852  Biso   1.000  C
  H134     1.0000 0.26789  0.18002  0.94760  Biso   1.000  H
  C130     1.0000 0.06449  0.95737  0.67113  Biso   1.000  C
  H135     1.0000 0.15891  0.98002  0.71770  Biso   1.000  H
  H136     1.0000 0.20288  0.89497  0.68531  Biso   1.000  H
  C131     1.0000 0.02541  0.97172  0.78137  Biso   1.000  C
  C132     1.0000 0.94650  0.82722  0.76640  Biso   1.000  C
  H137     1.0000 0.06385  0.68899  0.76070  Biso   1.000  H
  H138     1.0000 0.34800  0.02603  0.02060  Biso   1.000  H
  C133     1.0000 0.10196  0.12740  0.87531  Biso   1.000  C
  C134     1.0000 0.10296  0.10243  0.95319  Biso   1.000  C
  H139     1.0000 0.35261  0.21231  0.87670  Biso   1.000  H
  H140     1.0000 0.24537  0.23363  0.86359  Biso   1.000  H
  C135     1.0000 0.30045  0.30728  0.90270  Biso   1.000  C
  H141     1.0000 0.03790  0.89497  0.65619  Biso   1.000  H
  H142     1.0000 0.07390  0.99501  0.64800  Biso   1.000  H
  H143     1.0000 0.01191  0.99198  0.68461  Biso   1.000  H
  C136     1.0000 0.94837  0.00682  0.80394  Biso   1.000  C
  H144     1.0000 0.07890  0.01097  0.77921  Biso   1.000  H
  O29      1.0000 0.94531  0.73873  0.74706  Biso   1.000  O
  C137     1.0000 0.86779  0.85951  0.78873  Biso   1.000  C
  C138     1.0000 0.00539  0.10440  0.87005  Biso   1.000  C
  H145     1.0000 0.13585  0.14597  0.84701  Biso   1.000  H
  C139     1.0000 0.00687  0.08139  0.94933  Biso   1.000  C
  O30      1.0000 0.14585  0.09849  0.99510  Biso   1.000  O
  H146     1.0000 0.32236  0.34829  0.87980  Biso   1.000  H
  H147     1.0000 0.34654  0.30693  0.92720  Biso   1.000  H
  H148     1.0000 0.23984  0.32937  0.91268  Biso   1.000  H
  C140     1.0000 0.86837  0.94780  0.80750  Biso   1.000  C
  C141     1.0000 0.95344  0.10503  0.82431  Biso   1.000  C
  H149     1.0000 0.91887  0.71298  0.76000  Biso   1.000  H
  H150     1.0000 0.81091  0.82103  0.79239  Biso   1.000  H
  C142     1.0000 0.95925  0.08062  0.90836  Biso   1.000  C
  H151     1.0000 0.97088  0.05501  0.97559  Biso   1.000  H
  H152     1.0000 0.22584  0.05797  0.99500  Biso   1.000  H
  O31      1.0000 0.79070  0.98037  0.82940  Biso   1.000  O
  C143     1.0000 0.99456  0.17742  0.79219  Biso   1.000  C
  H153     1.0000 0.89084  0.12599  0.83100  Biso   1.000  H
  O32      1.0000 0.86474  0.05290  0.90819  Biso   1.000  O
  H154     1.0000 0.75885  0.93401  0.83669  Biso   1.000  H
  H155     1.0000 0.99970  0.23778  0.80710  Biso   1.000  H
  C144     1.0000 0.93429  0.18867  0.75009  Biso   1.000  C
  H156     1.0000 0.05868  0.15807  0.78470  Biso   1.000  H
  H157     1.0000 0.85085  0.03799  0.88439  Biso   1.000  H
  H158     1.0000 0.86291  0.21400  0.76630  Biso   1.000  H
  H159     1.0000 0.93887  0.10897  0.73201  Biso   1.000  H
  H160     1.0000 0.96887  0.23799  0.72499  Biso   1.000  H
