data_image0
_cell_length_a       12.931
_cell_length_b       14.907
_cell_length_c       16.78
_cell_angle_alpha    99.52
_cell_angle_beta     91.98
_cell_angle_gamma    98.53

_symmetry_space_group_name_H-M    "P 1"
_symmetry_int_tables_number       1

loop_
  _symmetry_equiv_pos_as_xyz
  'x, y, z'

loop_
  _atom_site_label
  _atom_site_occupancy
  _atom_site_fract_x
  _atom_site_fract_y
  _atom_site_fract_z
  _atom_site_thermal_displace_type
  _atom_site_B_iso_or_equiv
  _atom_site_type_symbol
  O1       1.0000 0.57704  0.20811  0.50979  Biso   1.000  O
  H1       1.0000 0.54071  0.20468  0.47849  Biso   1.000  H
  C1       1.0000 0.54738  0.14311  0.55671  Biso   1.000  C
  C2       1.0000 0.62128  0.13112  0.61555  Biso   1.000  C
  C3       1.0000 0.44923  0.09005  0.54660  Biso   1.000  C
  C4       1.0000 0.72681  0.19121  0.62724  Biso   1.000  C
  C5       1.0000 0.59020  0.06418  0.66229  Biso   1.000  C
  C6       1.0000 0.42273  0.02392  0.59400  Biso   1.000  C
  H2       1.0000 0.39744  0.10373  0.50882  Biso   1.000  H
  C7       1.0000 0.81133  0.14984  0.66568  Biso   1.000  C
  C8       1.0000 0.71561  0.28631  0.67185  Biso   1.000  C
  H3       1.0000 0.74821  0.19389  0.57838  Biso   1.000  H
  C9       1.0000 0.49384  0.00988  0.65381  Biso   1.000  C
  H4       1.0000 0.63674  0.04893  0.70279  Biso   1.000  H
  O2       1.0000 0.32610  0.96871  0.58298  Biso   1.000  O
  C10      1.0000 0.84823  0.07311  0.62415  Biso   1.000  C
  C11      1.0000 0.85521  0.18464  0.74413  Biso   1.000  C
  H5       1.0000 0.66104  0.30938  0.64491  Biso   1.000  H
  H6       1.0000 0.69824  0.28253  0.72652  Biso   1.000  H
  H7       1.0000 0.78055  0.32719  0.67240  Biso   1.000  H
  C12      1.0000 0.46047  0.93580  0.70424  Biso   1.000  C
  H8       1.0000 0.28538  0.96583  0.53443  Biso   1.000  H
  O3       1.0000 0.80672  0.03679  0.54726  Biso   1.000  O
  C13      1.0000 0.92528  0.03285  0.65920  Biso   1.000  C
  C14      1.0000 0.93349  0.14659  0.78112  Biso   1.000  C
  H9       1.0000 0.80833  0.23867  0.77749  Biso   1.000  H
  C15      1.0000 0.38524  0.96583  0.76774  Biso   1.000  C
  C16      1.0000 0.55414  0.90228  0.74117  Biso   1.000  C
  H10      1.0000 0.41331  0.86943  0.66780  Biso   1.000  H
  H11      1.0000 0.84035  0.97973  0.52160  Biso   1.000  H
  C17      1.0000 0.96645  0.07026  0.73784  Biso   1.000  C
  H12      1.0000 0.95739  0.97020  0.62239  Biso   1.000  H
  C18      1.0000 0.97892  0.18526  0.86721  Biso   1.000  C
  H13      1.0000 0.42141  0.01542  0.80752  Biso   1.000  H
  H14      1.0000 0.32756  0.98618  0.74214  Biso   1.000  H
  H15      1.0000 0.35935  0.91481  0.79359  Biso   1.000  H
  C19      1.0000 0.60392  0.83675  0.69552  Biso   1.000  C
  C20      1.0000 0.59390  0.93291  0.82120  Biso   1.000  C
  O4       1.0000 0.04327  0.03171  0.77162  Biso   1.000  O
  C21      1.0000 0.93574  0.12649  0.92690  Biso   1.000  C
  C22      1.0000 0.96563  0.28586  0.89421  Biso   1.000  C
  H16      1.0000 0.05594  0.19408  0.86963  Biso   1.000  H
  O5       1.0000 0.56772  0.80306  0.61682  Biso   1.000  O
  C23      1.0000 0.68872  0.80669  0.72833  Biso   1.000  C
  C24      1.0000 0.67666  0.90328  0.85686  Biso   1.000  C
  H17      1.0000 0.56237  0.96199  0.85220  Biso   1.000  H
  H18      1.0000 0.06048  0.96257  0.73281  Biso   1.000  H
  C25      1.0000 0.84657  0.05937  0.91013  Biso   1.000  C
  C26      1.0000 0.98881  0.13625  0.00390  Biso   1.000  C
  H19      1.0000 0.99500  0.30678  0.94863  Biso   1.000  H
  H20      1.0000 0.89239  0.29090  0.89221  Biso   1.000  H
  H21      1.0000 0.00101  0.32300  0.85879  Biso   1.000  H
  H22      1.0000 0.58921  0.73741  0.60308  Biso   1.000  H
  C27      1.0000 0.72474  0.83827  0.80764  Biso   1.000  C
  H23      1.0000 0.71811  0.76542  0.69431  Biso   1.000  H
  C28      1.0000 0.71067  0.93115  0.94670  Biso   1.000  C
  C29      1.0000 0.80864  0.00381  0.96437  Biso   1.000  C
  H24      1.0000 0.80950  0.04700  0.85680  Biso   1.000  H
  C30      1.0000 0.95207  0.08175  0.05803  Biso   1.000  C
  O6       1.0000 0.07729  0.19953  0.01976  Biso   1.000  O
  O7       1.0000 0.80889  0.80546  0.83991  Biso   1.000  O
  C31      1.0000 0.62077  0.96215  0.99682  Biso   1.000  C
  H25      1.0000 0.72327  0.86433  0.97394  Biso   1.000  H
  C32      1.0000 0.86351  0.01557  0.03950  Biso   1.000  C
  H26      1.0000 0.98925  0.08160  0.10494  Biso   1.000  H
  H27      1.0000 0.11080  0.20049  0.05821  Biso   1.000  H
  H28      1.0000 0.60514  0.01899  0.98332  Biso   1.000  H
  H29      1.0000 0.55973  0.91579  0.98490  Biso   1.000  H
  H30      1.0000 0.64151  0.97089  0.05342  Biso   1.000  H
  O8       1.0000 0.82824  0.95983  0.09314  Biso   1.000  O
  H31      1.0000 0.88157  0.96541  0.12643  Biso   1.000  H
  O9       1.0000 0.42288  0.79191  0.49024  Biso   1.000  O
  C33      1.0000 0.45245  0.85684  0.44332  Biso   1.000  C
  H32      1.0000 0.45913  0.79534  0.52154  Biso   1.000  H
  C34      1.0000 0.37855  0.86883  0.38448  Biso   1.000  C
  C35      1.0000 0.55067  0.90989  0.45337  Biso   1.000  C
  C36      1.0000 0.27310  0.80881  0.37279  Biso   1.000  C
  C37      1.0000 0.40972  0.93584  0.33774  Biso   1.000  C
  C38      1.0000 0.57711  0.97610  0.40603  Biso   1.000  C
  H33      1.0000 0.60240  0.89629  0.49121  Biso   1.000  H
  C39      1.0000 0.28430  0.71370  0.32818  Biso   1.000  C
  C40      1.0000 0.18850  0.85011  0.33435  Biso   1.000  C
  H34      1.0000 0.25163  0.80611  0.42159  Biso   1.000  H
  C41      1.0000 0.50600  0.99014  0.34622  Biso   1.000  C
  H35      1.0000 0.36310  0.95107  0.29718  Biso   1.000  H
  O10      1.0000 0.67381  0.03124  0.41705  Biso   1.000  O
  H36      1.0000 0.33886  0.69057  0.35512  Biso   1.000  H
  H37      1.0000 0.30168  0.71749  0.27351  Biso   1.000  H
  H38      1.0000 0.21937  0.67283  0.32763  Biso   1.000  H
  C42      1.0000 0.15159  0.92684  0.37588  Biso   1.000  C
  C43      1.0000 0.14463  0.81538  0.25589  Biso   1.000  C
  C44      1.0000 0.53935  0.06414  0.29573  Biso   1.000  C
  H39      1.0000 0.71446  0.03419  0.46560  Biso   1.000  H
  O11      1.0000 0.19311  0.96316  0.45276  Biso   1.000  O
  C45      1.0000 0.07463  0.96716  0.34077  Biso   1.000  C
  C46      1.0000 0.06633  0.85335  0.21885  Biso   1.000  C
  H40      1.0000 0.19157  0.76127  0.22248  Biso   1.000  H
  C47      1.0000 0.61468  0.03419  0.23228  Biso   1.000  C
  C48      1.0000 0.44570  0.09774  0.25886  Biso   1.000  C
  H41      1.0000 0.58661  0.13059  0.33223  Biso   1.000  H
  H42      1.0000 0.15949  0.02029  0.47843  Biso   1.000  H
  C49      1.0000 0.03339  0.92976  0.26219  Biso   1.000  C
  H43      1.0000 0.04253  0.02980  0.37758  Biso   1.000  H
  C50      1.0000 0.02092  0.81476  0.13282  Biso   1.000  C
  H44      1.0000 0.57843  0.98459  0.19251  Biso   1.000  H
  H45      1.0000 0.67234  0.01377  0.25789  Biso   1.000  H
  H46      1.0000 0.64049  0.08520  0.20637  Biso   1.000  H
  C51      1.0000 0.39599  0.16326  0.30445  Biso   1.000  C
  C52      1.0000 0.40601  0.06710  0.17877  Biso   1.000  C
  O12      1.0000 0.95656  0.96824  0.22841  Biso   1.000  O
  C53      1.0000 0.06410  0.87352  0.07313  Biso   1.000  C
  C54      1.0000 0.03421  0.71414  0.10576  Biso   1.000  C
  H47      1.0000 0.94397  0.80587  0.13040  Biso   1.000  H
  O13      1.0000 0.43211  0.19689  0.38321  Biso   1.000  O
  C55      1.0000 0.31112  0.19332  0.27170  Biso   1.000  C
  C56      1.0000 0.32326  0.09674  0.14317  Biso   1.000  C
  H48      1.0000 0.43754  0.03802  0.14777  Biso   1.000  H
  H49      1.0000 0.93942  0.03738  0.26722  Biso   1.000  H
  C57      1.0000 0.15335  0.94065  0.08990  Biso   1.000  C
  C58      1.0000 0.01111  0.86377  0.99613  Biso   1.000  C
  H50      1.0000 0.00483  0.69316  0.05140  Biso   1.000  H
  H51      1.0000 0.10745  0.70912  0.10782  Biso   1.000  H
  H52      1.0000 0.99882  0.67700  0.14117  Biso   1.000  H
  H53      1.0000 0.41071  0.26259  0.39689  Biso   1.000  H
  C59      1.0000 0.27510  0.16175  0.19239  Biso   1.000  C
  H54      1.0000 0.28181  0.23459  0.30572  Biso   1.000  H
  C60      1.0000 0.28924  0.06880  0.05333  Biso   1.000  C
  C61      1.0000 0.19128  0.99621  0.03566  Biso   1.000  C
  H55      1.0000 0.19033  0.95300  0.14317  Biso   1.000  H
  O14      1.0000 0.92254  0.80041  0.98020  Biso   1.000  O
  C62      1.0000 0.04777  0.91826  0.94194  Biso   1.000  C
  O15      1.0000 0.19095  0.19456  0.16012  Biso   1.000  O
  C63      1.0000 0.37914  0.03786  0.00321  Biso   1.000  C
  H56      1.0000 0.27664  0.13569  0.02609  Biso   1.000  H
  C64      1.0000 0.13640  0.98443  0.96047  Biso   1.000  C
  H57      1.0000 0.88911  0.79952  0.94182  Biso   1.000  H
  H58      1.0000 0.01059  0.91842  0.89509  Biso   1.000  H
  H59      1.0000 0.39478  0.98102  0.01671  Biso   1.000  H
  H60      1.0000 0.35841  0.02913  0.94661  Biso   1.000  H
  H61      1.0000 0.44011  0.08422  0.01507  Biso   1.000  H
  O16      1.0000 0.17168  0.04019  0.90689  Biso   1.000  O
  H62      1.0000 0.11827  0.03461  0.87360  Biso   1.000  H
