data_image0
_cell_length_a       11.149
_cell_length_b       22.831
_cell_length_c       13.336
_cell_angle_alpha    90
_cell_angle_beta     103.37
_cell_angle_gamma    90

_symmetry_space_group_name_H-M    "P 1"
_symmetry_int_tables_number       1

loop_
  _symmetry_equiv_pos_as_xyz
  'x, y, z'

loop_
  _atom_site_label
  _atom_site_occupancy
  _atom_site_fract_x
  _atom_site_fract_y
  _atom_site_fract_z
  _atom_site_thermal_displace_type
  _atom_site_B_iso_or_equiv
  _atom_site_type_symbol
  O1       1.0000 0.57520  0.41838  0.51655  Biso   1.000  O
  C1       1.0000 0.51753  0.40498  0.59439  Biso   1.000  C
  H1       1.0000 0.51799  0.42420  0.45597  Biso   1.000  H
  C2       1.0000 0.58517  0.37729  0.68295  Biso   1.000  C
  C3       1.0000 0.39538  0.42114  0.58599  Biso   1.000  C
  C4       1.0000 0.71963  0.36135  0.69174  Biso   1.000  C
  C5       1.0000 0.52396  0.36490  0.76064  Biso   1.000  C
  C6       1.0000 0.33758  0.40804  0.66530  Biso   1.000  C
  H2       1.0000 0.35500  0.44168  0.52788  Biso   1.000  H
  C7       1.0000 0.73125  0.30384  0.63678  Biso   1.000  C
  H3       1.0000 0.75703  0.39179  0.65767  Biso   1.000  H
  C8       1.0000 0.79555  0.36122  0.80342  Biso   1.000  C
  C9       1.0000 0.40070  0.37905  0.75440  Biso   1.000  C
  H4       1.0000 0.56900  0.34440  0.82230  Biso   1.000  H
  O2       1.0000 0.21842  0.42508  0.65867  Biso   1.000  O
  C10      1.0000 0.71801  0.25001  0.68264  Biso   1.000  C
  C11      1.0000 0.75625  0.30270  0.53844  Biso   1.000  C
  H5       1.0000 0.76692  0.33091  0.84550  Biso   1.000  H
  H6       1.0000 0.88307  0.35430  0.80203  Biso   1.000  H
  H7       1.0000 0.78701  0.40051  0.83741  Biso   1.000  H
  C12      1.0000 0.33261  0.36153  0.83671  Biso   1.000  C
  H8       1.0000 0.18502  0.43660  0.59401  Biso   1.000  H
  C13      1.0000 0.73125  0.19618  0.63678  Biso   1.000  C
  H9       1.0000 0.69603  0.25001  0.75201  Biso   1.000  H
  C14      1.0000 0.77012  0.25001  0.49065  Biso   1.000  C
  O3       1.0000 0.76720  0.35298  0.48464  Biso   1.000  O
  C15      1.0000 0.26366  0.30380  0.80858  Biso   1.000  C
  H10      1.0000 0.27152  0.39372  0.83733  Biso   1.000  H
  C16      1.0000 0.41587  0.36017  0.94577  Biso   1.000  C
  C17      1.0000 0.71963  0.13863  0.69174  Biso   1.000  C
  C18      1.0000 0.75625  0.19728  0.53844  Biso   1.000  C
  H11      1.0000 0.78404  0.25001  0.42098  Biso   1.000  H
  H12      1.0000 0.71503  0.37900  0.49967  Biso   1.000  H
  C19      1.0000 0.32320  0.25001  0.82962  Biso   1.000  C
  C20      1.0000 0.13775  0.30275  0.76003  Biso   1.000  C
  H13      1.0000 0.48011  0.33139  0.95587  Biso   1.000  H
  H14      1.0000 0.36801  0.35158  0.99680  Biso   1.000  H
  H15      1.0000 0.45800  0.39889  0.96188  Biso   1.000  H
  C21      1.0000 0.58517  0.12273  0.68295  Biso   1.000  C
  H16      1.0000 0.75703  0.10819  0.65767  Biso   1.000  H
  C22      1.0000 0.79555  0.13880  0.80342  Biso   1.000  C
  O4       1.0000 0.76720  0.14699  0.48464  Biso   1.000  O
  C23      1.0000 0.26366  0.19618  0.80858  Biso   1.000  C
  H17      1.0000 0.40805  0.25001  0.86300  Biso   1.000  H
  C24      1.0000 0.07567  0.25001  0.73729  Biso   1.000  C
  O5       1.0000 0.06980  0.35290  0.73390  Biso   1.000  O
  C25      1.0000 0.51753  0.09500  0.59439  Biso   1.000  C
  C26      1.0000 0.52396  0.13512  0.76064  Biso   1.000  C
  H18      1.0000 0.76692  0.16911  0.84550  Biso   1.000  H
  H19      1.0000 0.88307  0.14568  0.80203  Biso   1.000  H
  H20      1.0000 0.78701  0.09951  0.83741  Biso   1.000  H
  H21      1.0000 0.71503  0.12102  0.49967  Biso   1.000  H
  C27      1.0000 0.33261  0.13850  0.83671  Biso   1.000  C
  C28      1.0000 0.13775  0.19728  0.76003  Biso   1.000  C
  H22      1.0000 0.98906  0.25001  0.70500  Biso   1.000  H
  H23      1.0000 0.11599  0.37830  0.71509  Biso   1.000  H
  O6       1.0000 0.57520  0.08164  0.51655  Biso   1.000  O
  C29      1.0000 0.39538  0.07888  0.58599  Biso   1.000  C
  C30      1.0000 0.40070  0.12098  0.75440  Biso   1.000  C
  H24      1.0000 0.56900  0.15562  0.82230  Biso   1.000  H
  H25      1.0000 0.27152  0.10630  0.83733  Biso   1.000  H
  C31      1.0000 0.41587  0.13985  0.94577  Biso   1.000  C
  O7       1.0000 0.06980  0.14712  0.73390  Biso   1.000  O
  H26      1.0000 0.51799  0.07582  0.45597  Biso   1.000  H
  H27      1.0000 0.35500  0.05830  0.52788  Biso   1.000  H
  C32      1.0000 0.33758  0.09194  0.66530  Biso   1.000  C
  H28      1.0000 0.48011  0.16859  0.95587  Biso   1.000  H
  H29      1.0000 0.36801  0.14839  0.99680  Biso   1.000  H
  H30      1.0000 0.45800  0.10109  0.96188  Biso   1.000  H
  H31      1.0000 0.11599  0.12172  0.71509  Biso   1.000  H
  O8       1.0000 0.21842  0.07494  0.65867  Biso   1.000  O
  H32      1.0000 0.18502  0.06338  0.59401  Biso   1.000  H
  O9       1.0000 0.42479  0.58162  0.48348  Biso   1.000  O
  C33      1.0000 0.48253  0.59502  0.40556  Biso   1.000  C
  H33      1.0000 0.48198  0.57580  0.54399  Biso   1.000  H
  C34      1.0000 0.41491  0.62271  0.31708  Biso   1.000  C
  C35      1.0000 0.60459  0.57886  0.41396  Biso   1.000  C
  C36      1.0000 0.28045  0.63865  0.30830  Biso   1.000  C
  C37      1.0000 0.47612  0.63510  0.23939  Biso   1.000  C
  H34      1.0000 0.64497  0.55832  0.47208  Biso   1.000  H
  C38      1.0000 0.66241  0.59196  0.33473  Biso   1.000  C
  C39      1.0000 0.26874  0.69616  0.36325  Biso   1.000  C
  H35      1.0000 0.24303  0.60821  0.34229  Biso   1.000  H
  C40      1.0000 0.20442  0.63878  0.19654  Biso   1.000  C
  C41      1.0000 0.59938  0.62095  0.24563  Biso   1.000  C
  H36      1.0000 0.43099  0.65560  0.17773  Biso   1.000  H
  O10      1.0000 0.78164  0.57492  0.34128  Biso   1.000  O
  C42      1.0000 0.24383  0.69730  0.46160  Biso   1.000  C
  C43      1.0000 0.28198  0.74999  0.31739  Biso   1.000  C
  H37      1.0000 0.23307  0.66909  0.15453  Biso   1.000  H
  H38      1.0000 0.11702  0.64570  0.19800  Biso   1.000  H
  H39      1.0000 0.21298  0.59949  0.16263  Biso   1.000  H
  C44      1.0000 0.66745  0.63847  0.16324  Biso   1.000  C
  H40      1.0000 0.81506  0.56340  0.40603  Biso   1.000  H
  O11      1.0000 0.23277  0.64702  0.51532  Biso   1.000  O
  C45      1.0000 0.22996  0.74999  0.50938  Biso   1.000  C
  H41      1.0000 0.30405  0.74999  0.24802  Biso   1.000  H
  C46      1.0000 0.26874  0.80382  0.36325  Biso   1.000  C
  H42      1.0000 0.72847  0.60628  0.16270  Biso   1.000  H
  C47      1.0000 0.58410  0.63983  0.05418  Biso   1.000  C
  C48      1.0000 0.73633  0.69620  0.19145  Biso   1.000  C
  H43      1.0000 0.28503  0.62100  0.50029  Biso   1.000  H
  H44      1.0000 0.21602  0.74999  0.57898  Biso   1.000  H
  C49      1.0000 0.24383  0.80272  0.46160  Biso   1.000  C
  C50      1.0000 0.28045  0.86137  0.30830  Biso   1.000  C
  H45      1.0000 0.51986  0.66861  0.04409  Biso   1.000  H
  H46      1.0000 0.63198  0.64842  0.00324  Biso   1.000  H
  H47      1.0000 0.54197  0.60111  0.03807  Biso   1.000  H
  C51      1.0000 0.67686  0.74999  0.17033  Biso   1.000  C
  C52      1.0000 0.86222  0.69725  0.23993  Biso   1.000  C
  O12      1.0000 0.23277  0.85301  0.51532  Biso   1.000  O
  C53      1.0000 0.41491  0.87727  0.31708  Biso   1.000  C
  H48      1.0000 0.24303  0.89181  0.34229  Biso   1.000  H
  C54      1.0000 0.20442  0.86120  0.19654  Biso   1.000  C
  H49      1.0000 0.59203  0.74999  0.13704  Biso   1.000  H
  C55      1.0000 0.73633  0.80382  0.19145  Biso   1.000  C
  O13      1.0000 0.93028  0.64710  0.26614  Biso   1.000  O
  C56      1.0000 0.92441  0.74999  0.26275  Biso   1.000  C
  H50      1.0000 0.28503  0.87898  0.50029  Biso   1.000  H
  C57      1.0000 0.48253  0.90500  0.40556  Biso   1.000  C
  C58      1.0000 0.47612  0.86488  0.23939  Biso   1.000  C
  H51      1.0000 0.23307  0.83089  0.15453  Biso   1.000  H
  H52      1.0000 0.11702  0.85432  0.19800  Biso   1.000  H
  H53      1.0000 0.21298  0.90049  0.16263  Biso   1.000  H
  C59      1.0000 0.66745  0.86150  0.16324  Biso   1.000  C
  C60      1.0000 0.86222  0.80272  0.23993  Biso   1.000  C
  H54      1.0000 0.88398  0.62170  0.28487  Biso   1.000  H
  H55      1.0000 0.01102  0.74999  0.29504  Biso   1.000  H
  C61      1.0000 0.60459  0.92112  0.41396  Biso   1.000  C
  O14      1.0000 0.42479  0.91836  0.48348  Biso   1.000  O
  C62      1.0000 0.59938  0.87902  0.24563  Biso   1.000  C
  H56      1.0000 0.43099  0.84438  0.17773  Biso   1.000  H
  H57      1.0000 0.72847  0.89370  0.16270  Biso   1.000  H
  C63      1.0000 0.58410  0.86015  0.05418  Biso   1.000  C
  O15      1.0000 0.93028  0.85288  0.26614  Biso   1.000  O
  C64      1.0000 0.66241  0.90806  0.33473  Biso   1.000  C
  H58      1.0000 0.64497  0.94170  0.47208  Biso   1.000  H
  H59      1.0000 0.48198  0.92418  0.54399  Biso   1.000  H
  H60      1.0000 0.51986  0.83141  0.04409  Biso   1.000  H
  H61      1.0000 0.63198  0.85161  0.00324  Biso   1.000  H
  H62      1.0000 0.54197  0.89891  0.03807  Biso   1.000  H
  H63      1.0000 0.88398  0.87828  0.28487  Biso   1.000  H
  O16      1.0000 0.78164  0.92506  0.34128  Biso   1.000  O
  H64      1.0000 0.81506  0.93662  0.40603  Biso   1.000  H
