data_image0
_cell_length_a       10.24
_cell_length_b       12.446
_cell_length_c       24.466
_cell_angle_alpha    90
_cell_angle_beta     101.04
_cell_angle_gamma    90

_symmetry_space_group_name_H-M    "P 1"
_symmetry_int_tables_number       1

loop_
  _symmetry_equiv_pos_as_xyz
  'x, y, z'

loop_
  _atom_site_label
  _atom_site_occupancy
  _atom_site_fract_x
  _atom_site_fract_y
  _atom_site_fract_z
  _atom_site_thermal_displace_type
  _atom_site_B_iso_or_equiv
  _atom_site_type_symbol
  C1       1.0000 0.55105  0.64270  0.47549  Biso   1.000  C
  C2       1.0000 0.56083  0.69211  0.41919  Biso   1.000  C
  H1       1.0000 0.47031  0.60204  0.47191  Biso   1.000  H
  H2       1.0000 0.55105  0.69878  0.50239  Biso   1.000  H
  H3       1.0000 0.62587  0.59618  0.48748  Biso   1.000  H
  C3       1.0000 0.57105  0.60180  0.37792  Biso   1.000  C
  C4       1.0000 0.68372  0.76274  0.42460  Biso   1.000  C
  C5       1.0000 0.43892  0.76081  0.39711  Biso   1.000  C
  N1       1.0000 0.59722  0.62325  0.32582  Biso   1.000  N
  C6       1.0000 0.54515  0.49711  0.38021  Biso   1.000  C
  C7       1.0000 0.69819  0.87056  0.41931  Biso   1.000  C
  N2       1.0000 0.80968  0.72224  0.43972  Biso   1.000  N
  H4       1.0000 0.44813  0.79278  0.36238  Biso   1.000  H
  H5       1.0000 0.43102  0.81625  0.42360  Biso   1.000  H
  H6       1.0000 0.36066  0.71654  0.39149  Biso   1.000  H
  C8       1.0000 0.59063  0.53021  0.29542  Biso   1.000  C
  H7       1.0000 0.60694  0.68600  0.31399  Biso   1.000  H
  C9       1.0000 0.55872  0.45059  0.32769  Biso   1.000  C
  H8       1.0000 0.52234  0.46071  0.41019  Biso   1.000  H
  C10      1.0000 0.83532  0.89491  0.43172  Biso   1.000  C
  H9       1.0000 0.62950  0.91973  0.40919  Biso   1.000  H
  C11      1.0000 0.90419  0.80299  0.44459  Biso   1.000  C
  H10      1.0000 0.82795  0.65499  0.44700  Biso   1.000  H
  C12      1.0000 0.60771  0.53174  0.23562  Biso   1.000  C
  H11      1.0000 0.54741  0.37860  0.31791  Biso   1.000  H
  H12      1.0000 0.87204  0.96312  0.43110  Biso   1.000  H
  C13      1.0000 0.04839  0.77672  0.46029  Biso   1.000  C
  C14      1.0000 0.58636  0.41604  0.21330  Biso   1.000  C
  C15      1.0000 0.74511  0.56934  0.23050  Biso   1.000  C
  C16      1.0000 0.50362  0.60509  0.19981  Biso   1.000  C
  C17      1.0000 0.08073  0.67821  0.42851  Biso   1.000  C
  C18      1.0000 0.13098  0.87651  0.44850  Biso   1.000  C
  C19      1.0000 0.08952  0.75350  0.52309  Biso   1.000  C
  O1       1.0000 0.47737  0.38792  0.19131  Biso   1.000  O
  C20      1.0000 0.70173  0.34027  0.22021  Biso   1.000  C
  C21      1.0000 0.79271  0.61224  0.18748  Biso   1.000  C
  N3       1.0000 0.85496  0.55263  0.27231  Biso   1.000  N
  H13      1.0000 0.51156  0.67660  0.21480  Biso   1.000  H
  H14      1.0000 0.41587  0.57810  0.20010  Biso   1.000  H
  H15      1.0000 0.51835  0.60630  0.16220  Biso   1.000  H
  N4       1.0000 0.08078  0.68448  0.37271  Biso   1.000  N
  C22      1.0000 0.09839  0.57424  0.44321  Biso   1.000  C
  H16      1.0000 0.10938  0.89402  0.40961  Biso   1.000  H
  H17      1.0000 0.22423  0.86052  0.45871  Biso   1.000  H
  H18      1.0000 0.11005  0.93653  0.46999  Biso   1.000  H
  C23      1.0000 0.23392  0.73405  0.54670  Biso   1.000  C
  O2       1.0000 0.00951  0.75880  0.55270  Biso   1.000  O
  H19      1.0000 0.74561  0.33890  0.25848  Biso   1.000  H
  H20      1.0000 0.76312  0.36389  0.19752  Biso   1.000  H
  H21      1.0000 0.67038  0.26964  0.20888  Biso   1.000  H
  H22      1.0000 0.74162  0.63169  0.15329  Biso   1.000  H
  C24      1.0000 0.93172  0.62261  0.20251  Biso   1.000  C
  C25      1.0000 0.96953  0.58388  0.25548  Biso   1.000  C
  H23      1.0000 0.85602  0.52901  0.30600  Biso   1.000  H
  C26      1.0000 0.09993  0.58428  0.35181  Biso   1.000  C
  H24      1.0000 0.04403  0.72899  0.35301  Biso   1.000  H
  C27      1.0000 0.11187  0.51543  0.39478  Biso   1.000  C
  H25      1.0000 0.10130  0.54604  0.47861  Biso   1.000  H
  H26      1.0000 0.24197  0.68014  0.57518  Biso   1.000  H
  H27      1.0000 0.27431  0.79953  0.56240  Biso   1.000  H
  H28      1.0000 0.27793  0.71003  0.51759  Biso   1.000  H
  H29      1.0000 0.98777  0.65073  0.18032  Biso   1.000  H
  C28      1.0000 0.10433  0.56765  0.29121  Biso   1.000  C
  H30      1.0000 0.12658  0.44191  0.39320  Biso   1.000  H
  C29      1.0000 0.20694  0.64503  0.27302  Biso   1.000  C
  C30      1.0000 0.15049  0.45171  0.28259  Biso   1.000  C
  H31      1.0000 0.21080  0.63201  0.23470  Biso   1.000  H
  H32      1.0000 0.29311  0.63281  0.29571  Biso   1.000  H
  H33      1.0000 0.18043  0.71798  0.27739  Biso   1.000  H
  H34      1.0000 0.09634  0.40190  0.29829  Biso   1.000  H
  H35      1.0000 0.24178  0.44352  0.30071  Biso   1.000  H
  H36      1.0000 0.14197  0.43781  0.24349  Biso   1.000  H
  C31      1.0000 0.44886  0.35730  0.52450  Biso   1.000  C
  C32      1.0000 0.43908  0.30789  0.58080  Biso   1.000  C
  H37      1.0000 0.52970  0.39804  0.52808  Biso   1.000  H
  H38      1.0000 0.44886  0.30122  0.49760  Biso   1.000  H
  H39      1.0000 0.37414  0.40382  0.51251  Biso   1.000  H
  C33      1.0000 0.31629  0.23735  0.57539  Biso   1.000  C
  C34      1.0000 0.42887  0.39820  0.62212  Biso   1.000  C
  C35      1.0000 0.56111  0.23919  0.60292  Biso   1.000  C
  C36      1.0000 0.30181  0.12952  0.58068  Biso   1.000  C
  N5       1.0000 0.19035  0.27784  0.56032  Biso   1.000  N
  C37      1.0000 0.45476  0.50289  0.61978  Biso   1.000  C
  N6       1.0000 0.40281  0.37683  0.67421  Biso   1.000  N
  H40      1.0000 0.55188  0.20722  0.63761  Biso   1.000  H
  H41      1.0000 0.56899  0.18383  0.57639  Biso   1.000  H
  H42      1.0000 0.63925  0.28354  0.60850  Biso   1.000  H
  C38      1.0000 0.16471  0.10509  0.56831  Biso   1.000  C
  H43      1.0000 0.37050  0.08027  0.59080  Biso   1.000  H
  C39      1.0000 0.09581  0.19701  0.55540  Biso   1.000  C
  H44      1.0000 0.17195  0.34501  0.55299  Biso   1.000  H
  H45      1.0000 0.47757  0.53929  0.58980  Biso   1.000  H
  C40      1.0000 0.44129  0.54941  0.67230  Biso   1.000  C
  C41      1.0000 0.40939  0.46979  0.70461  Biso   1.000  C
  H46      1.0000 0.39297  0.31400  0.68600  Biso   1.000  H
  H47      1.0000 0.12786  0.03688  0.56889  Biso   1.000  H
  C42      1.0000 0.95162  0.22328  0.53970  Biso   1.000  C
  H48      1.0000 0.45260  0.62140  0.68208  Biso   1.000  H
  C43      1.0000 0.39232  0.46834  0.76441  Biso   1.000  C
  C44      1.0000 0.91930  0.32179  0.57152  Biso   1.000  C
  C45      1.0000 0.86892  0.12349  0.55149  Biso   1.000  C
  C46      1.0000 0.91048  0.24650  0.47690  Biso   1.000  C
  C47      1.0000 0.25490  0.43074  0.76949  Biso   1.000  C
  C48      1.0000 0.49638  0.39491  0.80018  Biso   1.000  C
  C49      1.0000 0.41355  0.58404  0.78669  Biso   1.000  C
  C50      1.0000 0.90154  0.42584  0.55682  Biso   1.000  C
  N7       1.0000 0.91913  0.31552  0.62728  Biso   1.000  N
  H49      1.0000 0.89053  0.10598  0.59038  Biso   1.000  H
  H50      1.0000 0.77578  0.13948  0.54129  Biso   1.000  H
  H51      1.0000 0.88985  0.06347  0.53000  Biso   1.000  H
  C51      1.0000 0.76609  0.26603  0.45329  Biso   1.000  C
  O3       1.0000 0.99049  0.24120  0.44730  Biso   1.000  O
  C52      1.0000 0.20729  0.38784  0.81251  Biso   1.000  C
  N8       1.0000 0.14495  0.44737  0.72768  Biso   1.000  N
  H52      1.0000 0.48835  0.32340  0.78519  Biso   1.000  H
  H53      1.0000 0.58404  0.42190  0.79989  Biso   1.000  H
  H54      1.0000 0.48155  0.39370  0.83779  Biso   1.000  H
  C53      1.0000 0.29829  0.65973  0.77982  Biso   1.000  C
  O4       1.0000 0.52253  0.61208  0.80868  Biso   1.000  O
  C54      1.0000 0.88803  0.48457  0.60521  Biso   1.000  C
  H55      1.0000 0.89870  0.45404  0.52138  Biso   1.000  H
  C55      1.0000 0.90008  0.41572  0.64818  Biso   1.000  C
  H56      1.0000 0.95599  0.27101  0.64702  Biso   1.000  H
  H57      1.0000 0.75794  0.31994  0.42481  Biso   1.000  H
  H58      1.0000 0.72570  0.20047  0.43759  Biso   1.000  H
  H59      1.0000 0.72208  0.28997  0.48240  Biso   1.000  H
  H60      1.0000 0.25839  0.36831  0.84670  Biso   1.000  H
  C56      1.0000 0.06831  0.37739  0.79752  Biso   1.000  C
  C57      1.0000 0.03038  0.41612  0.74451  Biso   1.000  C
  H61      1.0000 0.14399  0.47099  0.69399  Biso   1.000  H
  H62      1.0000 0.25440  0.66110  0.74151  Biso   1.000  H
  H63      1.0000 0.23690  0.63611  0.80252  Biso   1.000  H
  H64      1.0000 0.32963  0.73044  0.79111  Biso   1.000  H
  H65      1.0000 0.87333  0.55809  0.60679  Biso   1.000  H
  C58      1.0000 0.89569  0.43243  0.70882  Biso   1.000  C
  H66      1.0000 0.01225  0.34927  0.81971  Biso   1.000  H
  C59      1.0000 0.79308  0.35497  0.72702  Biso   1.000  C
  C60      1.0000 0.84952  0.54829  0.71740  Biso   1.000  C
  H67      1.0000 0.78920  0.36799  0.76529  Biso   1.000  H
  H68      1.0000 0.70691  0.36719  0.70432  Biso   1.000  H
  H69      1.0000 0.81958  0.28202  0.72260  Biso   1.000  H
  H70      1.0000 0.90366  0.59810  0.70170  Biso   1.000  H
  H71      1.0000 0.75813  0.55648  0.69928  Biso   1.000  H
  H72      1.0000 0.85794  0.56219  0.75650  Biso   1.000  H
  C61      1.0000 0.56825  0.12261  0.29750  Biso   1.000  C
  C62      1.0000 0.53042  0.08388  0.24449  Biso   1.000  C
  C63      1.0000 0.70723  0.11216  0.31249  Biso   1.000  C
  H73      1.0000 0.51219  0.15073  0.31970  Biso   1.000  H
  C64      1.0000 0.39573  0.06757  0.20880  Biso   1.000  C
  N9       1.0000 0.64500  0.05263  0.22771  Biso   1.000  N
  C65      1.0000 0.75486  0.06934  0.26952  Biso   1.000  C
  H74      1.0000 0.75833  0.13169  0.34668  Biso   1.000  H
  C66      1.0000 0.29312  0.14503  0.22700  Biso   1.000  C
  C67      1.0000 0.40013  0.08428  0.14821  Biso   1.000  C
  C68      1.0000 0.34946  0.95171  0.21738  Biso   1.000  C
  H75      1.0000 0.64394  0.02901  0.19402  Biso   1.000  H
  C69      1.0000 0.89226  0.03174  0.26440  Biso   1.000  C
  H76      1.0000 0.28916  0.13201  0.26531  Biso   1.000  H
  H77      1.0000 0.20685  0.13281  0.20430  Biso   1.000  H
  H78      1.0000 0.31961  0.21798  0.22259  Biso   1.000  H
  C70      1.0000 0.38807  0.01543  0.10519  Biso   1.000  C
  N10      1.0000 0.41918  0.18448  0.12730  Biso   1.000  N
  H79      1.0000 0.40370  0.90190  0.20168  Biso   1.000  H
  H80      1.0000 0.25818  0.94352  0.19931  Biso   1.000  H
  H81      1.0000 0.35797  0.93781  0.25648  Biso   1.000  H
  C71      1.0000 0.90933  0.03021  0.20460  Biso   1.000  C
  C72      1.0000 0.99634  0.10509  0.30021  Biso   1.000  C
  C73      1.0000 0.91360  0.91604  0.28672  Biso   1.000  C
  C74      1.0000 0.40157  0.07424  0.05680  Biso   1.000  C
  H82      1.0000 0.37338  0.94191  0.10682  Biso   1.000  H
  C75      1.0000 0.41934  0.17821  0.07150  Biso   1.000  C
  H83      1.0000 0.45603  0.22899  0.14700  Biso   1.000  H
  N11      1.0000 0.90275  0.12317  0.17420  Biso   1.000  N
  C76      1.0000 0.94123  0.95059  0.17228  Biso   1.000  C
  H84      1.0000 0.98841  0.17660  0.28522  Biso   1.000  H
  H85      1.0000 0.98161  0.10630  0.33781  Biso   1.000  H
  H86      1.0000 0.08410  0.07810  0.29992  Biso   1.000  H
  C77      1.0000 0.79823  0.84035  0.27980  Biso   1.000  C
  O5       1.0000 0.02259  0.88792  0.30870  Biso   1.000  O
  H87      1.0000 0.39866  0.04604  0.02140  Biso   1.000  H
  C78      1.0000 0.45156  0.27672  0.03969  Biso   1.000  C
  C79      1.0000 0.92891  0.10180  0.12210  Biso   1.000  C
  H88      1.0000 0.89300  0.18600  0.18598  Biso   1.000  H
  C80      1.0000 0.95482  0.99711  0.11981  Biso   1.000  C
  H89      1.0000 0.95256  0.87860  0.18211  Biso   1.000  H
  H90      1.0000 0.75434  0.83890  0.24149  Biso   1.000  H
  H91      1.0000 0.73684  0.86389  0.30250  Biso   1.000  H
  H92      1.0000 0.82957  0.76964  0.29109  Biso   1.000  H
  C81      1.0000 0.59575  0.30299  0.05539  Biso   1.000  C
  C82      1.0000 0.36898  0.37651  0.05151  Biso   1.000  C
  C83      1.0000 0.41054  0.25350  0.97693  Biso   1.000  C
  C84      1.0000 0.93911  0.19211  0.08079  Biso   1.000  C
  H93      1.0000 0.97760  0.96071  0.08978  Biso   1.000  H
  C85      1.0000 0.66465  0.39491  0.06830  Biso   1.000  C
  N12      1.0000 0.69028  0.22224  0.06030  Biso   1.000  N
  H94      1.0000 0.39058  0.39402  0.09041  Biso   1.000  H
  H95      1.0000 0.27583  0.36052  0.04131  Biso   1.000  H
  H96      1.0000 0.38989  0.43653  0.02998  Biso   1.000  H
  C86      1.0000 0.26604  0.23397  0.95332  Biso   1.000  C
  O6       1.0000 0.49045  0.25880  0.94732  Biso   1.000  O
  C87      1.0000 0.81624  0.26274  0.07542  Biso   1.000  C
  C88      1.0000 0.94890  0.14270  0.02449  Biso   1.000  C
  C89      1.0000 0.06114  0.26081  0.10290  Biso   1.000  C
  H97      1.0000 0.62792  0.46312  0.06892  Biso   1.000  H
  C90      1.0000 0.80177  0.37048  0.08071  Biso   1.000  C
  H98      1.0000 0.67201  0.15499  0.05301  Biso   1.000  H
  H99      1.0000 0.25797  0.18014  0.92479  Biso   1.000  H
  H100     1.0000 0.22566  0.29953  0.93762  Biso   1.000  H
  H101     1.0000 0.22214  0.21003  0.98243  Biso   1.000  H
  H102     1.0000 0.87408  0.09618  0.01249  Biso   1.000  H
  H103     1.0000 0.94891  0.19878  0.99763  Biso   1.000  H
  H104     1.0000 0.02966  0.10204  0.02811  Biso   1.000  H
  H105     1.0000 0.05192  0.29278  0.13759  Biso   1.000  H
  H106     1.0000 0.06904  0.31625  0.07642  Biso   1.000  H
  H107     1.0000 0.13928  0.21654  0.10848  Biso   1.000  H
  H108     1.0000 0.87044  0.41973  0.09078  Biso   1.000  H
  C91      1.0000 0.43166  0.87739  0.70249  Biso   1.000  C
  C92      1.0000 0.29267  0.88784  0.68750  Biso   1.000  C
  H109     1.0000 0.48782  0.84935  0.68029  Biso   1.000  H
  C93      1.0000 0.46959  0.91612  0.75550  Biso   1.000  C
  C94      1.0000 0.24507  0.93074  0.73051  Biso   1.000  C
  H110     1.0000 0.24158  0.86831  0.65331  Biso   1.000  H
  N13      1.0000 0.35500  0.94745  0.77228  Biso   1.000  N
  C95      1.0000 0.60428  0.93243  0.79119  Biso   1.000  C
  C96      1.0000 0.10765  0.96834  0.73559  Biso   1.000  C
  H111     1.0000 0.35598  0.97099  0.80601  Biso   1.000  H
  C97      1.0000 0.59987  0.91572  0.85178  Biso   1.000  C
  C98      1.0000 0.70689  0.85505  0.77299  Biso   1.000  C
  C99      1.0000 0.65045  0.04829  0.78261  Biso   1.000  C
  C100     1.0000 0.09058  0.96979  0.79540  Biso   1.000  C
  C101     1.0000 0.00357  0.89491  0.69978  Biso   1.000  C
  C102     1.0000 0.08642  0.08396  0.71332  Biso   1.000  C
  C103     1.0000 0.61184  0.98465  0.89480  Biso   1.000  C
  N14      1.0000 0.58082  0.81552  0.87269  Biso   1.000  N
  H112     1.0000 0.71077  0.86799  0.73472  Biso   1.000  H
  H113     1.0000 0.79305  0.86719  0.79569  Biso   1.000  H
  H114     1.0000 0.68039  0.78202  0.77740  Biso   1.000  H
  H115     1.0000 0.59630  0.09810  0.79831  Biso   1.000  H
  H116     1.0000 0.74173  0.05648  0.80068  Biso   1.000  H
  H117     1.0000 0.64203  0.06219  0.74351  Biso   1.000  H
  N15      1.0000 0.09716  0.87683  0.82579  Biso   1.000  N
  C104     1.0000 0.05868  0.04941  0.82771  Biso   1.000  C
  H118     1.0000 0.01162  0.82340  0.71481  Biso   1.000  H
  H119     1.0000 0.01841  0.89370  0.66222  Biso   1.000  H
  H120     1.0000 0.91593  0.92190  0.70011  Biso   1.000  H
  O7       1.0000 0.97732  0.11208  0.69129  Biso   1.000  O
  C105     1.0000 0.20167  0.15973  0.72019  Biso   1.000  C
  C106     1.0000 0.59833  0.92584  0.94319  Biso   1.000  C
  H121     1.0000 0.62654  0.05809  0.89322  Biso   1.000  H
  C107     1.0000 0.58067  0.82179  0.92849  Biso   1.000  C
  H122     1.0000 0.54398  0.77101  0.85299  Biso   1.000  H
  C108     1.0000 0.07109  0.89820  0.87789  Biso   1.000  C
  H123     1.0000 0.10700  0.81400  0.81401  Biso   1.000  H
  C109     1.0000 0.04519  0.00289  0.88018  Biso   1.000  C
  H124     1.0000 0.04735  0.12140  0.81788  Biso   1.000  H
  H125     1.0000 0.24557  0.16110  0.75850  Biso   1.000  H
  H126     1.0000 0.26307  0.13611  0.69749  Biso   1.000  H
  H127     1.0000 0.17044  0.23044  0.70890  Biso   1.000  H
  H128     1.0000 0.60125  0.95404  0.97859  Biso   1.000  H
  C110     1.0000 0.54835  0.72328  0.96030  Biso   1.000  C
  C111     1.0000 0.06089  0.80789  0.91920  Biso   1.000  C
  H129     1.0000 0.02240  0.03929  0.91021  Biso   1.000  H
  C112     1.0000 0.40416  0.69701  0.94460  Biso   1.000  C
  C113     1.0000 0.63095  0.62349  0.94852  Biso   1.000  C
  C114     1.0000 0.58949  0.74650  0.02310  Biso   1.000  C
  C115     1.0000 0.18368  0.73735  0.92462  Biso   1.000  C
  C116     1.0000 0.05111  0.85730  0.97550  Biso   1.000  C
  C117     1.0000 0.93886  0.73919  0.89709  Biso   1.000  C
  N16      1.0000 0.30972  0.77784  0.93969  Biso   1.000  N
  C118     1.0000 0.33526  0.60509  0.93169  Biso   1.000  C
  H130     1.0000 0.60942  0.60598  0.90958  Biso   1.000  H
  H131     1.0000 0.72417  0.63948  0.95868  Biso   1.000  H
  H132     1.0000 0.61012  0.56347  0.97001  Biso   1.000  H
  C119     1.0000 0.73386  0.76603  0.04667  Biso   1.000  C
  O8       1.0000 0.50946  0.74120  0.05267  Biso   1.000  O
  C120     1.0000 0.19814  0.62952  0.91929  Biso   1.000  C
  H133     1.0000 0.12593  0.90382  0.98750  Biso   1.000  H
  H134     1.0000 0.97025  0.89804  0.97188  Biso   1.000  H
  H135     1.0000 0.05111  0.80122  0.00241  Biso   1.000  H
  H136     1.0000 0.94809  0.70722  0.86240  Biso   1.000  H
  H137     1.0000 0.93098  0.68383  0.92362  Biso   1.000  H
  H138     1.0000 0.86072  0.78354  0.89151  Biso   1.000  H
  H139     1.0000 0.32802  0.84501  0.94702  Biso   1.000  H
  H140     1.0000 0.37210  0.53688  0.93111  Biso   1.000  H
  H141     1.0000 0.74203  0.81994  0.07520  Biso   1.000  H
  H142     1.0000 0.77425  0.70055  0.06237  Biso   1.000  H
  H143     1.0000 0.77789  0.79005  0.01761  Biso   1.000  H
  H144     1.0000 0.12947  0.58035  0.90921  Biso   1.000  H
