data_image0
_cell_length_a       10.309
_cell_length_b       13.246
_cell_length_c       11.386
_cell_angle_alpha    90
_cell_angle_beta     113.54
_cell_angle_gamma    90

_symmetry_space_group_name_H-M    "P 1"
_symmetry_int_tables_number       1

loop_
  _symmetry_equiv_pos_as_xyz
  'x, y, z'

loop_
  _atom_site_label
  _atom_site_occupancy
  _atom_site_fract_x
  _atom_site_fract_y
  _atom_site_fract_z
  _atom_site_thermal_displace_type
  _atom_site_B_iso_or_equiv
  _atom_site_type_symbol
  C1       1.0000 0.50161  0.44730  0.59903  Biso   1.000  C
  C2       1.0000 0.56473  0.53790  0.55698  Biso   1.000  C
  H1       1.0000 0.54731  0.43983  0.69033  Biso   1.000  H
  H2       1.0000 0.51576  0.38729  0.55832  Biso   1.000  H
  H3       1.0000 0.40212  0.45803  0.57470  Biso   1.000  H
  C3       1.0000 0.48842  0.55149  0.40993  Biso   1.000  C
  C4       1.0000 0.72274  0.52129  0.59214  Biso   1.000  C
  C5       1.0000 0.53888  0.63317  0.61954  Biso   1.000  C
  O1       1.0000 0.37814  0.51057  0.35321  Biso   1.000  O
  C6       1.0000 0.55616  0.61422  0.34162  Biso   1.000  C
  C7       1.0000 0.79434  0.43568  0.60229  Biso   1.000  C
  N1       1.0000 0.81443  0.59890  0.60517  Biso   1.000  N
  C8       1.0000 0.45477  0.71357  0.57202  Biso   1.000  C
  N2       1.0000 0.60229  0.64533  0.74877  Biso   1.000  N
  H4       1.0000 0.63462  0.57799  0.33674  Biso   1.000  H
  H5       1.0000 0.58936  0.67620  0.38741  Biso   1.000  H
  H6       1.0000 0.48846  0.62872  0.25674  Biso   1.000  H
  H7       1.0000 0.75698  0.37098  0.59587  Biso   1.000  H
  C9       1.0000 0.93464  0.45878  0.62413  Biso   1.000  C
  C10      1.0000 0.94504  0.56032  0.62461  Biso   1.000  C
  H8       1.0000 0.79396  0.66201  0.61197  Biso   1.000  H
  C11      1.0000 0.46522  0.77699  0.67510  Biso   1.000  C
  H9       1.0000 0.39907  0.72550  0.48599  Biso   1.000  H
  C12      1.0000 0.55609  0.73283  0.78345  Biso   1.000  C
  H10      1.0000 0.65294  0.60403  0.79696  Biso   1.000  H
  H11      1.0000 0.00687  0.41280  0.63592  Biso   1.000  H
  C13      1.0000 0.06604  0.62751  0.62691  Biso   1.000  C
  H12      1.0000 0.41820  0.83791  0.66945  Biso   1.000  H
  C14      1.0000 0.59958  0.76000  0.92274  Biso   1.000  C
  C15      1.0000 0.08038  0.72150  0.70690  Biso   1.000  C
  C16      1.0000 0.03841  0.65861  0.48906  Biso   1.000  C
  C17      1.0000 0.20358  0.56681  0.68362  Biso   1.000  C
  C18      1.0000 0.75810  0.75208  0.99689  Biso   1.000  C
  C19      1.0000 0.55434  0.86902  0.93232  Biso   1.000  C
  C20      1.0000 0.52606  0.68798  0.98300  Biso   1.000  C
  C21      1.0000 0.10629  0.81889  0.68889  Biso   1.000  C
  N3       1.0000 0.07798  0.71576  0.82550  Biso   1.000  N
  H13      1.0000 0.95196  0.69659  0.45361  Biso   1.000  H
  H14      1.0000 0.03033  0.59928  0.43819  Biso   1.000  H
  H15      1.0000 0.11542  0.69938  0.48925  Biso   1.000  H
  H16      1.0000 0.28093  0.60781  0.68525  Biso   1.000  H
  H17      1.0000 0.19609  0.50808  0.63189  Biso   1.000  H
  H18      1.0000 0.21979  0.54628  0.76917  Biso   1.000  H
  N4       1.0000 0.85334  0.78522  0.94889  Biso   1.000  N
  C22      1.0000 0.83563  0.72361  0.11942  Biso   1.000  C
  H19      1.0000 0.45379  0.87521  0.88624  Biso   1.000  H
  H20      1.0000 0.60151  0.91401  0.89611  Biso   1.000  H
  H21      1.0000 0.57939  0.88608  0.02055  Biso   1.000  H
  H22      1.0000 0.55539  0.61989  0.97802  Biso   1.000  H
  H23      1.0000 0.42538  0.69319  0.93749  Biso   1.000  H
  H24      1.0000 0.55170  0.70587  0.07104  Biso   1.000  H
  H25      1.0000 0.11233  0.84531  0.61551  Biso   1.000  H
  C23      1.0000 0.12273  0.87377  0.79983  Biso   1.000  C
  C24      1.0000 0.10306  0.80847  0.88279  Biso   1.000  C
  H26      1.0000 0.05897  0.66903  0.86200  Biso   1.000  H
  H27      1.0000 0.82901  0.80303  0.87197  Biso   1.000  H
  C25      1.0000 0.98822  0.77903  0.03962  Biso   1.000  C
  C26      1.0000 0.97856  0.74317  0.14701  Biso   1.000  C
  H28      1.0000 0.80015  0.69583  0.17555  Biso   1.000  H
  H29      1.0000 0.14322  0.94232  0.81353  Biso   1.000  H
  C27      1.0000 0.11441  0.82078  0.02046  Biso   1.000  C
  H30      1.0000 0.05370  0.73328  0.22566  Biso   1.000  H
  C28      1.0000 0.24936  0.76831  0.11175  Biso   1.000  C
  C29      1.0000 0.13233  0.93591  0.04699  Biso   1.000  C
  H31      1.0000 0.25951  0.77820  0.19855  Biso   1.000  H
  H32      1.0000 0.32975  0.79639  0.10093  Biso   1.000  H
  H33      1.0000 0.24325  0.69742  0.09307  Biso   1.000  H
  C30      1.0000 0.00172  0.99872  0.01107  Biso   1.000  C
  O2       1.0000 0.24561  0.97229  0.09489  Biso   1.000  O
  H34      1.0000 0.93619  0.98098  0.92628  Biso   1.000  H
  H35      1.0000 0.95879  0.98671  0.07075  Biso   1.000  H
  H36      1.0000 0.02603  0.06878  0.01317  Biso   1.000  H
  C31      1.0000 0.53480  0.27699  0.32486  Biso   1.000  C
  C32      1.0000 0.44388  0.23283  0.21660  Biso   1.000  C
  C33      1.0000 0.54520  0.21357  0.42803  Biso   1.000  C
  H37      1.0000 0.58176  0.33791  0.33060  Biso   1.000  H
  N5       1.0000 0.39774  0.14533  0.25119  Biso   1.000  N
  C34      1.0000 0.40038  0.26000  0.07731  Biso   1.000  C
  C35      1.0000 0.46109  0.13317  0.38052  Biso   1.000  C
  H38      1.0000 0.60086  0.22550  0.51396  Biso   1.000  H
  H39      1.0000 0.34699  0.10403  0.20300  Biso   1.000  H
  C36      1.0000 0.24192  0.25208  0.00307  Biso   1.000  C
  C37      1.0000 0.44573  0.36902  0.06773  Biso   1.000  C
  C38      1.0000 0.47387  0.18798  0.01696  Biso   1.000  C
  C39      1.0000 0.43529  0.03790  0.44298  Biso   1.000  C
  N6       1.0000 0.14669  0.28522  0.05106  Biso   1.000  N
  C40      1.0000 0.16440  0.22361  0.88054  Biso   1.000  C
  H40      1.0000 0.54618  0.37521  0.11381  Biso   1.000  H
  H41      1.0000 0.39855  0.41401  0.10394  Biso   1.000  H
  H42      1.0000 0.42054  0.38608  0.97940  Biso   1.000  H
  H43      1.0000 0.44458  0.11989  0.02203  Biso   1.000  H
  H44      1.0000 0.57455  0.19319  0.06246  Biso   1.000  H
  H45      1.0000 0.44823  0.20587  0.92892  Biso   1.000  H
  C41      1.0000 0.27733  0.02129  0.40791  Biso   1.000  C
  C42      1.0000 0.51165  0.05149  0.59012  Biso   1.000  C
  C43      1.0000 0.49836  0.94730  0.40102  Biso   1.000  C
  H46      1.0000 0.17102  0.30303  0.12799  Biso   1.000  H
  C44      1.0000 0.01180  0.27903  0.96034  Biso   1.000  C
  C45      1.0000 0.02137  0.24317  0.85295  Biso   1.000  C
  H47      1.0000 0.19987  0.19583  0.82440  Biso   1.000  H
  N7       1.0000 0.18559  0.09890  0.39479  Biso   1.000  N
  C46      1.0000 0.20568  0.93568  0.39766  Biso   1.000  C
  C47      1.0000 0.44380  0.11422  0.65843  Biso   1.000  C
  O3       1.0000 0.62193  0.01057  0.64684  Biso   1.000  O
  H48      1.0000 0.45275  0.93983  0.30972  Biso   1.000  H
  H49      1.0000 0.48431  0.88729  0.44173  Biso   1.000  H
  H50      1.0000 0.59791  0.95803  0.42525  Biso   1.000  H
  C48      1.0000 0.88551  0.32078  0.97950  Biso   1.000  C
  H51      1.0000 0.94627  0.23328  0.77439  Biso   1.000  H
  C49      1.0000 0.05503  0.06032  0.37544  Biso   1.000  C
  H52      1.0000 0.20597  0.16201  0.38799  Biso   1.000  H
  H53      1.0000 0.24295  0.87098  0.40408  Biso   1.000  H
  C50      1.0000 0.06542  0.95878  0.37592  Biso   1.000  C
  H54      1.0000 0.36545  0.07799  0.66332  Biso   1.000  H
  H55      1.0000 0.41061  0.17620  0.61264  Biso   1.000  H
  H56      1.0000 0.51161  0.12872  0.74331  Biso   1.000  H
  C51      1.0000 0.75066  0.26831  0.88820  Biso   1.000  C
  C52      1.0000 0.86764  0.43591  0.95306  Biso   1.000  C
  C53      1.0000 0.89687  0.30847  0.11716  Biso   1.000  C
  C54      1.0000 0.93402  0.12751  0.37314  Biso   1.000  C
  H57      1.0000 0.99310  0.91280  0.36413  Biso   1.000  H
  H58      1.0000 0.74041  0.27820  0.80141  Biso   1.000  H
  H59      1.0000 0.67027  0.29639  0.89903  Biso   1.000  H
  H60      1.0000 0.75681  0.19742  0.90698  Biso   1.000  H
  C55      1.0000 0.99834  0.49872  0.98898  Biso   1.000  C
  O4       1.0000 0.75436  0.47229  0.90516  Biso   1.000  O
  C56      1.0000 0.87734  0.37377  0.20022  Biso   1.000  C
  N8       1.0000 0.92198  0.21576  0.17455  Biso   1.000  N
  C57      1.0000 0.91959  0.22150  0.29315  Biso   1.000  C
  C58      1.0000 0.96161  0.15861  0.51090  Biso   1.000  C
  C59      1.0000 0.79638  0.06681  0.31643  Biso   1.000  C
  H61      1.0000 0.06383  0.48098  0.07367  Biso   1.000  H
  H62      1.0000 0.97403  0.56878  0.98688  Biso   1.000  H
  H63      1.0000 0.04113  0.48671  0.92920  Biso   1.000  H
  C60      1.0000 0.89364  0.31889  0.31106  Biso   1.000  C
  H64      1.0000 0.85684  0.44232  0.18652  Biso   1.000  H
  H65      1.0000 0.94100  0.16903  0.13805  Biso   1.000  H
  H66      1.0000 0.04801  0.19659  0.54644  Biso   1.000  H
  H67      1.0000 0.96970  0.09928  0.56177  Biso   1.000  H
  H68      1.0000 0.88465  0.19938  0.51080  Biso   1.000  H
  H69      1.0000 0.71899  0.10781  0.31470  Biso   1.000  H
  H70      1.0000 0.80384  0.00808  0.36806  Biso   1.000  H
  H71      1.0000 0.78024  0.04628  0.23078  Biso   1.000  H
  H72      1.0000 0.88774  0.34531  0.38454  Biso   1.000  H
