data_image0
_cell_length_a       17.507
_cell_length_b       38.196
_cell_length_c       23.972
_cell_angle_alpha    90
_cell_angle_beta     107.78
_cell_angle_gamma    90

_symmetry_space_group_name_H-M    "P 1"
_symmetry_int_tables_number       1

loop_
  _symmetry_equiv_pos_as_xyz
  'x, y, z'

loop_
  _atom_site_label
  _atom_site_occupancy
  _atom_site_fract_x
  _atom_site_fract_y
  _atom_site_fract_z
  _atom_site_thermal_displace_type
  _atom_site_B_iso_or_equiv
  _atom_site_type_symbol
  O1       1.0000 0.72579  0.51662  0.34485  Biso   1.000  O
  C1       1.0000 0.72778  0.53275  0.30179  Biso   1.000  C
  O2       1.0000 0.69848  0.52123  0.24813  Biso   1.000  O
  C2       1.0000 0.76319  0.56888  0.30521  Biso   1.000  C
  C3       1.0000 0.65790  0.48680  0.24081  Biso   1.000  C
  C4       1.0000 0.76889  0.58870  0.25750  Biso   1.000  C
  C5       1.0000 0.78748  0.58299  0.36111  Biso   1.000  C
  C6       1.0000 0.61420  0.48450  0.17961  Biso   1.000  C
  H1       1.0000 0.69691  0.46801  0.25229  Biso   1.000  H
  H2       1.0000 0.62177  0.48539  0.26438  Biso   1.000  H
  C7       1.0000 0.80068  0.62271  0.26959  Biso   1.000  C
  S1       1.0000 0.73635  0.57197  0.18500  Biso   1.000  S
  H3       1.0000 0.78451  0.56920  0.39239  Biso   1.000  H
  C8       1.0000 0.81637  0.61726  0.37228  Biso   1.000  C
  H4       1.0000 0.58632  0.46259  0.17181  Biso   1.000  H
  H5       1.0000 0.65090  0.48610  0.15701  Biso   1.000  H
  H6       1.0000 0.57629  0.50340  0.16901  Biso   1.000  H
  C9       1.0000 0.82357  0.63729  0.32488  Biso   1.000  C
  H7       1.0000 0.80661  0.63601  0.23871  Biso   1.000  H
  C10      1.0000 0.75682  0.60648  0.14189  Biso   1.000  C
  S2       1.0000 0.83153  0.63182  0.44557  Biso   1.000  S
  C11      1.0000 0.85160  0.67457  0.32922  Biso   1.000  C
  C12      1.0000 0.69187  0.62279  0.10089  Biso   1.000  C
  N1       1.0000 0.83291  0.61423  0.14750  Biso   1.000  N
  C13      1.0000 0.93158  0.64666  0.47120  Biso   1.000  C
  O3       1.0000 0.82282  0.69371  0.36339  Biso   1.000  O
  O4       1.0000 0.89312  0.68570  0.30065  Biso   1.000  O
  C14      1.0000 0.70970  0.64776  0.06540  Biso   1.000  C
  C15      1.0000 0.60311  0.61849  0.08670  Biso   1.000  C
  N2       1.0000 0.84950  0.63946  0.11342  Biso   1.000  N
  C16      1.0000 0.96297  0.65276  0.53178  Biso   1.000  C
  N3       1.0000 0.97309  0.65206  0.43413  Biso   1.000  N
  C17      1.0000 0.84663  0.73070  0.37061  Biso   1.000  C
  C18      1.0000 0.79031  0.65567  0.07390  Biso   1.000  C
  C19      1.0000 0.63370  0.66371  0.02339  Biso   1.000  C
  C20      1.0000 0.56900  0.64949  0.04788  Biso   1.000  C
  H8       1.0000 0.58703  0.61899  0.12200  Biso   1.000  H
  H9       1.0000 0.58540  0.59661  0.06619  Biso   1.000  H
  C21      1.0000 0.92747  0.64810  0.58089  Biso   1.000  C
  C22      1.0000 0.04180  0.66248  0.55242  Biso   1.000  C
  N4       1.0000 0.05071  0.66248  0.45516  Biso   1.000  N
  H10      1.0000 0.86217  0.73801  0.33688  Biso   1.000  H
  H11      1.0000 0.80037  0.74461  0.37118  Biso   1.000  H
  C23      1.0000 0.90621  0.73759  0.41858  Biso   1.000  C
  S3       1.0000 0.81246  0.68929  0.03071  Biso   1.000  S
  H12      1.0000 0.63542  0.68910  0.02462  Biso   1.000  H
  H13      1.0000 0.62538  0.65591  0.98340  Biso   1.000  H
  H14      1.0000 0.55248  0.66750  0.07040  Biso   1.000  H
  H15      1.0000 0.52242  0.64229  0.01612  Biso   1.000  H
  H16      1.0000 0.88862  0.66630  0.58032  Biso   1.000  H
  H17      1.0000 0.90180  0.62541  0.57879  Biso   1.000  H
  C24      1.0000 0.99901  0.65091  0.63451  Biso   1.000  C
  C25      1.0000 0.08372  0.66758  0.51251  Biso   1.000  C
  C26      1.0000 0.06919  0.66512  0.61861  Biso   1.000  C
  H18      1.0000 0.91832  0.76210  0.42020  Biso   1.000  H
  H19      1.0000 0.95268  0.72440  0.41810  Biso   1.000  H
  H20      1.0000 0.89082  0.73110  0.45240  Biso   1.000  H
  C27      1.0000 0.91819  0.69369  0.06212  Biso   1.000  C
  H21      1.0000 0.98663  0.66620  0.66281  Biso   1.000  H
  H22      1.0000 0.01211  0.62800  0.65230  Biso   1.000  H
  S4       1.0000 0.18866  0.67523  0.54054  Biso   1.000  S
  H23      1.0000 0.11689  0.65119  0.63569  Biso   1.000  H
  H24      1.0000 0.08008  0.68921  0.63140  Biso   1.000  H
  C28      1.0000 0.96830  0.67743  0.03579  Biso   1.000  C
  C29      1.0000 0.95228  0.71662  0.10978  Biso   1.000  C
  C30      1.0000 0.20871  0.70633  0.49179  Biso   1.000  C
  H25      1.0000 0.94591  0.66250  0.00451  Biso   1.000  H
  C31      1.0000 0.05069  0.68232  0.05388  Biso   1.000  C
  C32      1.0000 0.90781  0.73615  0.14290  Biso   1.000  C
  C33      1.0000 0.03462  0.72167  0.12774  Biso   1.000  C
  C34      1.0000 0.28970  0.70952  0.48889  Biso   1.000  C
  C35      1.0000 0.15241  0.72830  0.45823  Biso   1.000  C
  C36      1.0000 0.08552  0.70505  0.10194  Biso   1.000  C
  C37      1.0000 0.09942  0.66462  0.02138  Biso   1.000  C
  O5       1.0000 0.85019  0.71884  0.15398  Biso   1.000  O
  O6       1.0000 0.92281  0.76568  0.15911  Biso   1.000  O
  H26      1.0000 0.05671  0.73699  0.15858  Biso   1.000  H
  C38      1.0000 0.30371  0.73251  0.44890  Biso   1.000  C
  C39      1.0000 0.35748  0.69049  0.53038  Biso   1.000  C
  C40      1.0000 0.16633  0.75144  0.41801  Biso   1.000  C
  H27      1.0000 0.10130  0.72780  0.46261  Biso   1.000  H
  S5       1.0000 0.19023  0.71248  0.12367  Biso   1.000  S
  O7       1.0000 0.05709  0.64541  0.97669  Biso   1.000  O
  O8       1.0000 0.17161  0.66866  0.03325  Biso   1.000  O
  C41      1.0000 0.80003  0.73699  0.18320  Biso   1.000  C
  H28      1.0000 0.35559  0.73440  0.44662  Biso   1.000  H
  C42      1.0000 0.24392  0.75296  0.41179  Biso   1.000  C
  O9       1.0000 0.42720  0.69897  0.52306  Biso   1.000  O
  O10      1.0000 0.35039  0.66970  0.56696  Biso   1.000  O
  C43      1.0000 0.10043  0.77430  0.38472  Biso   1.000  C
  C44      1.0000 0.21031  0.73479  0.19166  Biso   1.000  C
  C45      1.0000 0.09930  0.63093  0.93832  Biso   1.000  C
  H29      1.0000 0.80168  0.72471  0.21900  Biso   1.000  H
  H30      1.0000 0.82023  0.76050  0.19341  Biso   1.000  H
  C46      1.0000 0.72600  0.73830  0.14851  Biso   1.000  C
  S6       1.0000 0.27363  0.78438  0.36768  Biso   1.000  S
  C47      1.0000 0.49897  0.68266  0.56398  Biso   1.000  C
  O11      1.0000 0.09059  0.77595  0.33018  Biso   1.000  O
  O12      1.0000 0.05231  0.78650  0.40461  Biso   1.000  O
  C48      1.0000 0.25157  0.76639  0.19989  Biso   1.000  C
  N5       1.0000 0.19221  0.71879  0.23551  Biso   1.000  N
  H31      1.0000 0.13727  0.61321  0.95891  Biso   1.000  H
  H32      1.0000 0.12872  0.64920  0.92561  Biso   1.000  H
  C49      1.0000 0.03838  0.61501  0.88632  Biso   1.000  C
  H33      1.0000 0.72579  0.73730  0.10851  Biso   1.000  H
  H34      1.0000 0.70150  0.75971  0.15521  Biso   1.000  H
  H35      1.0000 0.69632  0.71879  0.15661  Biso   1.000  H
  C50      1.0000 0.24931  0.76450  0.29789  Biso   1.000  C
  H36      1.0000 0.49581  0.65740  0.56122  Biso   1.000  H
  H37      1.0000 0.50469  0.68950  0.60402  Biso   1.000  H
  C51      1.0000 0.56893  0.69620  0.54510  Biso   1.000  C
  C52      1.0000 0.02872  0.80100  0.29408  Biso   1.000  C
  C53      1.0000 0.26961  0.78202  0.25369  Biso   1.000  C
  C54      1.0000 0.28291  0.78796  0.15858  Biso   1.000  C
  N6       1.0000 0.21170  0.73324  0.28896  Biso   1.000  N
  H38      1.0000 0.01069  0.59650  0.89920  Biso   1.000  H
  H39      1.0000 0.06497  0.60569  0.85990  Biso   1.000  H
  H40      1.0000 0.00072  0.63261  0.86661  Biso   1.000  H
  H41      1.0000 0.61631  0.68300  0.56429  Biso   1.000  H
  H42      1.0000 0.57801  0.72049  0.55561  Biso   1.000  H
  H43      1.0000 0.55669  0.69379  0.50340  Biso   1.000  H
  H44      1.0000 0.97999  0.78841  0.27371  Biso   1.000  H
  H45      1.0000 0.01581  0.81849  0.31910  Biso   1.000  H
  C55      1.0000 0.06412  0.81870  0.24940  Biso   1.000  C
  C56      1.0000 0.31369  0.81647  0.25448  Biso   1.000  C
  C57      1.0000 0.34211  0.81307  0.20060  Biso   1.000  C
  H46      1.0000 0.23988  0.80071  0.13081  Biso   1.000  H
  H47      1.0000 0.30988  0.77341  0.13729  Biso   1.000  H
  H48      1.0000 0.09909  0.83739  0.26828  Biso   1.000  H
  H49      1.0000 0.02132  0.82789  0.21751  Biso   1.000  H
  H50      1.0000 0.09378  0.80181  0.23481  Biso   1.000  H
  H51      1.0000 0.35871  0.81880  0.29001  Biso   1.000  H
  H52      1.0000 0.27810  0.83640  0.25119  Biso   1.000  H
  H53      1.0000 0.39622  0.80370  0.21142  Biso   1.000  H
  H54      1.0000 0.34188  0.83569  0.18228  Biso   1.000  H
  O13      1.0000 0.27422  0.48338  0.65515  Biso   1.000  O
  C58      1.0000 0.27218  0.46725  0.69821  Biso   1.000  C
  C59      1.0000 0.23682  0.43112  0.69479  Biso   1.000  C
  O14      1.0000 0.30147  0.47877  0.75187  Biso   1.000  O
  C60      1.0000 0.21247  0.41701  0.63889  Biso   1.000  C
  C61      1.0000 0.23112  0.41130  0.74250  Biso   1.000  C
  C62      1.0000 0.34211  0.51320  0.75919  Biso   1.000  C
  C63      1.0000 0.18358  0.38274  0.62772  Biso   1.000  C
  H55      1.0000 0.21550  0.43080  0.60761  Biso   1.000  H
  C64      1.0000 0.19933  0.37729  0.73041  Biso   1.000  C
  S7       1.0000 0.26366  0.42803  0.81500  Biso   1.000  S
  H56      1.0000 0.30310  0.53199  0.74771  Biso   1.000  H
  H57      1.0000 0.37818  0.51461  0.73562  Biso   1.000  H
  C65      1.0000 0.38581  0.51550  0.82039  Biso   1.000  C
  S8       1.0000 0.16848  0.36818  0.55443  Biso   1.000  S
  C66      1.0000 0.17639  0.36271  0.67512  Biso   1.000  C
  H58      1.0000 0.19340  0.36399  0.76129  Biso   1.000  H
  C67      1.0000 0.24319  0.39352  0.85811  Biso   1.000  C
  H59      1.0000 0.41369  0.53741  0.82819  Biso   1.000  H
  H60      1.0000 0.34911  0.51390  0.84299  Biso   1.000  H
  H61      1.0000 0.42371  0.49660  0.83099  Biso   1.000  H
  C68      1.0000 0.06843  0.35334  0.52880  Biso   1.000  C
  C69      1.0000 0.14841  0.32543  0.67078  Biso   1.000  C
  C70      1.0000 0.30808  0.37721  0.89911  Biso   1.000  C
  N7       1.0000 0.16710  0.38577  0.85250  Biso   1.000  N
  C71      1.0000 0.03698  0.34724  0.46822  Biso   1.000  C
  N8       1.0000 0.02692  0.34794  0.56586  Biso   1.000  N
  O15      1.0000 0.17719  0.30629  0.63661  Biso   1.000  O
  O16      1.0000 0.10689  0.31430  0.69935  Biso   1.000  O
  C72      1.0000 0.29031  0.35224  0.93459  Biso   1.000  C
  C73      1.0000 0.39690  0.38151  0.91330  Biso   1.000  C
  N9       1.0000 0.15051  0.36054  0.88658  Biso   1.000  N
  C74      1.0000 0.07248  0.35190  0.41911  Biso   1.000  C
  C75      1.0000 0.95821  0.33752  0.44758  Biso   1.000  C
  N10      1.0000 0.94929  0.33752  0.54484  Biso   1.000  N
  C76      1.0000 0.15338  0.26930  0.62939  Biso   1.000  C
  C77      1.0000 0.20970  0.34433  0.92610  Biso   1.000  C
  C78      1.0000 0.36631  0.33629  0.97661  Biso   1.000  C
  C79      1.0000 0.43101  0.35051  0.95212  Biso   1.000  C
  H62      1.0000 0.41298  0.38101  0.87800  Biso   1.000  H
  H63      1.0000 0.41461  0.40339  0.93381  Biso   1.000  H
  C80      1.0000 0.00100  0.34909  0.36549  Biso   1.000  C
  H64      1.0000 0.11139  0.33370  0.41968  Biso   1.000  H
  H65      1.0000 0.09821  0.37459  0.42121  Biso   1.000  H
  C81      1.0000 0.93082  0.33488  0.38139  Biso   1.000  C
  C82      1.0000 0.91629  0.33242  0.48749  Biso   1.000  C
  H66      1.0000 0.13778  0.26199  0.66312  Biso   1.000  H
  H67      1.0000 0.19958  0.25539  0.62882  Biso   1.000  H
  C83      1.0000 0.09379  0.26241  0.58142  Biso   1.000  C
  S9       1.0000 0.18749  0.31071  0.96929  Biso   1.000  S
  H68      1.0000 0.36459  0.31090  0.97538  Biso   1.000  H
  H69      1.0000 0.37463  0.34409  0.01660  Biso   1.000  H
  H70      1.0000 0.44753  0.33250  0.92960  Biso   1.000  H
  H71      1.0000 0.47759  0.35771  0.98388  Biso   1.000  H
  H72      1.0000 0.01338  0.33380  0.33719  Biso   1.000  H
  H73      1.0000 0.98790  0.37200  0.34770  Biso   1.000  H
  H74      1.0000 0.88312  0.34881  0.36431  Biso   1.000  H
  H75      1.0000 0.91987  0.31079  0.36860  Biso   1.000  H
  S10      1.0000 0.81135  0.32477  0.45946  Biso   1.000  S
  H76      1.0000 0.08169  0.23790  0.57980  Biso   1.000  H
  H77      1.0000 0.04727  0.27560  0.58190  Biso   1.000  H
  H78      1.0000 0.10918  0.26890  0.54760  Biso   1.000  H
  C84      1.0000 0.08176  0.30631  0.93788  Biso   1.000  C
  C85      1.0000 0.79130  0.29367  0.50821  Biso   1.000  C
  C86      1.0000 0.03171  0.32257  0.96421  Biso   1.000  C
  C87      1.0000 0.04773  0.28338  0.89022  Biso   1.000  C
  C88      1.0000 0.71031  0.29048  0.51111  Biso   1.000  C
  C89      1.0000 0.84760  0.27170  0.54177  Biso   1.000  C
  C90      1.0000 0.94932  0.31768  0.94612  Biso   1.000  C
  H79      1.0000 0.05410  0.33750  0.99549  Biso   1.000  H
  C91      1.0000 0.96539  0.27833  0.87226  Biso   1.000  C
  C92      1.0000 0.09220  0.26385  0.85710  Biso   1.000  C
  C93      1.0000 0.69630  0.26749  0.55110  Biso   1.000  C
  C94      1.0000 0.64253  0.30951  0.46962  Biso   1.000  C
  C95      1.0000 0.83368  0.24856  0.58199  Biso   1.000  C
  H80      1.0000 0.89871  0.27220  0.53739  Biso   1.000  H
  C96      1.0000 0.91449  0.29495  0.89806  Biso   1.000  C
  C97      1.0000 0.90059  0.33538  0.97862  Biso   1.000  C
  H81      1.0000 0.94330  0.26301  0.84142  Biso   1.000  H
  O17      1.0000 0.14982  0.28116  0.84602  Biso   1.000  O
  O18      1.0000 0.07719  0.23432  0.84089  Biso   1.000  O
  H82      1.0000 0.64442  0.26560  0.55338  Biso   1.000  H
  C98      1.0000 0.75608  0.24704  0.58821  Biso   1.000  C
  O19      1.0000 0.57281  0.30103  0.47694  Biso   1.000  O
  O20      1.0000 0.64956  0.33030  0.43304  Biso   1.000  O
  C99      1.0000 0.89958  0.22570  0.61528  Biso   1.000  C
  S11      1.0000 0.80978  0.28752  0.87633  Biso   1.000  S
  O21      1.0000 0.82840  0.33134  0.96675  Biso   1.000  O
  O22      1.0000 0.94292  0.35459  0.02331  Biso   1.000  O
  C100     1.0000 0.19998  0.26301  0.81680  Biso   1.000  C
  S12      1.0000 0.72638  0.21562  0.63232  Biso   1.000  S
  C101     1.0000 0.50098  0.31734  0.43602  Biso   1.000  C
  O23      1.0000 0.90942  0.22405  0.66982  Biso   1.000  O
  O24      1.0000 0.94770  0.21350  0.59539  Biso   1.000  O
  C102     1.0000 0.78969  0.26521  0.80834  Biso   1.000  C
  C103     1.0000 0.90071  0.36907  0.06168  Biso   1.000  C
  H83      1.0000 0.19833  0.27529  0.78100  Biso   1.000  H
  H84      1.0000 0.17978  0.23950  0.80659  Biso   1.000  H
  C104     1.0000 0.27401  0.26170  0.85149  Biso   1.000  C
  C105     1.0000 0.75070  0.23550  0.70211  Biso   1.000  C
  H85      1.0000 0.50419  0.34260  0.43878  Biso   1.000  H
  H86      1.0000 0.49527  0.31050  0.39598  Biso   1.000  H
  C106     1.0000 0.43108  0.30380  0.45490  Biso   1.000  C
  C107     1.0000 0.97129  0.19900  0.70592  Biso   1.000  C
  C108     1.0000 0.74838  0.23361  0.80011  Biso   1.000  C
  N11      1.0000 0.80780  0.28121  0.76449  Biso   1.000  N
  H87      1.0000 0.86268  0.38679  0.04109  Biso   1.000  H
  H88      1.0000 0.87129  0.35080  0.07439  Biso   1.000  H
  C109     1.0000 0.96158  0.38499  0.11368  Biso   1.000  C
  H89      1.0000 0.27417  0.26270  0.89149  Biso   1.000  H
  H90      1.0000 0.29851  0.24029  0.84479  Biso   1.000  H
  H91      1.0000 0.30369  0.28121  0.84339  Biso   1.000  H
  C110     1.0000 0.73040  0.21798  0.74631  Biso   1.000  C
  N12      1.0000 0.78831  0.26676  0.71104  Biso   1.000  N
  H92      1.0000 0.38370  0.31700  0.43571  Biso   1.000  H
  H93      1.0000 0.42200  0.27951  0.44439  Biso   1.000  H
  H94      1.0000 0.44332  0.30621  0.49660  Biso   1.000  H
  H95      1.0000 0.02002  0.21159  0.72629  Biso   1.000  H
  H96      1.0000 0.98420  0.18151  0.68090  Biso   1.000  H
  C111     1.0000 0.93588  0.18130  0.75060  Biso   1.000  C
  C112     1.0000 0.71710  0.21204  0.84142  Biso   1.000  C
  H97      1.0000 0.98932  0.40350  0.10080  Biso   1.000  H
  H98      1.0000 0.93498  0.39431  0.14010  Biso   1.000  H
  H99      1.0000 0.99929  0.36739  0.13339  Biso   1.000  H
  C113     1.0000 0.68632  0.18353  0.74552  Biso   1.000  C
  H100     1.0000 0.90091  0.16261  0.73172  Biso   1.000  H
  H101     1.0000 0.97869  0.17211  0.78249  Biso   1.000  H
  H102     1.0000 0.90617  0.19819  0.76519  Biso   1.000  H
  C114     1.0000 0.65789  0.18693  0.79940  Biso   1.000  C
  H103     1.0000 0.76007  0.19929  0.86919  Biso   1.000  H
  H104     1.0000 0.69008  0.22659  0.86271  Biso   1.000  H
  H105     1.0000 0.64130  0.18120  0.70999  Biso   1.000  H
  H106     1.0000 0.72190  0.16360  0.74881  Biso   1.000  H
  H107     1.0000 0.60379  0.19630  0.78858  Biso   1.000  H
  H108     1.0000 0.65813  0.16431  0.81772  Biso   1.000  H
  C115     1.0000 0.43590  0.31870  0.25058  Biso   1.000  C
  C116     1.0000 0.47131  0.30100  0.20590  Biso   1.000  C
  H109     1.0000 0.40087  0.33739  0.23170  Biso   1.000  H
  H110     1.0000 0.47873  0.32789  0.28252  Biso   1.000  H
  H111     1.0000 0.40620  0.30181  0.26521  Biso   1.000  H
  O25      1.0000 0.40938  0.27595  0.16980  Biso   1.000  O
  H112     1.0000 0.48421  0.31849  0.18088  Biso   1.000  H
  H113     1.0000 0.52000  0.28841  0.22631  Biso   1.000  H
  C117     1.0000 0.39961  0.27430  0.11530  Biso   1.000  C
  C118     1.0000 0.33371  0.25144  0.08201  Biso   1.000  C
  O26      1.0000 0.44773  0.28650  0.09541  Biso   1.000  O
  C119     1.0000 0.25610  0.25296  0.08819  Biso   1.000  C
  C120     1.0000 0.34761  0.22830  0.04175  Biso   1.000  C
  S13      1.0000 0.22634  0.28438  0.13230  Biso   1.000  S
  C121     1.0000 0.19632  0.23251  0.05108  Biso   1.000  C
  C122     1.0000 0.29133  0.20633  0.00824  Biso   1.000  C
  H114     1.0000 0.39869  0.22780  0.03741  Biso   1.000  H
  C123     1.0000 0.25072  0.26450  0.20209  Biso   1.000  C
  C124     1.0000 0.21027  0.20952  0.01108  Biso   1.000  C
  H115     1.0000 0.14439  0.23440  0.05340  Biso   1.000  H
  S14      1.0000 0.31138  0.17523  0.95948  Biso   1.000  S
  C125     1.0000 0.23041  0.28202  0.24629  Biso   1.000  C
  N13      1.0000 0.28827  0.23324  0.21102  Biso   1.000  N
  C126     1.0000 0.14248  0.19049  0.96960  Biso   1.000  C
  C127     1.0000 0.41633  0.16758  0.98751  Biso   1.000  C
  C128     1.0000 0.24840  0.26639  0.30008  Biso   1.000  C
  C129     1.0000 0.18627  0.31647  0.24550  Biso   1.000  C
  N14      1.0000 0.30783  0.21879  0.26451  Biso   1.000  N
  O27      1.0000 0.07277  0.19897  0.97691  Biso   1.000  O
  O28      1.0000 0.14960  0.16970  0.93306  Biso   1.000  O
  N15      1.0000 0.44933  0.16248  0.04486  Biso   1.000  N
  C130     1.0000 0.45819  0.16248  0.94761  Biso   1.000  C
  C131     1.0000 0.28971  0.23479  0.30832  Biso   1.000  C
  C132     1.0000 0.21712  0.28796  0.34139  Biso   1.000  C
  H116     1.0000 0.14133  0.31880  0.21001  Biso   1.000  H
  H117     1.0000 0.22192  0.33640  0.24878  Biso   1.000  H
  C133     1.0000 0.15791  0.31307  0.29938  Biso   1.000  C
  C134     1.0000 0.00100  0.18266  0.93600  Biso   1.000  C
  N16      1.0000 0.52689  0.15206  0.06589  Biso   1.000  N
  C135     1.0000 0.53700  0.15276  0.96820  Biso   1.000  C
  C136     1.0000 0.43079  0.16512  0.88141  Biso   1.000  C
  S15      1.0000 0.30982  0.21248  0.37635  Biso   1.000  S
  H118     1.0000 0.26011  0.30071  0.36921  Biso   1.000  H
  H119     1.0000 0.19009  0.27341  0.36268  Biso   1.000  H
  H120     1.0000 0.10382  0.30370  0.28861  Biso   1.000  H
  H121     1.0000 0.15808  0.33569  0.31769  Biso   1.000  H
  H122     1.0000 0.99530  0.18950  0.89600  Biso   1.000  H
  C137     1.0000 0.93111  0.19620  0.95492  Biso   1.000  C
  H123     1.0000 0.00417  0.15740  0.93880  Biso   1.000  H
  C138     1.0000 0.56838  0.14666  0.02878  Biso   1.000  C
  C139     1.0000 0.57250  0.14810  0.91909  Biso   1.000  C
  C140     1.0000 0.50097  0.15091  0.86551  Biso   1.000  C
  H124     1.0000 0.38308  0.15119  0.86428  Biso   1.000  H
  H125     1.0000 0.41991  0.18921  0.86862  Biso   1.000  H
  C141     1.0000 0.41452  0.20505  0.39808  Biso   1.000  C
  H126     1.0000 0.88366  0.18300  0.93569  Biso   1.000  H
  H127     1.0000 0.92198  0.22049  0.94441  Biso   1.000  H
  H128     1.0000 0.94328  0.19379  0.99658  Biso   1.000  H
  S16      1.0000 0.66843  0.13182  0.05441  Biso   1.000  S
  H129     1.0000 0.61137  0.16630  0.91970  Biso   1.000  H
  H130     1.0000 0.59817  0.12541  0.92119  Biso   1.000  H
  H131     1.0000 0.51341  0.16620  0.83721  Biso   1.000  H
  H132     1.0000 0.48786  0.12800  0.84768  Biso   1.000  H
  C142     1.0000 0.44928  0.18232  0.44609  Biso   1.000  C
  C143     1.0000 0.46542  0.22167  0.37228  Biso   1.000  C
  C144     1.0000 0.68360  0.11726  0.12770  Biso   1.000  C
  C145     1.0000 0.53167  0.17743  0.46419  Biso   1.000  C
  C146     1.0000 0.40061  0.16462  0.47860  Biso   1.000  C
  C147     1.0000 0.54768  0.21662  0.39020  Biso   1.000  C
  H133     1.0000 0.44331  0.23699  0.34139  Biso   1.000  H
  C148     1.0000 0.71251  0.08299  0.13891  Biso   1.000  C
  C149     1.0000 0.67640  0.13729  0.17510  Biso   1.000  C
  H134     1.0000 0.55408  0.16250  0.49551  Biso   1.000  H
  C150     1.0000 0.58180  0.19369  0.43790  Biso   1.000  C
  O29      1.0000 0.44290  0.14541  0.52333  Biso   1.000  O
  O30      1.0000 0.32843  0.16866  0.46677  Biso   1.000  O
  C151     1.0000 0.59223  0.23615  0.35712  Biso   1.000  C
  C152     1.0000 0.73679  0.06888  0.19481  Biso   1.000  C
  H135     1.0000 0.71552  0.06920  0.10759  Biso   1.000  H
  C153     1.0000 0.69929  0.12271  0.23039  Biso   1.000  C
  C154     1.0000 0.64839  0.17457  0.17081  Biso   1.000  C
  S17      1.0000 0.68750  0.18929  0.46927  Biso   1.000  S
  C155     1.0000 0.40068  0.13093  0.56170  Biso   1.000  C
  O31      1.0000 0.64978  0.21884  0.34599  Biso   1.000  O
  O32      1.0000 0.57723  0.26568  0.34091  Biso   1.000  O
  C156     1.0000 0.73110  0.08870  0.24252  Biso   1.000  C
  C157     1.0000 0.77219  0.03275  0.19819  Biso   1.000  C
  H136     1.0000 0.69343  0.13601  0.26131  Biso   1.000  H
  O33      1.0000 0.67721  0.19371  0.13659  Biso   1.000  O
  O34      1.0000 0.60692  0.18570  0.19937  Biso   1.000  O
  C158     1.0000 0.70973  0.15567  0.42612  Biso   1.000  C
  H137     1.0000 0.36271  0.11321  0.54111  Biso   1.000  H
  H138     1.0000 0.37132  0.14920  0.57441  Biso   1.000  H
  C159     1.0000 0.46161  0.11501  0.61370  Biso   1.000  C
  C160     1.0000 0.70001  0.23699  0.31682  Biso   1.000  C
  S18      1.0000 0.76368  0.07197  0.31498  Biso   1.000  S
  O35      1.0000 0.80150  0.02123  0.25189  Biso   1.000  O
  O36      1.0000 0.77418  0.01662  0.15512  Biso   1.000  O
  C161     1.0000 0.65341  0.23070  0.12941  Biso   1.000  C
  C162     1.0000 0.79028  0.14776  0.43462  Biso   1.000  C
  N17      1.0000 0.65052  0.13946  0.38656  Biso   1.000  N
  H139     1.0000 0.48928  0.09650  0.60078  Biso   1.000  H
  H140     1.0000 0.43501  0.10569  0.64012  Biso   1.000  H
  H141     1.0000 0.49933  0.13261  0.63342  Biso   1.000  H
  H142     1.0000 0.69828  0.22471  0.28098  Biso   1.000  H
  H143     1.0000 0.67981  0.26050  0.30661  Biso   1.000  H
  C163     1.0000 0.77398  0.23830  0.35151  Biso   1.000  C
  C164     1.0000 0.74320  0.10648  0.35808  Biso   1.000  C
  C165     1.0000 0.84209  0.98680  0.25921  Biso   1.000  C
  H144     1.0000 0.63780  0.23801  0.16310  Biso   1.000  H
  H145     1.0000 0.69959  0.24461  0.12879  Biso   1.000  H
  C166     1.0000 0.59381  0.23759  0.08139  Biso   1.000  C
  C167     1.0000 0.80810  0.12279  0.39909  Biso   1.000  C
  C168     1.0000 0.86632  0.16371  0.47658  Biso   1.000  C
  N18      1.0000 0.66712  0.11423  0.35248  Biso   1.000  N
  H146     1.0000 0.77420  0.23730  0.39151  Biso   1.000  H
  H147     1.0000 0.79848  0.25971  0.34481  Biso   1.000  H
  H148     1.0000 0.80372  0.21879  0.34341  Biso   1.000  H
  H149     1.0000 0.80311  0.96801  0.24769  Biso   1.000  H
  H150     1.0000 0.87820  0.98539  0.23560  Biso   1.000  H
  C169     1.0000 0.88579  0.98450  0.32041  Biso   1.000  C
  H151     1.0000 0.58173  0.26210  0.07982  Biso   1.000  H
  H152     1.0000 0.54731  0.22440  0.08192  Biso   1.000  H
  H153     1.0000 0.60922  0.23110  0.04762  Biso   1.000  H
  C170     1.0000 0.89692  0.11849  0.41328  Biso   1.000  C
  H154     1.0000 0.86463  0.18910  0.47540  Biso   1.000  H
  H155     1.0000 0.87459  0.15591  0.51658  Biso   1.000  H
  C171     1.0000 0.93102  0.14949  0.45210  Biso   1.000  C
  H156     1.0000 0.92369  0.00340  0.33101  Biso   1.000  H
  H157     1.0000 0.91372  0.96259  0.32821  Biso   1.000  H
  H158     1.0000 0.84908  0.98610  0.34301  Biso   1.000  H
  H159     1.0000 0.91301  0.11899  0.37802  Biso   1.000  H
  H160     1.0000 0.91457  0.09661  0.43378  Biso   1.000  H
  H161     1.0000 0.94748  0.16750  0.42958  Biso   1.000  H
  H162     1.0000 0.97762  0.14229  0.48390  Biso   1.000  H
  C172     1.0000 0.56411  0.68130  0.74942  Biso   1.000  C
  C173     1.0000 0.52870  0.69900  0.79410  Biso   1.000  C
  H163     1.0000 0.59908  0.66261  0.76830  Biso   1.000  H
  H164     1.0000 0.52128  0.67211  0.71748  Biso   1.000  H
  H165     1.0000 0.59381  0.69819  0.73479  Biso   1.000  H
  H166     1.0000 0.51580  0.68151  0.81912  Biso   1.000  H
  H167     1.0000 0.48001  0.71159  0.77369  Biso   1.000  H
  O37      1.0000 0.59058  0.72405  0.83020  Biso   1.000  O
  C174     1.0000 0.60040  0.72570  0.88470  Biso   1.000  C
  C175     1.0000 0.66630  0.74856  0.91799  Biso   1.000  C
  O38      1.0000 0.55228  0.71350  0.90459  Biso   1.000  O
  C176     1.0000 0.74391  0.74704  0.91181  Biso   1.000  C
  C177     1.0000 0.65240  0.77170  0.95825  Biso   1.000  C
  C178     1.0000 0.80369  0.76749  0.94892  Biso   1.000  C
  S19      1.0000 0.77362  0.71562  0.86770  Biso   1.000  S
  C179     1.0000 0.70868  0.79367  0.99176  Biso   1.000  C
  H168     1.0000 0.60132  0.77220  0.96259  Biso   1.000  H
  C180     1.0000 0.78969  0.79048  0.98892  Biso   1.000  C
  H169     1.0000 0.85561  0.76560  0.94660  Biso   1.000  H
  C181     1.0000 0.74929  0.73550  0.79791  Biso   1.000  C
  S20      1.0000 0.68863  0.82477  0.04052  Biso   1.000  S
  C182     1.0000 0.85753  0.80951  0.03040  Biso   1.000  C
  C183     1.0000 0.76959  0.71798  0.75371  Biso   1.000  C
  N19      1.0000 0.71168  0.76676  0.78898  Biso   1.000  N
  C184     1.0000 0.58368  0.83242  0.01249  Biso   1.000  C
  O39      1.0000 0.92724  0.80103  0.02309  Biso   1.000  O
  O40      1.0000 0.85041  0.83030  0.06694  Biso   1.000  O
  C185     1.0000 0.75161  0.73361  0.69992  Biso   1.000  C
  C186     1.0000 0.81368  0.68353  0.75450  Biso   1.000  C
  N20      1.0000 0.69217  0.78121  0.73549  Biso   1.000  N
  N21      1.0000 0.55068  0.83752  0.95514  Biso   1.000  N
  C187     1.0000 0.54182  0.83752  0.05239  Biso   1.000  C
  C188     1.0000 0.99901  0.81734  0.06400  Biso   1.000  C
  C189     1.0000 0.71030  0.76521  0.69168  Biso   1.000  C
  C190     1.0000 0.78289  0.71204  0.65861  Biso   1.000  C
  H170     1.0000 0.85867  0.68120  0.78999  Biso   1.000  H
  H171     1.0000 0.77809  0.66360  0.75122  Biso   1.000  H
  C191     1.0000 0.84210  0.68693  0.70062  Biso   1.000  C
  N22      1.0000 0.47312  0.84794  0.93411  Biso   1.000  N
  C192     1.0000 0.46301  0.84724  0.03180  Biso   1.000  C
  C193     1.0000 0.56921  0.83488  0.11859  Biso   1.000  C
  H172     1.0000 0.99578  0.84260  0.06120  Biso   1.000  H
  H173     1.0000 0.00471  0.81050  0.10400  Biso   1.000  H
  C194     1.0000 0.06889  0.80380  0.04508  Biso   1.000  C
  S21      1.0000 0.69019  0.78752  0.62365  Biso   1.000  S
  H174     1.0000 0.73990  0.69929  0.63079  Biso   1.000  H
  H175     1.0000 0.80992  0.72659  0.63732  Biso   1.000  H
  H176     1.0000 0.89619  0.69630  0.71139  Biso   1.000  H
  H177     1.0000 0.84193  0.66431  0.68231  Biso   1.000  H
  C195     1.0000 0.43163  0.85334  0.97122  Biso   1.000  C
  C196     1.0000 0.42751  0.85190  0.08091  Biso   1.000  C
  C197     1.0000 0.49898  0.84909  0.13449  Biso   1.000  C
  H178     1.0000 0.61693  0.84881  0.13572  Biso   1.000  H
  H179     1.0000 0.58010  0.81079  0.13138  Biso   1.000  H
  H180     1.0000 0.11629  0.81700  0.06431  Biso   1.000  H
  H181     1.0000 0.07803  0.77951  0.05559  Biso   1.000  H
  H182     1.0000 0.05673  0.80621  0.00342  Biso   1.000  H
  C198     1.0000 0.58549  0.79495  0.60192  Biso   1.000  C
  S22      1.0000 0.33157  0.86818  0.94559  Biso   1.000  S
  H183     1.0000 0.38859  0.83370  0.08030  Biso   1.000  H
  H184     1.0000 0.40179  0.87459  0.07881  Biso   1.000  H
  H185     1.0000 0.48659  0.83380  0.16279  Biso   1.000  H
  H186     1.0000 0.51209  0.87200  0.15232  Biso   1.000  H
  C199     1.0000 0.55068  0.81768  0.55391  Biso   1.000  C
  C200     1.0000 0.53459  0.77833  0.62772  Biso   1.000  C
  C201     1.0000 0.31641  0.88274  0.87230  Biso   1.000  C
  C202     1.0000 0.46828  0.82257  0.53581  Biso   1.000  C
  C203     1.0000 0.59940  0.83538  0.52140  Biso   1.000  C
  C204     1.0000 0.45233  0.78338  0.60980  Biso   1.000  C
  H187     1.0000 0.55670  0.76301  0.65861  Biso   1.000  H
  C205     1.0000 0.28750  0.91701  0.86109  Biso   1.000  C
  C206     1.0000 0.32361  0.86271  0.82490  Biso   1.000  C
  H188     1.0000 0.44588  0.83750  0.50449  Biso   1.000  H
  C207     1.0000 0.41821  0.80631  0.56210  Biso   1.000  C
  O41      1.0000 0.55711  0.85459  0.47667  Biso   1.000  O
  O42      1.0000 0.67158  0.83134  0.53323  Biso   1.000  O
  C208     1.0000 0.40778  0.76385  0.64288  Biso   1.000  C
  C209     1.0000 0.26321  0.93112  0.80519  Biso   1.000  C
  H189     1.0000 0.28449  0.93080  0.89241  Biso   1.000  H
  C210     1.0000 0.30072  0.87729  0.76961  Biso   1.000  C
  C211     1.0000 0.35162  0.82543  0.82919  Biso   1.000  C
  S23      1.0000 0.31251  0.81071  0.53073  Biso   1.000  S
  C212     1.0000 0.59933  0.86907  0.43830  Biso   1.000  C
  O43      1.0000 0.35023  0.78116  0.65401  Biso   1.000  O
  O44      1.0000 0.42278  0.73432  0.65909  Biso   1.000  O
  C213     1.0000 0.26891  0.91130  0.75748  Biso   1.000  C
  C214     1.0000 0.22782  0.96725  0.80181  Biso   1.000  C
  H190     1.0000 0.30658  0.86399  0.73869  Biso   1.000  H
  O45      1.0000 0.32280  0.80629  0.86341  Biso   1.000  O
  O46      1.0000 0.39309  0.81430  0.80063  Biso   1.000  O
  C215     1.0000 0.29028  0.84433  0.57388  Biso   1.000  C
  H191     1.0000 0.63729  0.88679  0.45889  Biso   1.000  H
  H192     1.0000 0.62869  0.85080  0.42559  Biso   1.000  H
  C216     1.0000 0.53840  0.88499  0.38630  Biso   1.000  C
  C217     1.0000 0.29999  0.76301  0.68318  Biso   1.000  C
  S24      1.0000 0.23633  0.92803  0.68502  Biso   1.000  S
  O47      1.0000 0.19851  0.97877  0.74811  Biso   1.000  O
  O48      1.0000 0.22577  0.98338  0.84488  Biso   1.000  O
  C218     1.0000 0.34660  0.76930  0.87059  Biso   1.000  C
  C219     1.0000 0.20967  0.85224  0.56538  Biso   1.000  C
  N23      1.0000 0.34949  0.86054  0.61344  Biso   1.000  N
  H193     1.0000 0.51073  0.90350  0.39922  Biso   1.000  H
  H194     1.0000 0.56500  0.89431  0.35988  Biso   1.000  H
  H195     1.0000 0.50068  0.86739  0.36658  Biso   1.000  H
  H196     1.0000 0.30173  0.77529  0.71902  Biso   1.000  H
  H197     1.0000 0.32020  0.73950  0.69339  Biso   1.000  H
  C220     1.0000 0.22597  0.76170  0.64849  Biso   1.000  C
  C221     1.0000 0.25681  0.89352  0.64192  Biso   1.000  C
  C222     1.0000 0.15792  0.01320  0.74079  Biso   1.000  C
  H198     1.0000 0.36221  0.76199  0.83690  Biso   1.000  H
  H199     1.0000 0.30041  0.75539  0.87121  Biso   1.000  H
  C223     1.0000 0.40620  0.76241  0.91861  Biso   1.000  C
  C224     1.0000 0.19191  0.87721  0.60091  Biso   1.000  C
  C225     1.0000 0.13369  0.83629  0.52342  Biso   1.000  C
  N24      1.0000 0.33289  0.88577  0.64752  Biso   1.000  N
  H200     1.0000 0.22581  0.76270  0.60849  Biso   1.000  H
  H201     1.0000 0.20147  0.74029  0.65519  Biso   1.000  H
  H202     1.0000 0.19628  0.78121  0.65659  Biso   1.000  H
  H203     1.0000 0.19689  0.03199  0.75231  Biso   1.000  H
  H204     1.0000 0.12181  0.01461  0.76440  Biso   1.000  H
  C226     1.0000 0.11422  0.01550  0.67959  Biso   1.000  C
  H205     1.0000 0.41828  0.73790  0.92018  Biso   1.000  H
  H206     1.0000 0.45270  0.77560  0.91808  Biso   1.000  H
  H207     1.0000 0.39079  0.76890  0.95238  Biso   1.000  H
  C227     1.0000 0.10309  0.88151  0.58672  Biso   1.000  C
  H208     1.0000 0.13538  0.81090  0.52460  Biso   1.000  H
  H209     1.0000 0.12542  0.84409  0.48342  Biso   1.000  H
  C228     1.0000 0.06899  0.85051  0.54790  Biso   1.000  C
  H210     1.0000 0.07632  0.99660  0.66899  Biso   1.000  H
  H211     1.0000 0.08629  0.03741  0.67179  Biso   1.000  H
  H212     1.0000 0.15087  0.01390  0.65699  Biso   1.000  H
  H213     1.0000 0.08699  0.88101  0.62198  Biso   1.000  H
  H214     1.0000 0.08538  0.90339  0.56622  Biso   1.000  H
  H215     1.0000 0.05253  0.83250  0.57042  Biso   1.000  H
  H216     1.0000 0.02239  0.85771  0.51610  Biso   1.000  H
