data_image0
_cell_length_a       21.625
_cell_length_b       23.203
_cell_length_c       23.657
_cell_angle_alpha    98.68
_cell_angle_beta     110.08
_cell_angle_gamma    114.86

_symmetry_space_group_name_H-M    "P 1"
_symmetry_int_tables_number       1

loop_
  _symmetry_equiv_pos_as_xyz
  'x, y, z'

loop_
  _atom_site_label
  _atom_site_occupancy
  _atom_site_fract_x
  _atom_site_fract_y
  _atom_site_fract_z
  _atom_site_thermal_displace_type
  _atom_site_B_iso_or_equiv
  _atom_site_type_symbol
  O1       1.0000 0.58321  0.57971  0.61671  Biso   1.000  O
  C1       1.0000 0.59179  0.62519  0.66200  Biso   1.000  C
  O2       1.0000 0.61619  0.68701  0.66479  Biso   1.000  O
  C2       1.0000 0.57621  0.60733  0.71512  Biso   1.000  C
  C3       1.0000 0.63479  0.70359  0.61191  Biso   1.000  C
  C4       1.0000 0.50748  0.54358  0.69549  Biso   1.000  C
  C5       1.0000 0.61989  0.64478  0.77830  Biso   1.000  C
  H1       1.0000 0.59270  0.67169  0.57041  Biso   1.000  H
  H2       1.0000 0.68027  0.70238  0.61590  Biso   1.000  H
  C6       1.0000 0.64899  0.78109  0.62031  Biso   1.000  C
  C7       1.0000 0.48608  0.52118  0.74050  Biso   1.000  C
  H3       1.0000 0.47728  0.51729  0.65231  Biso   1.000  H
  S1       1.0000 0.70547  0.72903  0.81400  Biso   1.000  S
  C8       1.0000 0.59903  0.62071  0.82431  Biso   1.000  C
  H4       1.0000 0.70001  0.81080  0.62712  Biso   1.000  H
  H5       1.0000 0.64248  0.79721  0.65649  Biso   1.000  H
  H6       1.0000 0.61293  0.78022  0.58222  Biso   1.000  H
  S2       1.0000 0.39487  0.44839  0.71017  Biso   1.000  S
  C9       1.0000 0.53168  0.55849  0.80368  Biso   1.000  C
  C10      1.0000 0.75981  0.71760  0.77701  Biso   1.000  C
  H7       1.0000 0.62959  0.64591  0.86778  Biso   1.000  H
  C11      1.0000 0.41259  0.38249  0.71128  Biso   1.000  C
  C12      1.0000 0.51959  0.53279  0.85200  Biso   1.000  C
  N1       1.0000 0.74800  0.65588  0.75542  Biso   1.000  N
  C13      1.0000 0.81372  0.77361  0.77029  Biso   1.000  C
  N2       1.0000 0.48268  0.39078  0.73368  Biso   1.000  N
  C14      1.0000 0.34729  0.31709  0.68518  Biso   1.000  C
  O3       1.0000 0.56141  0.51972  0.88990  Biso   1.000  O
  O4       1.0000 0.47361  0.54329  0.86889  Biso   1.000  O
  N3       1.0000 0.78812  0.64540  0.72610  Biso   1.000  N
  C15      1.0000 0.83772  0.84900  0.79462  Biso   1.000  C
  C16      1.0000 0.85391  0.76401  0.74131  Biso   1.000  C
  N4       1.0000 0.49249  0.33680  0.72908  Biso   1.000  N
  C17      1.0000 0.35661  0.26251  0.68000  Biso   1.000  C
  C18      1.0000 0.26077  0.29430  0.65418  Biso   1.000  C
  C19      1.0000 0.45141  0.50820  0.91139  Biso   1.000  C
  C20      1.0000 0.83880  0.69792  0.71929  Biso   1.000  C
  H8       1.0000 0.79400  0.85520  0.77960  Biso   1.000  H
  H9       1.0000 0.86528  0.86849  0.84101  Biso   1.000  H
  C21      1.0000 0.88859  0.87802  0.76420  Biso   1.000  C
  C22      1.0000 0.90948  0.82861  0.73819  Biso   1.000  C
  C23      1.0000 0.43110  0.27471  0.70101  Biso   1.000  C
  C24      1.0000 0.28019  0.19671  0.64838  Biso   1.000  C
  C25      1.0000 0.22318  0.22169  0.64708  Biso   1.000  C
  H10      1.0000 0.24969  0.31951  0.68182  Biso   1.000  H
  H11      1.0000 0.24479  0.30011  0.61278  Biso   1.000  H
  H12      1.0000 0.48651  0.49338  0.93140  Biso   1.000  H
  H13      1.0000 0.39999  0.46921  0.88779  Biso   1.000  H
  C26      1.0000 0.45510  0.56140  0.96220  Biso   1.000  C
  S3       1.0000 0.88529  0.68007  0.67453  Biso   1.000  S
  H14      1.0000 0.93500  0.91922  0.79581  Biso   1.000  H
  H15      1.0000 0.86279  0.88980  0.72951  Biso   1.000  H
  H16      1.0000 0.90160  0.82440  0.69458  Biso   1.000  H
  H17      1.0000 0.96198  0.84179  0.76501  Biso   1.000  H
  S4       1.0000 0.44030  0.20257  0.69026  Biso   1.000  S
  H18      1.0000 0.27951  0.16722  0.67361  Biso   1.000  H
  H19      1.0000 0.26862  0.17291  0.60539  Biso   1.000  H
  H20      1.0000 0.17657  0.19570  0.60678  Biso   1.000  H
  H21      1.0000 0.20993  0.21581  0.68191  Biso   1.000  H
  H22      1.0000 0.41179  0.56690  0.94359  Biso   1.000  H
  H23      1.0000 0.50132  0.60390  0.97660  Biso   1.000  H
  H24      1.0000 0.45471  0.54671  0.99790  Biso   1.000  H
  C27      1.0000 0.90898  0.62337  0.70768  Biso   1.000  C
  C28      1.0000 0.53798  0.23370  0.74122  Biso   1.000  C
  C29      1.0000 0.94461  0.63939  0.77370  Biso   1.000  C
  C30      1.0000 0.89630  0.56488  0.66709  Biso   1.000  C
  C31      1.0000 0.57160  0.26190  0.80719  Biso   1.000  C
  C32      1.0000 0.57931  0.22189  0.71152  Biso   1.000  C
  H25      1.0000 0.95319  0.67831  0.80090  Biso   1.000  H
  C33      1.0000 0.96767  0.59748  0.79951  Biso   1.000  C
  C34      1.0000 0.91750  0.52220  0.69429  Biso   1.000  C
  C35      1.0000 0.87180  0.55088  0.59738  Biso   1.000  C
  C36      1.0000 0.64757  0.27887  0.84269  Biso   1.000  C
  C37      1.0000 0.53230  0.27658  0.84461  Biso   1.000  C
  H26      1.0000 0.55701  0.20380  0.66699  Biso   1.000  H
  C38      1.0000 0.65480  0.23730  0.74860  Biso   1.000  C
  C39      1.0000 0.95421  0.53819  0.76050  Biso   1.000  C
  C40      1.0000 0.00888  0.61830  0.87191  Biso   1.000  C
  H27      1.0000 0.90671  0.48211  0.66728  Biso   1.000  H
  O5       1.0000 0.88630  0.59391  0.57372  Biso   1.000  O
  O6       1.0000 0.83878  0.48681  0.56389  Biso   1.000  O
  C41      1.0000 0.68850  0.26670  0.81472  Biso   1.000  C
  H28      1.0000 0.67113  0.29941  0.88702  Biso   1.000  H
  O7       1.0000 0.47172  0.22982  0.83712  Biso   1.000  O
  O8       1.0000 0.56593  0.33583  0.88232  Biso   1.000  O
  C42      1.0000 0.69460  0.22048  0.71262  Biso   1.000  C
  S5       1.0000 0.99768  0.49132  0.78886  Biso   1.000  S
  O9       1.0000 0.98837  0.58578  0.90338  Biso   1.000  O
  O10      1.0000 0.07241  0.67981  0.89527  Biso   1.000  O
  C43      1.0000 0.81661  0.47039  0.49662  Biso   1.000  C
  S6       1.0000 0.78078  0.28452  0.86812  Biso   1.000  S
  C44      1.0000 0.44112  0.24211  0.88491  Biso   1.000  C
  C45      1.0000 0.52478  0.34870  0.91648  Biso   1.000  C
  O11      1.0000 0.75031  0.22030  0.73239  Biso   1.000  O
  O12      1.0000 0.63171  0.17203  0.64622  Biso   1.000  O
  C46      1.0000 0.93381  0.43140  0.80920  Biso   1.000  C
  C47      1.0000 0.11994  0.70883  0.96542  Biso   1.000  C
  H29      1.0000 0.85983  0.49761  0.48962  Biso   1.000  H
  H30      1.0000 0.77627  0.47968  0.47618  Biso   1.000  H
  C48      1.0000 0.79012  0.39990  0.46999  Biso   1.000  C
  C49      1.0000 0.84143  0.34232  0.84370  Biso   1.000  C
  H31      1.0000 0.48148  0.27749  0.92540  Biso   1.000  H
  H32      1.0000 0.41319  0.20111  0.89230  Biso   1.000  H
  C50      1.0000 0.38730  0.26510  0.84490  Biso   1.000  C
  H33      1.0000 0.55650  0.39510  0.94608  Biso   1.000  H
  H34      1.0000 0.51788  0.31939  0.94181  Biso   1.000  H
  C51      1.0000 0.44120  0.33699  0.87042  Biso   1.000  C
  C52      1.0000 0.65601  0.14181  0.60462  Biso   1.000  C
  N5       1.0000 0.86979  0.42999  0.80431  Biso   1.000  N
  C53      1.0000 0.95400  0.38581  0.83079  Biso   1.000  C
  H35      1.0000 0.10360  0.73561  0.98528  Biso   1.000  H
  H36      1.0000 0.11560  0.67301  0.98322  Biso   1.000  H
  C54      1.0000 0.19818  0.75109  0.97708  Biso   1.000  C
  H37      1.0000 0.77450  0.38761  0.42470  Biso   1.000  H
  H38      1.0000 0.74737  0.37350  0.47729  Biso   1.000  H
  H39      1.0000 0.83048  0.39128  0.49019  Biso   1.000  H
  N6       1.0000 0.82409  0.38510  0.82311  Biso   1.000  N
  C55      1.0000 0.90740  0.34030  0.84830  Biso   1.000  C
  H40      1.0000 0.40250  0.30330  0.87728  Biso   1.000  H
  H41      1.0000 0.33619  0.22693  0.82091  Biso   1.000  H
  H42      1.0000 0.40512  0.28281  0.81592  Biso   1.000  H
  H43      1.0000 0.38760  0.29952  0.87330  Biso   1.000  H
  H44      1.0000 0.43057  0.32199  0.82628  Biso   1.000  H
  H45      1.0000 0.44129  0.37872  0.88050  Biso   1.000  H
  H46      1.0000 0.68069  0.11899  0.62511  Biso   1.000  H
  H47      1.0000 0.69098  0.17620  0.59450  Biso   1.000  H
  C56      1.0000 0.58278  0.09220  0.54508  Biso   1.000  C
  C57      1.0000 0.02142  0.37611  0.83492  Biso   1.000  C
  H48      1.0000 0.20171  0.78662  0.95980  Biso   1.000  H
  H49      1.0000 0.21331  0.72411  0.95669  Biso   1.000  H
  H50      1.0000 0.23132  0.77052  0.02242  Biso   1.000  H
  C58      1.0000 0.93528  0.29351  0.86778  Biso   1.000  C
  H51      1.0000 0.59440  0.07800  0.51169  Biso   1.000  H
  H52      1.0000 0.55341  0.11339  0.53131  Biso   1.000  H
  H53      1.0000 0.55390  0.05350  0.55420  Biso   1.000  H
  H54      1.0000 0.02252  0.36862  0.79390  Biso   1.000  H
  H55      1.0000 0.06979  0.41491  0.86711  Biso   1.000  H
  C59      1.0000 0.00342  0.31281  0.85392  Biso   1.000  C
  H56      1.0000 0.89598  0.24660  0.84288  Biso   1.000  H
  H57      1.0000 0.95051  0.30030  0.91298  Biso   1.000  H
  H58      1.0000 0.99199  0.27569  0.81942  Biso   1.000  H
  H59      1.0000 0.04738  0.32179  0.89172  Biso   1.000  H
  O13      1.0000 0.41679  0.42031  0.38330  Biso   1.000  O
  C60      1.0000 0.40821  0.37482  0.33801  Biso   1.000  C
  C61      1.0000 0.42379  0.39268  0.28489  Biso   1.000  C
  O14      1.0000 0.38381  0.31300  0.33522  Biso   1.000  O
  C62      1.0000 0.38009  0.35519  0.22171  Biso   1.000  C
  C63      1.0000 0.49249  0.45638  0.30452  Biso   1.000  C
  C64      1.0000 0.36519  0.29638  0.38810  Biso   1.000  C
  S7       1.0000 0.29453  0.27098  0.18601  Biso   1.000  S
  C65      1.0000 0.40102  0.37931  0.17570  Biso   1.000  C
  C66      1.0000 0.51390  0.47878  0.25951  Biso   1.000  C
  H60      1.0000 0.52272  0.48272  0.34770  Biso   1.000  H
  H61      1.0000 0.40730  0.32832  0.42960  Biso   1.000  H
  H62      1.0000 0.31973  0.29763  0.38411  Biso   1.000  H
  C67      1.0000 0.35101  0.21892  0.37970  Biso   1.000  C
  C68      1.0000 0.24019  0.28242  0.22300  Biso   1.000  C
  H63      1.0000 0.37038  0.35409  0.13218  Biso   1.000  H
  C69      1.0000 0.46830  0.44150  0.19628  Biso   1.000  C
  S8       1.0000 0.60513  0.55162  0.28984  Biso   1.000  S
  H64      1.0000 0.29999  0.18921  0.37289  Biso   1.000  H
  H65      1.0000 0.35752  0.20280  0.34352  Biso   1.000  H
  H66      1.0000 0.38712  0.21979  0.41779  Biso   1.000  H
  N7       1.0000 0.25198  0.34408  0.24459  Biso   1.000  N
  C70      1.0000 0.18633  0.22640  0.22972  Biso   1.000  C
  C71      1.0000 0.48041  0.46722  0.14801  Biso   1.000  C
  C72      1.0000 0.58739  0.61751  0.28868  Biso   1.000  C
  N8       1.0000 0.21192  0.35461  0.27391  Biso   1.000  N
  C73      1.0000 0.16228  0.15101  0.20539  Biso   1.000  C
  C74      1.0000 0.14609  0.23600  0.25870  Biso   1.000  C
  O15      1.0000 0.43859  0.48030  0.11011  Biso   1.000  O
  O16      1.0000 0.52641  0.45671  0.13108  Biso   1.000  O
  N9       1.0000 0.51727  0.60917  0.26628  Biso   1.000  N
  C75      1.0000 0.65268  0.68291  0.31478  Biso   1.000  C
  C76      1.0000 0.16120  0.30210  0.28072  Biso   1.000  C
  H67      1.0000 0.20600  0.14481  0.22041  Biso   1.000  H
  H68      1.0000 0.13470  0.13148  0.15900  Biso   1.000  H
  C77      1.0000 0.11141  0.12199  0.23581  Biso   1.000  C
  C78      1.0000 0.09052  0.17140  0.26182  Biso   1.000  C
  C79      1.0000 0.54863  0.49182  0.08862  Biso   1.000  C
  N10      1.0000 0.50749  0.66320  0.27088  Biso   1.000  N
  C80      1.0000 0.64339  0.73750  0.32001  Biso   1.000  C
  C81      1.0000 0.73920  0.70569  0.34578  Biso   1.000  C
  S9       1.0000 0.11471  0.31994  0.32548  Biso   1.000  S
  H69      1.0000 0.06500  0.08079  0.20420  Biso   1.000  H
  H70      1.0000 0.13721  0.11022  0.27050  Biso   1.000  H
  H71      1.0000 0.09837  0.17560  0.30538  Biso   1.000  H
  H72      1.0000 0.03802  0.15822  0.23500  Biso   1.000  H
  H73      1.0000 0.51352  0.50659  0.06861  Biso   1.000  H
  H74      1.0000 0.60001  0.53080  0.11222  Biso   1.000  H
  C82      1.0000 0.54490  0.43861  0.03781  Biso   1.000  C
  C83      1.0000 0.56890  0.72530  0.29900  Biso   1.000  C
  C84      1.0000 0.71979  0.80329  0.35158  Biso   1.000  C
  C85      1.0000 0.77679  0.77830  0.35288  Biso   1.000  C
  H75      1.0000 0.75031  0.68050  0.31819  Biso   1.000  H
  H76      1.0000 0.75518  0.69988  0.38718  Biso   1.000  H
  C86      1.0000 0.09097  0.37658  0.29228  Biso   1.000  C
  H77      1.0000 0.58821  0.43311  0.05642  Biso   1.000  H
  H78      1.0000 0.49873  0.39611  0.02341  Biso   1.000  H
  H79      1.0000 0.54529  0.45330  0.00211  Biso   1.000  H
  S10      1.0000 0.55970  0.79744  0.30975  Biso   1.000  S
  H80      1.0000 0.72049  0.83279  0.32640  Biso   1.000  H
  H81      1.0000 0.73138  0.82710  0.39462  Biso   1.000  H
  H82      1.0000 0.82340  0.80429  0.39318  Biso   1.000  H
  H83      1.0000 0.79011  0.78420  0.31810  Biso   1.000  H
  C87      1.0000 0.05539  0.36062  0.22631  Biso   1.000  C
  C88      1.0000 0.10368  0.43509  0.33292  Biso   1.000  C
  C89      1.0000 0.46202  0.76632  0.25879  Biso   1.000  C
  H84      1.0000 0.04681  0.32170  0.19911  Biso   1.000  H
  C90      1.0000 0.03230  0.40248  0.20050  Biso   1.000  C
  C91      1.0000 0.08250  0.47782  0.30572  Biso   1.000  C
  C92      1.0000 0.12822  0.44911  0.40259  Biso   1.000  C
  C93      1.0000 0.42837  0.73809  0.19278  Biso   1.000  C
  C94      1.0000 0.42067  0.77808  0.28849  Biso   1.000  C
  C95      1.0000 0.04579  0.46182  0.23951  Biso   1.000  C
  C96      1.0000 0.99112  0.38171  0.12810  Biso   1.000  C
  H85      1.0000 0.09327  0.51789  0.33268  Biso   1.000  H
  O17      1.0000 0.11370  0.40610  0.42629  Biso   1.000  O
  O18      1.0000 0.16122  0.51320  0.43612  Biso   1.000  O
  C97      1.0000 0.35240  0.72109  0.15732  Biso   1.000  C
  C98      1.0000 0.46768  0.72338  0.15540  Biso   1.000  C
  H86      1.0000 0.44303  0.79621  0.33302  Biso   1.000  H
  C99      1.0000 0.34520  0.76271  0.25141  Biso   1.000  C
  S11      1.0000 0.00232  0.50869  0.21115  Biso   1.000  S
  O19      1.0000 0.01158  0.41417  0.09658  Biso   1.000  O
  O20      1.0000 0.92759  0.32021  0.10474  Biso   1.000  O
  C100     1.0000 0.18337  0.52958  0.50339  Biso   1.000  C
  C101     1.0000 0.31150  0.73331  0.18529  Biso   1.000  C
  H87      1.0000 0.32892  0.70060  0.11299  Biso   1.000  H
  O21      1.0000 0.52828  0.77020  0.16289  Biso   1.000  O
  O22      1.0000 0.43407  0.66418  0.11769  Biso   1.000  O
  C102     1.0000 0.30538  0.77948  0.28739  Biso   1.000  C
  C103     1.0000 0.06619  0.56861  0.19081  Biso   1.000  C
  C104     1.0000 0.88011  0.29118  0.03459  Biso   1.000  C
  H88      1.0000 0.14022  0.50240  0.51039  Biso   1.000  H
  H89      1.0000 0.22371  0.52031  0.52378  Biso   1.000  H
  C105     1.0000 0.20993  0.60011  0.53002  Biso   1.000  C
  S12      1.0000 0.21922  0.71550  0.13189  Biso   1.000  S
  C106     1.0000 0.55888  0.75790  0.11510  Biso   1.000  C
  C107     1.0000 0.47520  0.65129  0.08348  Biso   1.000  C
  O23      1.0000 0.24973  0.77971  0.26762  Biso   1.000  O
  O24      1.0000 0.36829  0.82798  0.35379  Biso   1.000  O
  N11      1.0000 0.13021  0.57002  0.19570  Biso   1.000  N
  C108     1.0000 0.04600  0.61420  0.16922  Biso   1.000  C
  H90      1.0000 0.89638  0.26438  0.01468  Biso   1.000  H
  H91      1.0000 0.88440  0.32700  0.01679  Biso   1.000  H
  C109     1.0000 0.80180  0.24890  0.02289  Biso   1.000  C
  H92      1.0000 0.22550  0.61240  0.57531  Biso   1.000  H
  H93      1.0000 0.25263  0.62651  0.52272  Biso   1.000  H
  H94      1.0000 0.16949  0.60869  0.50982  Biso   1.000  H
  C110     1.0000 0.15862  0.65769  0.15631  Biso   1.000  C
  H95      1.0000 0.51850  0.72248  0.07461  Biso   1.000  H
  H96      1.0000 0.58681  0.79890  0.10771  Biso   1.000  H
  C111     1.0000 0.61270  0.73491  0.15511  Biso   1.000  C
  H97      1.0000 0.44347  0.60489  0.05388  Biso   1.000  H
  H98      1.0000 0.48212  0.68062  0.05820  Biso   1.000  H
  C112     1.0000 0.55878  0.66298  0.12959  Biso   1.000  C
  C113     1.0000 0.34399  0.85820  0.39539  Biso   1.000  C
  N12      1.0000 0.17591  0.61491  0.17690  Biso   1.000  N
  C114     1.0000 0.09260  0.65971  0.15171  Biso   1.000  C
  C115     1.0000 0.97858  0.62390  0.16509  Biso   1.000  C
  H99      1.0000 0.76868  0.22949  0.97759  Biso   1.000  H
  H100     1.0000 0.79829  0.21339  0.04021  Biso   1.000  H
  H101     1.0000 0.78666  0.27588  0.04328  Biso   1.000  H
  H102     1.0000 0.59747  0.69669  0.12268  Biso   1.000  H
  H103     1.0000 0.66381  0.77309  0.17910  Biso   1.000  H
  H104     1.0000 0.59488  0.71720  0.18409  Biso   1.000  H
  H105     1.0000 0.61240  0.70049  0.12671  Biso   1.000  H
  H106     1.0000 0.56940  0.67801  0.17368  Biso   1.000  H
  H107     1.0000 0.55871  0.62129  0.11951  Biso   1.000  H
  H108     1.0000 0.31931  0.88102  0.37490  Biso   1.000  H
  H109     1.0000 0.30902  0.82381  0.40551  Biso   1.000  H
  C116     1.0000 0.41719  0.90779  0.45488  Biso   1.000  C
  C117     1.0000 0.06470  0.70648  0.13218  Biso   1.000  C
  H110     1.0000 0.97748  0.63139  0.20611  Biso   1.000  H
  H111     1.0000 0.93021  0.58510  0.13290  Biso   1.000  H
  C118     1.0000 0.99658  0.68720  0.14609  Biso   1.000  C
  H112     1.0000 0.40560  0.92202  0.48832  Biso   1.000  H
  H113     1.0000 0.44657  0.88658  0.46870  Biso   1.000  H
  H114     1.0000 0.44610  0.94651  0.44581  Biso   1.000  H
  H115     1.0000 0.10400  0.75340  0.15708  Biso   1.000  H
  H116     1.0000 0.04951  0.69969  0.08698  Biso   1.000  H
  H117     1.0000 0.00799  0.72428  0.18059  Biso   1.000  H
  H118     1.0000 0.95259  0.67818  0.10829  Biso   1.000  H
  C119     1.0000 0.65338  0.51840  0.50128  Biso   1.000  C
  C120     1.0000 0.62079  0.44140  0.47892  Biso   1.000  C
  H119     1.0000 0.69421  0.53989  0.54431  Biso   1.000  H
  H120     1.0000 0.67240  0.53611  0.47292  Biso   1.000  H
  H121     1.0000 0.61332  0.52701  0.49988  Biso   1.000  H
  O25      1.0000 0.58501  0.40030  0.41161  Biso   1.000  O
  H122     1.0000 0.58338  0.42239  0.49461  Biso   1.000  H
  H123     1.0000 0.66237  0.43419  0.50128  Biso   1.000  H
  C121     1.0000 0.56931  0.33898  0.38939  Biso   1.000  C
  C122     1.0000 0.53430  0.30808  0.31618  Biso   1.000  C
  O26      1.0000 0.57600  0.30271  0.42269  Biso   1.000  O
  C123     1.0000 0.46588  0.24410  0.28619  Biso   1.000  C
  C124     1.0000 0.56479  0.33949  0.28048  Biso   1.000  C
  C125     1.0000 0.42681  0.21150  0.21912  Biso   1.000  C
  H124     1.0000 0.44632  0.22302  0.31152  Biso   1.000  H
  C126     1.0000 0.52829  0.30880  0.21461  Biso   1.000  C
  S13      1.0000 0.64847  0.42244  0.31757  Biso   1.000  S
  S14      1.0000 0.33555  0.14051  0.18721  Biso   1.000  S
  C127     1.0000 0.45978  0.24369  0.18438  Biso   1.000  C
  H125     1.0000 0.54820  0.33052  0.18971  Biso   1.000  H
  C128     1.0000 0.70640  0.41020  0.28461  Biso   1.000  C
  C129     1.0000 0.34882  0.07070  0.18179  Biso   1.000  C
  C130     1.0000 0.42513  0.21251  0.11640  Biso   1.000  C
  N13      1.0000 0.72299  0.36268  0.29559  Biso   1.000  N
  C131     1.0000 0.73649  0.45180  0.25222  Biso   1.000  C
  N14      1.0000 0.41810  0.07899  0.20511  Biso   1.000  N
  C132     1.0000 0.28269  0.00671  0.15708  Biso   1.000  C
  O27      1.0000 0.40570  0.15551  0.08598  Biso   1.000  O
  O28      1.0000 0.41623  0.25521  0.08612  Biso   1.000  O
  N15      1.0000 0.76979  0.35262  0.27482  Biso   1.000  N
  C133     1.0000 0.78661  0.44279  0.23370  Biso   1.000  C
  C134     1.0000 0.72729  0.50839  0.23461  Biso   1.000  C
  N16      1.0000 0.42749  0.02439  0.20088  Biso   1.000  N
  C135     1.0000 0.20002  0.98730  0.13141  Biso   1.000  C
  C136     1.0000 0.29145  0.95070  0.15161  Biso   1.000  C
  C137     1.0000 0.38512  0.23400  0.01732  Biso   1.000  C
  C138     1.0000 0.79979  0.39151  0.24531  Biso   1.000  C
  C139     1.0000 0.81539  0.49199  0.20040  Biso   1.000  C
  C140     1.0000 0.76023  0.51722  0.18601  Biso   1.000  C
  H126     1.0000 0.67400  0.49592  0.21518  Biso   1.000  H
  H127     1.0000 0.75610  0.54939  0.27180  Biso   1.000  H
  C141     1.0000 0.36461  0.96141  0.17570  Biso   1.000  C
  H128     1.0000 0.19253  0.01432  0.16101  Biso   1.000  H
  H129     1.0000 0.18193  0.99308  0.09020  Biso   1.000  H
  C142     1.0000 0.15883  0.91242  0.12460  Biso   1.000  C
  C143     1.0000 0.21601  0.88599  0.12441  Biso   1.000  C
  H130     1.0000 0.39171  0.27231  0.00312  Biso   1.000  H
  H131     1.0000 0.41029  0.21340  0.00269  Biso   1.000  H
  C144     1.0000 0.29737  0.18069  0.99040  Biso   1.000  C
  S15      1.0000 0.86137  0.37767  0.21758  Biso   1.000  S
  H132     1.0000 0.81332  0.46899  0.16130  Biso   1.000  H
  H133     1.0000 0.86737  0.52867  0.22838  Biso   1.000  H
  H134     1.0000 0.78618  0.56461  0.19028  Biso   1.000  H
  H135     1.0000 0.71940  0.49152  0.14250  Biso   1.000  H
  S16      1.0000 0.37667  0.89052  0.16812  Biso   1.000  S
  H136     1.0000 0.14690  0.90758  0.16020  Biso   1.000  H
  H137     1.0000 0.11150  0.88678  0.08502  Biso   1.000  H
  H138     1.0000 0.20170  0.86021  0.08118  Biso   1.000  H
  H139     1.0000 0.21743  0.85831  0.15108  Biso   1.000  H
  H140     1.0000 0.27770  0.19498  0.01689  Biso   1.000  H
  H141     1.0000 0.26997  0.17760  0.94727  Biso   1.000  H
  H142     1.0000 0.29100  0.13730  0.99060  Biso   1.000  H
  C145     1.0000 0.88347  0.32498  0.25769  Biso   1.000  C
  C146     1.0000 0.46923  0.92278  0.23102  Biso   1.000  C
  C147     1.0000 0.91441  0.33790  0.32380  Biso   1.000  C
  C148     1.0000 0.87068  0.26697  0.21648  Biso   1.000  C
  C149     1.0000 0.52179  0.91499  0.21398  Biso   1.000  C
  C150     1.0000 0.49103  0.95210  0.29521  Biso   1.000  C
  C151     1.0000 0.93140  0.29120  0.34511  Biso   1.000  C
  C152     1.0000 0.92839  0.39588  0.37289  Biso   1.000  C
  H143     1.0000 0.84936  0.25767  0.17248  Biso   1.000  H
  C153     1.0000 0.89051  0.22188  0.24229  Biso   1.000  C
  H144     1.0000 0.50803  0.89618  0.17099  Biso   1.000  H
  C154     1.0000 0.59582  0.93521  0.26110  Biso   1.000  C
  C155     1.0000 0.56461  0.97138  0.34079  Biso   1.000  C
  C156     1.0000 0.44040  0.96679  0.31330  Biso   1.000  C
  C157     1.0000 0.92140  0.23568  0.30759  Biso   1.000  C
  H145     1.0000 0.95121  0.29918  0.38901  Biso   1.000  H
  O29      1.0000 0.91918  0.38960  0.42168  Biso   1.000  O
  O30      1.0000 0.95331  0.45330  0.36142  Biso   1.000  O
  C158     1.0000 0.87461  0.16079  0.19590  Biso   1.000  C
  C159     1.0000 0.61722  0.96220  0.32568  Biso   1.000  C
  C160     1.0000 0.65044  0.92502  0.23960  Biso   1.000  C
  H146     1.0000 0.57891  0.99147  0.38378  Biso   1.000  H
  O31      1.0000 0.48088  0.03128  0.35729  Biso   1.000  O
  O32      1.0000 0.37552  0.93641  0.29622  Biso   1.000  O
  S17      1.0000 0.95838  0.18709  0.34228  Biso   1.000  S
  C161     1.0000 0.96567  0.51218  0.40748  Biso   1.000  C
  O33      1.0000 0.81608  0.11049  0.17421  Biso   1.000  O
  O34      1.0000 0.91857  0.16987  0.16879  Biso   1.000  O
  S18      1.0000 0.70305  0.98188  0.39030  Biso   1.000  S
  O35      1.0000 0.69769  0.91318  0.26748  Biso   1.000  O
  O36      1.0000 0.63935  0.93622  0.18371  Biso   1.000  O
  C162     1.0000 0.43631  0.05840  0.37730  Biso   1.000  C
  C163     1.0000 0.88472  0.13160  0.35821  Biso   1.000  C
  H147     1.0000 0.91801  0.50321  0.40829  Biso   1.000  H
  C164     1.0000 0.99458  0.57049  0.38781  Biso   1.000  C
  H148     1.0000 0.00220  0.52119  0.45032  Biso   1.000  H
  C165     1.0000 0.90521  0.11410  0.12239  Biso   1.000  C
  C166     1.0000 0.77378  0.04142  0.37749  Biso   1.000  C
  C167     1.0000 0.69371  0.93379  0.15900  Biso   1.000  C
  H149     1.0000 0.38629  0.04111  0.34208  Biso   1.000  H
  H150     1.0000 0.43012  0.04651  0.41338  Biso   1.000  H
  C168     1.0000 0.48652  0.13542  0.39620  Biso   1.000  C
  N17      1.0000 0.81380  0.11790  0.32582  Biso   1.000  N
  C169     1.0000 0.90599  0.10411  0.40450  Biso   1.000  C
  H151     1.0000 0.98802  0.60491  0.40829  Biso   1.000  H
  H152     1.0000 0.96697  0.55700  0.34208  Biso   1.000  H
  H153     1.0000 0.04798  0.58791  0.39999  Biso   1.000  H
  H154     1.0000 0.95241  0.12360  0.12019  Biso   1.000  H
  H155     1.0000 0.88800  0.07429  0.13472  Biso   1.000  H
  C170     1.0000 0.84621  0.10090  0.05849  Biso   1.000  C
  N18      1.0000 0.75791  0.07201  0.33542  Biso   1.000  N
  C171     1.0000 0.85169  0.05800  0.41492  Biso   1.000  C
  H156     1.0000 0.69179  0.89078  0.15531  Biso   1.000  H
  H157     1.0000 0.74543  0.96971  0.18879  Biso   1.000  H
  C172     1.0000 0.67481  0.94110  0.10248  Biso   1.000  C
  H158     1.0000 0.47172  0.14839  0.35931  Biso   1.000  H
  H159     1.0000 0.48002  0.15829  0.42912  Biso   1.000  H
  H160     1.0000 0.53921  0.14771  0.41189  Biso   1.000  H
  C173     1.0000 0.98490  0.11639  0.44989  Biso   1.000  C
  H161     1.0000 0.80578  0.10508  0.06328  Biso   1.000  H
  H162     1.0000 0.86898  0.13310  0.04030  Biso   1.000  H
  H163     1.0000 0.82580  0.05592  0.03071  Biso   1.000  H
  C174     1.0000 0.88248  0.03159  0.46361  Biso   1.000  C
  H164     1.0000 0.69321  0.98818  0.10809  Biso   1.000  H
  H165     1.0000 0.69733  0.92471  0.08041  Biso   1.000  H
  H166     1.0000 0.62018  0.91578  0.07768  Biso   1.000  H
  C175     1.0000 0.96562  0.07310  0.49192  Biso   1.000  C
  H167     1.0000 0.00711  0.10118  0.42609  Biso   1.000  H
  H168     1.0000 0.01998  0.16390  0.47590  Biso   1.000  H
  H169     1.0000 0.86527  0.03509  0.49619  Biso   1.000  H
  H170     1.0000 0.86562  0.98448  0.44389  Biso   1.000  H
  H171     1.0000 0.98608  0.10218  0.53548  Biso   1.000  H
  H172     1.0000 0.98789  0.04447  0.49288  Biso   1.000  H
  C176     1.0000 0.34660  0.48159  0.49869  Biso   1.000  C
  C177     1.0000 0.37921  0.55861  0.52109  Biso   1.000  C
  H173     1.0000 0.30581  0.46008  0.45570  Biso   1.000  H
  H174     1.0000 0.32760  0.46391  0.52709  Biso   1.000  H
  H175     1.0000 0.38670  0.47298  0.50008  Biso   1.000  H
  O37      1.0000 0.41498  0.59971  0.58840  Biso   1.000  O
  H176     1.0000 0.41662  0.57762  0.50540  Biso   1.000  H
  H177     1.0000 0.33760  0.56581  0.49869  Biso   1.000  H
  C178     1.0000 0.43073  0.66103  0.61062  Biso   1.000  C
  O38      1.0000 0.42400  0.69730  0.57732  Biso   1.000  O
  C179     1.0000 0.46572  0.69192  0.68379  Biso   1.000  C
  C180     1.0000 0.43518  0.66051  0.71948  Biso   1.000  C
  C181     1.0000 0.53412  0.75591  0.71382  Biso   1.000  C
  S19      1.0000 0.35158  0.57757  0.68244  Biso   1.000  S
  C182     1.0000 0.47171  0.69122  0.78540  Biso   1.000  C
  C183     1.0000 0.57319  0.78851  0.78089  Biso   1.000  C
  H178     1.0000 0.55368  0.77700  0.68849  Biso   1.000  H
  C184     1.0000 0.29360  0.58981  0.71540  Biso   1.000  C
  H179     1.0000 0.45180  0.66949  0.81030  Biso   1.000  H
  C185     1.0000 0.54020  0.75630  0.81558  Biso   1.000  C
  S20      1.0000 0.66445  0.85950  0.81280  Biso   1.000  S
  N19      1.0000 0.27699  0.63728  0.70442  Biso   1.000  N
  C186     1.0000 0.26351  0.54822  0.74779  Biso   1.000  C
  C187     1.0000 0.57492  0.78750  0.88361  Biso   1.000  C
  C188     1.0000 0.65123  0.92931  0.81822  Biso   1.000  C
  N20      1.0000 0.23021  0.64740  0.72519  Biso   1.000  N
  C189     1.0000 0.21339  0.55722  0.76631  Biso   1.000  C
  C190     1.0000 0.27269  0.49158  0.76540  Biso   1.000  C
  O39      1.0000 0.59428  0.84449  0.91398  Biso   1.000  O
  O40      1.0000 0.58382  0.74480  0.91389  Biso   1.000  O
  N21      1.0000 0.58190  0.92102  0.79490  Biso   1.000  N
  C191     1.0000 0.71728  0.99329  0.84288  Biso   1.000  C
  C192     1.0000 0.20021  0.60850  0.75470  Biso   1.000  C
  C193     1.0000 0.18459  0.50798  0.79960  Biso   1.000  C
  C194     1.0000 0.23981  0.48280  0.81400  Biso   1.000  C
  H180     1.0000 0.32598  0.50408  0.78478  Biso   1.000  H
  H181     1.0000 0.24390  0.45062  0.72821  Biso   1.000  H
  C195     1.0000 0.61493  0.76601  0.98269  Biso   1.000  C
  N22      1.0000 0.57248  0.97561  0.79908  Biso   1.000  N
  C196     1.0000 0.79998  0.01271  0.86860  Biso   1.000  C
  C197     1.0000 0.70860  0.04931  0.84840  Biso   1.000  C
  S21      1.0000 0.13863  0.62235  0.78243  Biso   1.000  S
  H182     1.0000 0.18673  0.53102  0.83871  Biso   1.000  H
  H183     1.0000 0.13258  0.47128  0.77159  Biso   1.000  H
  H184     1.0000 0.21380  0.43538  0.80968  Biso   1.000  H
  H185     1.0000 0.28060  0.50849  0.85751  Biso   1.000  H
  H186     1.0000 0.60829  0.72770  0.99689  Biso   1.000  H
  H187     1.0000 0.58971  0.78661  0.99732  Biso   1.000  H
  C198     1.0000 0.70263  0.81932  0.00961  Biso   1.000  C
  C199     1.0000 0.63539  0.03860  0.82431  Biso   1.000  C
  H188     1.0000 0.80751  0.98569  0.83899  Biso   1.000  H
  H189     1.0000 0.81812  0.00693  0.90981  Biso   1.000  H
  C200     1.0000 0.84117  0.08759  0.87541  Biso   1.000  C
  C201     1.0000 0.78399  0.11402  0.87560  Biso   1.000  C
  C202     1.0000 0.11651  0.67499  0.74232  Biso   1.000  C
  H190     1.0000 0.72230  0.80503  0.98312  Biso   1.000  H
  H191     1.0000 0.73000  0.82239  0.05269  Biso   1.000  H
  H192     1.0000 0.70900  0.86271  0.00941  Biso   1.000  H
  S22      1.0000 0.62333  0.10949  0.83189  Biso   1.000  S
  H193     1.0000 0.85308  0.09239  0.83981  Biso   1.000  H
  H194     1.0000 0.88848  0.11318  0.91499  Biso   1.000  H
  H195     1.0000 0.79828  0.13979  0.91878  Biso   1.000  H
  H196     1.0000 0.78259  0.14168  0.84888  Biso   1.000  H
  C203     1.0000 0.08559  0.66212  0.67620  Biso   1.000  C
  C204     1.0000 0.12927  0.73298  0.78348  Biso   1.000  C
  C205     1.0000 0.53079  0.07718  0.76899  Biso   1.000  C
  C206     1.0000 0.06860  0.70881  0.65490  Biso   1.000  C
  C207     1.0000 0.07161  0.60413  0.62712  Biso   1.000  C
  H197     1.0000 0.15059  0.74227  0.82748  Biso   1.000  H
  C208     1.0000 0.10952  0.77809  0.75772  Biso   1.000  C
  C209     1.0000 0.47818  0.08501  0.78598  Biso   1.000  C
  C210     1.0000 0.50897  0.04791  0.70480  Biso   1.000  C
  C211     1.0000 0.07860  0.76433  0.69242  Biso   1.000  C
  H198     1.0000 0.04881  0.70078  0.61100  Biso   1.000  H
  O41      1.0000 0.08079  0.61040  0.57828  Biso   1.000  O
  O42      1.0000 0.04669  0.54671  0.63859  Biso   1.000  O
  C212     1.0000 0.12543  0.83923  0.80411  Biso   1.000  C
  H199     1.0000 0.49202  0.10383  0.82902  Biso   1.000  H
  C213     1.0000 0.40418  0.06480  0.73891  Biso   1.000  C
  C214     1.0000 0.43539  0.02863  0.65922  Biso   1.000  C
  C215     1.0000 0.55960  0.03322  0.68671  Biso   1.000  C
  S23      1.0000 0.04162  0.81292  0.65773  Biso   1.000  S
  C216     1.0000 0.03428  0.48777  0.59248  Biso   1.000  C
  O43      1.0000 0.18390  0.88948  0.82580  Biso   1.000  O
  O44      1.0000 0.08141  0.83009  0.83122  Biso   1.000  O
  C217     1.0000 0.38280  0.03780  0.67429  Biso   1.000  C
  C218     1.0000 0.34956  0.07499  0.76041  Biso   1.000  C
  H200     1.0000 0.42104  0.00848  0.61618  Biso   1.000  H
  O45      1.0000 0.51909  0.96869  0.64272  Biso   1.000  O
  O46      1.0000 0.62448  0.06360  0.70379  Biso   1.000  O
  C219     1.0000 0.11532  0.86841  0.64180  Biso   1.000  C
  H201     1.0000 0.08199  0.49680  0.59172  Biso   1.000  H
  C220     1.0000 0.00540  0.42948  0.61220  Biso   1.000  C
  H202     1.0000 0.99778  0.47877  0.54969  Biso   1.000  H
  C221     1.0000 0.09479  0.88591  0.87762  Biso   1.000  C
  S24      1.0000 0.29695  0.01813  0.60971  Biso   1.000  S
  O47      1.0000 0.30228  0.08682  0.73248  Biso   1.000  O
  O48      1.0000 0.36070  0.06379  0.81630  Biso   1.000  O
  C222     1.0000 0.56369  0.94161  0.62271  Biso   1.000  C
  N23      1.0000 0.18620  0.88211  0.67419  Biso   1.000  N
  C223     1.0000 0.09401  0.89590  0.59551  Biso   1.000  C
  H203     1.0000 0.01203  0.39510  0.59172  Biso   1.000  H
  H204     1.0000 0.03300  0.44300  0.65788  Biso   1.000  H
  H205     1.0000 0.95202  0.41210  0.60002  Biso   1.000  H
  H206     1.0000 0.04761  0.87639  0.87978  Biso   1.000  H
  H207     1.0000 0.11200  0.92572  0.86529  Biso   1.000  H
  C224     1.0000 0.15381  0.89910  0.94148  Biso   1.000  C
  C225     1.0000 0.22622  0.95859  0.62252  Biso   1.000  C
  C226     1.0000 0.30629  0.06623  0.84101  Biso   1.000  C
  H208     1.0000 0.61369  0.95889  0.65788  Biso   1.000  H
  H209     1.0000 0.56990  0.95348  0.58658  Biso   1.000  H
  C227     1.0000 0.51348  0.86459  0.60381  Biso   1.000  C
  N24      1.0000 0.24209  0.92800  0.66459  Biso   1.000  N
  C228     1.0000 0.14831  0.94201  0.58509  Biso   1.000  C
  C229     1.0000 0.01510  0.88362  0.55012  Biso   1.000  C
  H210     1.0000 0.19417  0.89487  0.93668  Biso   1.000  H
  H211     1.0000 0.13102  0.86691  0.95971  Biso   1.000  H
  H212     1.0000 0.17420  0.94409  0.96930  Biso   1.000  H
  H213     1.0000 0.30819  0.10919  0.84470  Biso   1.000  H
  H214     1.0000 0.25457  0.03030  0.81122  Biso   1.000  H
  C230     1.0000 0.32516  0.05890  0.89748  Biso   1.000  C
  H215     1.0000 0.52833  0.85162  0.64070  Biso   1.000  H
  H216     1.0000 0.52001  0.84168  0.57089  Biso   1.000  H
  H217     1.0000 0.46079  0.85230  0.58812  Biso   1.000  H
  C231     1.0000 0.11750  0.96838  0.53640  Biso   1.000  C
  C232     1.0000 0.03438  0.92692  0.50809  Biso   1.000  C
  H218     1.0000 0.99291  0.89878  0.57392  Biso   1.000  H
  H219     1.0000 0.98002  0.83612  0.52411  Biso   1.000  H
  H220     1.0000 0.30677  0.01179  0.89191  Biso   1.000  H
  H221     1.0000 0.30267  0.07530  0.91960  Biso   1.000  H
  H222     1.0000 0.37979  0.08421  0.92229  Biso   1.000  H
  H223     1.0000 0.13473  0.96492  0.50382  Biso   1.000  H
  H224     1.0000 0.13436  0.01549  0.55612  Biso   1.000  H
  H225     1.0000 0.01389  0.89781  0.46448  Biso   1.000  H
  H226     1.0000 0.01206  0.95548  0.50708  Biso   1.000  H
  Ne1      1.0000 0.30578  0.53155  0.24154  Biso   1.000  Ne
  He1      1.0000 0.30821  0.54233  0.26841  Biso   1.000  He
  He2      1.0000 0.29117  0.51639  0.20941  Biso   1.000  He
  Ar1      1.0000 0.29857  0.52861  0.24037  Biso   1.000  Ar
  Ne2      1.0000 0.64846  0.17691  0.26709  Biso   1.000  Ne
  He3      1.0000 0.64808  0.17900  0.31840  Biso   1.000  He
  He4      1.0000 0.64505  0.15946  0.25431  Biso   1.000  He
  Ar2      1.0000 0.64623  0.16563  0.26945  Biso   1.000  Ar
  Ne3      1.0000 0.35155  0.82310  0.73291  Biso   1.000  Ne
  He5      1.0000 0.35568  0.84455  0.75552  Biso   1.000  He
  He6      1.0000 0.35177  0.82045  0.67966  Biso   1.000  He
  Ar3      1.0000 0.35379  0.83438  0.73055  Biso   1.000  Ar
  Ne4      1.0000 0.69421  0.46845  0.75846  Biso   1.000  Ne
  He7      1.0000 0.78165  0.52610  0.93396  Biso   1.000  He
  He8      1.0000 0.69242  0.45861  0.73339  Biso   1.000  He
  Ar4      1.0000 0.70160  0.47158  0.75969  Biso   1.000  Ar
