data_image0
_cell_length_a       9.367
_cell_length_b       20.017
_cell_length_c       25.312
_cell_angle_alpha    90
_cell_angle_beta     90
_cell_angle_gamma    90

_symmetry_space_group_name_H-M    "P 1"
_symmetry_int_tables_number       1

loop_
  _symmetry_equiv_pos_as_xyz
  'x, y, z'

loop_
  _atom_site_label
  _atom_site_occupancy
  _atom_site_fract_x
  _atom_site_fract_y
  _atom_site_fract_z
  _atom_site_thermal_displace_type
  _atom_site_B_iso_or_equiv
  _atom_site_type_symbol
  C1       1.0000 0.47390  0.53320  0.54172  Biso   1.000  C
  C2       1.0000 0.57820  0.59100  0.53350  Biso   1.000  C
  O1       1.0000 0.38443  0.54669  0.58672  Biso   1.000  O
  O2       1.0000 0.48874  0.64840  0.52299  Biso   1.000  O
  C3       1.0000 0.67631  0.60549  0.57929  Biso   1.000  C
  H1       1.0000 0.32871  0.51551  0.59102  Biso   1.000  H
  C4       1.0000 0.56304  0.70870  0.51260  Biso   1.000  C
  O3       1.0000 0.79140  0.55773  0.57992  Biso   1.000  O
  C5       1.0000 0.75072  0.67263  0.57542  Biso   1.000  C
  O4       1.0000 0.65720  0.70040  0.46950  Biso   1.000  O
  C6       1.0000 0.65037  0.72923  0.56072  Biso   1.000  C
  C7       1.0000 0.79353  0.50542  0.61880  Biso   1.000  C
  O5       1.0000 0.81819  0.68822  0.62500  Biso   1.000  O
  C8       1.0000 0.61386  0.72658  0.41909  Biso   1.000  C
  O6       1.0000 0.72019  0.78753  0.54761  Biso   1.000  O
  O7       1.0000 0.74378  0.44582  0.59869  Biso   1.000  O
  C9       1.0000 0.95036  0.49923  0.63859  Biso   1.000  C
  H2       1.0000 0.85812  0.72458  0.62271  Biso   1.000  H
  C10      1.0000 0.71709  0.78328  0.40582  Biso   1.000  C
  C11      1.0000 0.62357  0.66923  0.37911  Biso   1.000  C
  H3       1.0000 0.76812  0.80012  0.57281  Biso   1.000  H
  C12      1.0000 0.82374  0.42439  0.55282  Biso   1.000  C
  C13      1.0000 0.04719  0.47230  0.59312  Biso   1.000  C
  O8       1.0000 0.99776  0.56182  0.65732  Biso   1.000  O
  C14      1.0000 0.69681  0.80422  0.34790  Biso   1.000  C
  O9       1.0000 0.68603  0.84029  0.43790  Biso   1.000  O
  O10      1.0000 0.61065  0.69491  0.32581  Biso   1.000  O
  C15      1.0000 0.50689  0.61713  0.38480  Biso   1.000  C
  C16      1.0000 0.98324  0.40970  0.57012  Biso   1.000  C
  C17      1.0000 0.74827  0.35870  0.53611  Biso   1.000  C
  O11      1.0000 0.18245  0.45581  0.61402  Biso   1.000  O
  H4       1.0000 0.93349  0.58940  0.65412  Biso   1.000  H
  C18      1.0000 0.71250  0.74402  0.31242  Biso   1.000  C
  O12      1.0000 0.80068  0.85342  0.33549  Biso   1.000  O
  H5       1.0000 0.69606  0.83049  0.46922  Biso   1.000  H
  O13      1.0000 0.36789  0.64450  0.37449  Biso   1.000  O
  O14      1.0000 0.06544  0.39421  0.52552  Biso   1.000  O
  O15      1.0000 0.70898  0.39002  0.48669  Biso   1.000  O
  C19      1.0000 0.74997  0.31049  0.58182  Biso   1.000  C
  H6       1.0000 0.19804  0.41590  0.60951  Biso   1.000  H
  O16      1.0000 0.85225  0.71979  0.31752  Biso   1.000  O
  H7       1.0000 0.79033  0.88570  0.35501  Biso   1.000  H
  C20      1.0000 0.10633  0.32782  0.51620  Biso   1.000  C
  C21      1.0000 0.92837  0.70220  0.27050  Biso   1.000  C
  O17      1.0000 0.03075  0.29890  0.47302  Biso   1.000  O
  C22      1.0000 0.26572  0.32612  0.50549  Biso   1.000  C
  C23      1.0000 0.88801  0.63131  0.25229  Biso   1.000  C
  C24      1.0000 0.08530  0.70240  0.28761  Biso   1.000  C
  C25      1.0000 0.04815  0.33541  0.42612  Biso   1.000  C
  C26      1.0000 0.30170  0.36839  0.45579  Biso   1.000  C
  O18      1.0000 0.34024  0.35240  0.55132  Biso   1.000  O
  O19      1.0000 0.98313  0.60798  0.21128  Biso   1.000  O
  C27      1.0000 0.74239  0.62722  0.22321  Biso   1.000  C
  C28      1.0000 0.17914  0.67083  0.24601  Biso   1.000  C
  O20      1.0000 0.12629  0.77239  0.29441  Biso   1.000  O
  C29      1.0000 0.20530  0.34101  0.41040  Biso   1.000  C
  C30      1.0000 0.95495  0.30089  0.38472  Biso   1.000  C
  O21      1.0000 0.44422  0.36109  0.44141  Biso   1.000  O
  H8       1.0000 0.28205  0.36299  0.57400  Biso   1.000  H
  C31      1.0000 0.12950  0.60069  0.22902  Biso   1.000  C
  O22      1.0000 0.73481  0.67892  0.18031  Biso   1.000  O
  O23      1.0000 0.32241  0.66249  0.26450  Biso   1.000  O
  H9       1.0000 0.07526  0.78973  0.31689  Biso   1.000  H
  O24      1.0000 0.22398  0.39032  0.37022  Biso   1.000  O
  O25      1.0000 0.99029  0.23170  0.37800  Biso   1.000  O
  H10      1.0000 0.46055  0.38402  0.41522  Biso   1.000  H
  O26      1.0000 0.13718  0.55952  0.27299  Biso   1.000  O
  C32      1.0000 0.25003  0.36809  0.31681  Biso   1.000  C
  H11      1.0000 0.07377  0.22841  0.36860  Biso   1.000  H
  C33      1.0000 0.18757  0.49008  0.26462  Biso   1.000  C
  O27      1.0000 0.13046  0.37618  0.28488  Biso   1.000  O
  C34      1.0000 0.36500  0.41250  0.29662  Biso   1.000  C
  C35      1.0000 0.07003  0.44152  0.28330  Biso   1.000  C
  C36      1.0000 0.32380  0.48529  0.29369  Biso   1.000  C
  O28      1.0000 0.49781  0.40501  0.32712  Biso   1.000  O
  C37      1.0000 0.94192  0.44152  0.24399  Biso   1.000  C
  O29      1.0000 0.43877  0.52291  0.26869  Biso   1.000  O
  H12      1.0000 0.48575  0.37748  0.35058  Biso   1.000  H
  O30      1.0000 0.83292  0.39581  0.26150  Biso   1.000  O
  H13      1.0000 0.40846  0.54139  0.24202  Biso   1.000  H
  H14      1.0000 0.86709  0.35820  0.26391  Biso   1.000  H
  O31      1.0000 0.18608  0.65969  0.56210  Biso   1.000  O
  C38      1.0000 0.21715  0.71669  0.59422  Biso   1.000  C
  H15      1.0000 0.19611  0.66953  0.53082  Biso   1.000  H
  C39      1.0000 0.11391  0.77339  0.58091  Biso   1.000  C
  C40      1.0000 0.19675  0.69581  0.65210  Biso   1.000  C
  O32      1.0000 0.15715  0.79962  0.53050  Biso   1.000  O
  C41      1.0000 0.12363  0.83079  0.62089  Biso   1.000  C
  C42      1.0000 0.21245  0.75601  0.68762  Biso   1.000  C
  O33      1.0000 0.30074  0.64660  0.66451  Biso   1.000  O
  C43      1.0000 0.06309  0.79133  0.48740  Biso   1.000  C
  C44      1.0000 0.00694  0.88290  0.61520  Biso   1.000  C
  O34      1.0000 0.11071  0.80512  0.67423  Biso   1.000  O
  O35      1.0000 0.35230  0.78019  0.68252  Biso   1.000  O
  H16      1.0000 0.29027  0.61433  0.64499  Biso   1.000  H
  C45      1.0000 0.15042  0.77079  0.43932  Biso   1.000  C
  O36      1.0000 0.98868  0.85163  0.47701  Biso   1.000  O
  O37      1.0000 0.86783  0.85552  0.62551  Biso   1.000  O
  C46      1.0000 0.42842  0.79782  0.72950  Biso   1.000  C
  O38      1.0000 0.22024  0.71249  0.45239  Biso   1.000  O
  C47      1.0000 0.25067  0.82740  0.42462  Biso   1.000  C
  C48      1.0000 0.07815  0.90903  0.46650  Biso   1.000  C
  C49      1.0000 0.38796  0.86871  0.74771  Biso   1.000  C
  C50      1.0000 0.58525  0.79762  0.71239  Biso   1.000  C
  H17      1.0000 0.26807  0.69991  0.42719  Biso   1.000  H
  O39      1.0000 0.31814  0.81181  0.37500  Biso   1.000  O
  C51      1.0000 0.17626  0.89449  0.42071  Biso   1.000  C
  C52      1.0000 0.97384  0.96683  0.45832  Biso   1.000  C
  C53      1.0000 0.24234  0.87281  0.77683  Biso   1.000  C
  O40      1.0000 0.48319  0.89199  0.78872  Biso   1.000  O
  C54      1.0000 0.67909  0.82920  0.75399  Biso   1.000  C
  O41      1.0000 0.62624  0.72763  0.70559  Biso   1.000  O
  H18      1.0000 0.35807  0.77539  0.37729  Biso   1.000  H
  O42      1.0000 0.29134  0.94230  0.42012  Biso   1.000  O
  O43      1.0000 0.88438  0.95329  0.41332  Biso   1.000  O
  O44      1.0000 0.23476  0.82110  0.81969  Biso   1.000  O
  C55      1.0000 0.62944  0.89929  0.77102  Biso   1.000  C
  O45      1.0000 0.82236  0.83749  0.73550  Biso   1.000  O
  H19      1.0000 0.57532  0.71030  0.68311  Biso   1.000  H
  C56      1.0000 0.29358  0.99460  0.38120  Biso   1.000  C
  H20      1.0000 0.82865  0.98451  0.40902  Biso   1.000  H
  O46      1.0000 0.63713  0.94050  0.72701  Biso   1.000  O
  C57      1.0000 0.45041  0.00080  0.36141  Biso   1.000  C
  O47      1.0000 0.24383  0.05420  0.40131  Biso   1.000  O
  C58      1.0000 0.68763  0.00989  0.73542  Biso   1.000  C
  O48      1.0000 0.49781  0.93820  0.34272  Biso   1.000  O
  C59      1.0000 0.54713  0.02768  0.40692  Biso   1.000  C
  C60      1.0000 0.32380  0.07559  0.44722  Biso   1.000  C
  C61      1.0000 0.56998  0.05850  0.71670  Biso   1.000  C
  C62      1.0000 0.82374  0.01469  0.70631  Biso   1.000  C
  H21      1.0000 0.43344  0.91063  0.34592  Biso   1.000  H
  C63      1.0000 0.48329  0.09032  0.42991  Biso   1.000  C
  O49      1.0000 0.68250  0.04421  0.38602  Biso   1.000  O
  C64      1.0000 0.24832  0.14128  0.46389  Biso   1.000  C
  O50      1.0000 0.63051  0.12379  0.71512  Biso   1.000  O
  C65      1.0000 0.44198  0.05850  0.75601  Biso   1.000  C
  C66      1.0000 0.86495  0.08753  0.70342  Biso   1.000  C
  O51      1.0000 0.93872  0.97712  0.73131  Biso   1.000  O
  O52      1.0000 0.56539  0.10581  0.47452  Biso   1.000  O
  H22      1.0000 0.69798  0.08408  0.39049  Biso   1.000  H
  O53      1.0000 0.20903  0.11001  0.51331  Biso   1.000  O
  C67      1.0000 0.25003  0.18949  0.41822  Biso   1.000  C
  C68      1.0000 0.74997  0.13189  0.68319  Biso   1.000  C
  O54      1.0000 0.33298  0.10421  0.73850  Biso   1.000  O
  O55      1.0000 0.99776  0.09502  0.67292  Biso   1.000  O
  H23      1.0000 0.90851  0.95859  0.75802  Biso   1.000  H
  C69      1.0000 0.60628  0.17220  0.48380  Biso   1.000  C
  O56      1.0000 0.72392  0.10971  0.62982  Biso   1.000  O
  H24      1.0000 0.36714  0.14178  0.73609  Biso   1.000  H
  H25      1.0000 0.98580  0.12250  0.64942  Biso   1.000  H
  C70      1.0000 0.76567  0.17390  0.49451  Biso   1.000  C
  O57      1.0000 0.53080  0.20108  0.52702  Biso   1.000  O
  C71      1.0000 0.70524  0.15901  0.58960  Biso   1.000  C
  C72      1.0000 0.80164  0.13159  0.54421  Biso   1.000  C
  O58      1.0000 0.84029  0.14762  0.44872  Biso   1.000  O
  C73      1.0000 0.54820  0.16461  0.57392  Biso   1.000  C
  O59      1.0000 0.94417  0.13888  0.55859  Biso   1.000  O
  H26      1.0000 0.78211  0.13698  0.42600  Biso   1.000  H
  C74      1.0000 0.45500  0.19908  0.61532  Biso   1.000  C
  H27      1.0000 0.96061  0.11600  0.58482  Biso   1.000  H
  O60      1.0000 0.49023  0.26832  0.62200  Biso   1.000  O
  H28      1.0000 0.57382  0.27162  0.63140  Biso   1.000  H
  O61      1.0000 0.51681  0.39202  0.71132  Biso   1.000  O
  C75      1.0000 0.61194  0.36869  0.75229  Biso   1.000  C
  C76      1.0000 0.37045  0.39931  0.72902  Biso   1.000  C
  C77      1.0000 0.75755  0.37278  0.72321  Biso   1.000  C
  C78      1.0000 0.57158  0.29780  0.77050  Biso   1.000  C
  C79      1.0000 0.32091  0.32922  0.74601  Biso   1.000  C
  O62      1.0000 0.36276  0.44053  0.77299  Biso   1.000  O
  O63      1.0000 0.76513  0.32113  0.68031  Biso   1.000  O
  C80      1.0000 0.41465  0.29760  0.78761  Biso   1.000  C
  O64      1.0000 0.64770  0.28021  0.81752  Biso   1.000  O
  O65      1.0000 0.17764  0.33751  0.76450  Biso   1.000  O
  C81      1.0000 0.31237  0.50992  0.76462  Biso   1.000  C
  O66      1.0000 0.37365  0.22761  0.79441  Biso   1.000  O
  C82      1.0000 0.78745  0.25598  0.81242  Biso   1.000  C
  C83      1.0000 0.43002  0.55853  0.78330  Biso   1.000  C
  C84      1.0000 0.17615  0.51471  0.79369  Biso   1.000  C
  H29      1.0000 0.42468  0.21032  0.81692  Biso   1.000  H
  C85      1.0000 0.80314  0.19578  0.84790  Biso   1.000  C
  O67      1.0000 0.88929  0.30509  0.82581  Biso   1.000  O
  C86      1.0000 0.55802  0.55853  0.74399  Biso   1.000  C
  O68      1.0000 0.36949  0.62382  0.78492  Biso   1.000  O
  C87      1.0000 0.13505  0.58750  0.79662  Biso   1.000  C
  O69      1.0000 0.06117  0.47709  0.76873  Biso   1.000  O
  C88      1.0000 0.78285  0.21672  0.90582  Biso   1.000  C
  O70      1.0000 0.69926  0.14663  0.83549  Biso   1.000  O
  C89      1.0000 0.87637  0.33082  0.87911  Biso   1.000  C
  O71      1.0000 0.66702  0.60419  0.76150  Biso   1.000  O
  C90      1.0000 0.25003  0.63191  0.81681  Biso   1.000  C
  O72      1.0000 0.00224  0.59499  0.82712  Biso   1.000  O
  H30      1.0000 0.09149  0.45861  0.74202  Biso   1.000  H
  C91      1.0000 0.88609  0.27342  0.91913  Biso   1.000  C
  O73      1.0000 0.81392  0.15971  0.93790  Biso   1.000  O
  H31      1.0000 0.70973  0.11430  0.85501  Biso   1.000  H
  C92      1.0000 0.99306  0.38292  0.88480  Biso   1.000  C
  H32      1.0000 0.63286  0.64180  0.76391  Biso   1.000  H
  O74      1.0000 0.27597  0.60968  0.87022  Biso   1.000  O
  H33      1.0000 0.01420  0.62252  0.85062  Biso   1.000  H
  O75      1.0000 0.84275  0.29960  0.96950  Biso   1.000  O
  H34      1.0000 0.80389  0.16951  0.96922  Biso   1.000  H
  O76      1.0000 0.13206  0.35550  0.87453  Biso   1.000  O
  C93      1.0000 0.29465  0.65899  0.91040  Biso   1.000  C
  C94      1.0000 0.93691  0.29130  0.01260  Biso   1.000  C
  C95      1.0000 0.45180  0.66459  0.92612  Biso   1.000  C
  C96      1.0000 0.19825  0.63161  0.95579  Biso   1.000  C
  C97      1.0000 0.84958  0.27082  0.06068  Biso   1.000  C
  O77      1.0000 0.01132  0.35160  0.02299  Biso   1.000  O
  C98      1.0000 0.54500  0.69911  0.88472  Biso   1.000  C
  O78      1.0000 0.46920  0.70110  0.97302  Biso   1.000  O
  O79      1.0000 0.05583  0.63891  0.94141  Biso   1.000  O
  C99      1.0000 0.23433  0.67393  0.00549  Biso   1.000  C
  C100     1.0000 0.74923  0.32742  0.07542  Biso   1.000  C
  O80      1.0000 0.77976  0.21252  0.04761  Biso   1.000  O
  C101     1.0000 0.92175  0.40900  0.03350  Biso   1.000  C
  O81      1.0000 0.50966  0.76830  0.87800  Biso   1.000  O
  C102     1.0000 0.39372  0.67223  0.01620  Biso   1.000  C
  H35      1.0000 0.03939  0.61603  0.91522  Biso   1.000  H
  O82      1.0000 0.15971  0.64760  0.05132  Biso   1.000  O
  O83      1.0000 0.68176  0.31178  0.12500  Biso   1.000  O
  C103     1.0000 0.82364  0.39451  0.07929  Biso   1.000  C
  H36      1.0000 0.73182  0.19988  0.07281  Biso   1.000  H
  C104     1.0000 0.02605  0.46680  0.04172  Biso   1.000  C
  H37      1.0000 0.42618  0.77159  0.86860  Biso   1.000  H
  O84      1.0000 0.43461  0.60579  0.02548  Biso   1.000  O
  H38      1.0000 0.21789  0.63701  0.07400  Biso   1.000  H
  H39      1.0000 0.64183  0.27542  0.12271  Biso   1.000  H
  O85      1.0000 0.70855  0.44232  0.07988  Biso   1.000  O
  O86      1.0000 0.11562  0.45331  0.08672  Biso   1.000  O
  C105     1.0000 0.51671  0.59030  0.07009  Biso   1.000  C
  C106     1.0000 0.70642  0.49463  0.11880  Biso   1.000  C
  H40      1.0000 0.17135  0.48449  0.09098  Biso   1.000  H
  C107     1.0000 0.45276  0.52770  0.09312  Biso   1.000  C
  C108     1.0000 0.67620  0.57561  0.05278  Biso   1.000  C
  C109     1.0000 0.54959  0.50082  0.13859  Biso   1.000  C
  O87      1.0000 0.75617  0.55423  0.09869  Biso   1.000  O
  O88      1.0000 0.31750  0.54419  0.11402  Biso   1.000  O
  C110     1.0000 0.75168  0.64130  0.03611  Biso   1.000  C
  O89      1.0000 0.50219  0.43823  0.15732  Biso   1.000  O
  H41      1.0000 0.30202  0.58410  0.10951  Biso   1.000  H
  O90      1.0000 0.79097  0.60998  0.98673  Biso   1.000  O
  C111     1.0000 0.74997  0.68951  0.08182  Biso   1.000  C
  H42      1.0000 0.56646  0.41060  0.15412  Biso   1.000  H
  O91      1.0000 0.26519  0.17890  0.31969  Biso   1.000  O
  C112     1.0000 0.25761  0.12719  0.27679  Biso   1.000  C
  C113     1.0000 0.11199  0.13129  0.24771  Biso   1.000  C
  C114     1.0000 0.07163  0.20218  0.22950  Biso   1.000  C
  O92      1.0000 0.01676  0.10801  0.28872  Biso   1.000  O
  O93      1.0000 0.14765  0.21981  0.18248  Biso   1.000  O
  C115     1.0000 0.91470  0.20238  0.21239  Biso   1.000  C
  C116     1.0000 0.87050  0.10071  0.27102  Biso   1.000  C
  C117     1.0000 0.28750  0.24399  0.18762  Biso   1.000  C
  C118     1.0000 0.82086  0.17080  0.25399  Biso   1.000  C
  O94      1.0000 0.87371  0.27242  0.20559  Biso   1.000  O
  O95      1.0000 0.86282  0.05950  0.22701  Biso   1.000  O
  C119     1.0000 0.30319  0.30419  0.15210  Biso   1.000  C
  O96      1.0000 0.38924  0.19488  0.17419  Biso   1.000  O
  O97      1.0000 0.67759  0.16251  0.23550  Biso   1.000  O
  H43      1.0000 0.92463  0.28970  0.18311  Biso   1.000  H
  C120     1.0000 0.81243  0.99011  0.23542  Biso   1.000  C
  C121     1.0000 0.28291  0.28331  0.09418  Biso   1.000  C
  O98      1.0000 0.19932  0.35340  0.16451  Biso   1.000  O
  C122     1.0000 0.37643  0.16921  0.12089  Biso   1.000  C
  C123     1.0000 0.92997  0.94150  0.21670  Biso   1.000  C
  C124     1.0000 0.67620  0.98531  0.20631  Biso   1.000  C
  C125     1.0000 0.38604  0.22661  0.08091  Biso   1.000  C
  O99      1.0000 0.31387  0.34031  0.06210  Biso   1.000  O
  H44      1.0000 0.20967  0.38572  0.14499  Biso   1.000  H
  C126     1.0000 0.49311  0.11710  0.11520  Biso   1.000  C
  O100     1.0000 0.86944  0.87621  0.21512  Biso   1.000  O
  C127     1.0000 0.05797  0.94150  0.25601  Biso   1.000  C
  C128     1.0000 0.63500  0.91252  0.20342  Biso   1.000  C
  O101     1.0000 0.56123  0.02288  0.23131  Biso   1.000  O
  O102     1.0000 0.34280  0.20038  0.03050  Biso   1.000  O
  H45      1.0000 0.30394  0.33052  0.03082  Biso   1.000  H
  O103     1.0000 0.63211  0.14448  0.12551  Biso   1.000  O
  C129     1.0000 0.74997  0.86811  0.18319  Biso   1.000  C
  O104     1.0000 0.16697  0.89579  0.23850  Biso   1.000  O
  O105     1.0000 0.50219  0.90503  0.17288  Biso   1.000  O
  H46      1.0000 0.59144  0.04141  0.25802  Biso   1.000  H
  C130     1.0000 0.43685  0.20872  0.98740  Biso   1.000  C
  O106     1.0000 0.77602  0.89029  0.12982  Biso   1.000  O
  H47      1.0000 0.13291  0.85822  0.23609  Biso   1.000  H
  H48      1.0000 0.51415  0.87750  0.14942  Biso   1.000  H
  C131     1.0000 0.34963  0.22921  0.93932  Biso   1.000  C
  O107     1.0000 0.51126  0.14842  0.97701  Biso   1.000  O
  C132     1.0000 0.79470  0.84099  0.08960  Biso   1.000  C
  C133     1.0000 0.24928  0.17260  0.92462  Biso   1.000  C
  O108     1.0000 0.27981  0.28751  0.95239  Biso   1.000  O
  C134     1.0000 0.42180  0.09102  0.96650  Biso   1.000  C
  C135     1.0000 0.95175  0.83539  0.07392  Biso   1.000  C
  C136     1.0000 0.69830  0.86841  0.04421  Biso   1.000  C
  O109     1.0000 0.18181  0.18819  0.87500  Biso   1.000  O
  C137     1.0000 0.32369  0.10551  0.92071  Biso   1.000  C
  H49      1.0000 0.23188  0.30009  0.92723  Biso   1.000  H
  C138     1.0000 0.52610  0.03322  0.95832  Biso   1.000  C
  O110     1.0000 0.96915  0.79892  0.02698  Biso   1.000  O
  C139     1.0000 0.04505  0.80092  0.11532  Biso   1.000  C
  C140     1.0000 0.73428  0.82610  0.99451  Biso   1.000  C
  O111     1.0000 0.55578  0.86112  0.05859  Biso   1.000  O
  H50      1.0000 0.14188  0.22461  0.87729  Biso   1.000  H
  O112     1.0000 0.20860  0.05770  0.92012  Biso   1.000  O
  O113     1.0000 0.61557  0.04671  0.91332  Biso   1.000  O
  C141     1.0000 0.89367  0.82780  0.98380  Biso   1.000  C
  O114     1.0000 0.00971  0.73173  0.12200  Biso   1.000  O
  O115     1.0000 0.65966  0.85243  0.94872  Biso   1.000  O
  H51      1.0000 0.53934  0.88400  0.08478  Biso   1.000  H
  C142     1.0000 0.20636  0.00540  0.88120  Biso   1.000  C
  H52      1.0000 0.67129  0.01549  0.90902  Biso   1.000  H
  O116     1.0000 0.93456  0.89419  0.97452  Biso   1.000  O
  H53      1.0000 0.92612  0.72843  0.13140  Biso   1.000  H
  H54      1.0000 0.71784  0.86302  0.92600  Biso   1.000  H
  C143     1.0000 0.04964  0.99920  0.86141  Biso   1.000  C
  O117     1.0000 0.25622  0.94580  0.90131  Biso   1.000  O
  C144     1.0000 0.01665  0.90973  0.92991  Biso   1.000  C
  C145     1.0000 0.95281  0.97232  0.90692  Biso   1.000  C
  O118     1.0000 0.00224  0.06180  0.84272  Biso   1.000  O
  C146     1.0000 0.17615  0.92441  0.94722  Biso   1.000  C
  O119     1.0000 0.81744  0.95579  0.88602  Biso   1.000  O
  H55      1.0000 0.06651  0.08942  0.84592  Biso   1.000  H
  C147     1.0000 0.25173  0.85872  0.96393  Biso   1.000  C
  H56      1.0000 0.80196  0.91592  0.89053  Biso   1.000  H
  C148     1.0000 0.25003  0.81051  0.91822  Biso   1.000  C
  O120     1.0000 0.29102  0.88999  0.01331  Biso   1.000  O
