data_image0
_cell_length_a       11.354
_cell_length_b       12.019
_cell_length_c       13.023
_cell_angle_alpha    102.23
_cell_angle_beta     92.96
_cell_angle_gamma    100

_symmetry_space_group_name_H-M    "P 1"
_symmetry_int_tables_number       1

loop_
  _symmetry_equiv_pos_as_xyz
  'x, y, z'

loop_
  _atom_site_label
  _atom_site_occupancy
  _atom_site_fract_x
  _atom_site_fract_y
  _atom_site_fract_z
  _atom_site_thermal_displace_type
  _atom_site_B_iso_or_equiv
  _atom_site_type_symbol
  N1       1.0000 0.76453  0.77073  0.75369  Biso   1.000  N
  C1       1.0000 0.65430  0.76020  0.79456  Biso   1.000  C
  C2       1.0000 0.82356  0.68902  0.77863  Biso   1.000  C
  C3       1.0000 0.56961  0.83191  0.77941  Biso   1.000  C
  C4       1.0000 0.64533  0.66926  0.84648  Biso   1.000  C
  C5       1.0000 0.75163  0.62331  0.83591  Biso   1.000  C
  H1       1.0000 0.90131  0.67866  0.75993  Biso   1.000  H
  C6       1.0000 0.45520  0.80934  0.83007  Biso   1.000  C
  C7       1.0000 0.58584  0.91633  0.72300  Biso   1.000  C
  H2       1.0000 0.57928  0.64279  0.88270  Biso   1.000  H
  C8       1.0000 0.77632  0.51723  0.87268  Biso   1.000  C
  C9       1.0000 0.34803  0.75149  0.77192  Biso   1.000  C
  C10      1.0000 0.45173  0.84214  0.93872  Biso   1.000  C
  N2       1.0000 0.69027  0.94116  0.67226  Biso   1.000  N
  C11      1.0000 0.50708  0.99586  0.70769  Biso   1.000  C
  C12      1.0000 0.74834  0.52907  0.98646  Biso   1.000  C
  C13      1.0000 0.90781  0.50437  0.86337  Biso   1.000  C
  C14      1.0000 0.69340  0.40840  0.80380  Biso   1.000  C
  F1       1.0000 0.34497  0.71300  0.66729  Biso   1.000  F
  C15      1.0000 0.24216  0.72961  0.81887  Biso   1.000  C
  F2       1.0000 0.55279  0.89789  0.99995  Biso   1.000  F
  C16      1.0000 0.34770  0.81989  0.98685  Biso   1.000  C
  H3       1.0000 0.75181  0.90534  0.66990  Biso   1.000  H
  C17      1.0000 0.67844  0.02820  0.62918  Biso   1.000  C
  H4       1.0000 0.43059  0.99845  0.73326  Biso   1.000  H
  C18      1.0000 0.56484  0.06581  0.64946  Biso   1.000  C
  N3       1.0000 0.82242  0.60197  0.06686  Biso   1.000  N
  C19      1.0000 0.64857  0.47560  0.02930  Biso   1.000  C
  H5       1.0000 0.92199  0.43725  0.89027  Biso   1.000  H
  H6       1.0000 0.92442  0.49315  0.78912  Biso   1.000  H
  H7       1.0000 0.96084  0.57452  0.90456  Biso   1.000  H
  H8       1.0000 0.70777  0.33942  0.82762  Biso   1.000  H
  H9       1.0000 0.60945  0.41587  0.81011  Biso   1.000  H
  H10      1.0000 0.71074  0.40098  0.72986  Biso   1.000  H
  F3       1.0000 0.14008  0.67431  0.76008  Biso   1.000  F
  C20      1.0000 0.24253  0.76349  0.92673  Biso   1.000  C
  F4       1.0000 0.34858  0.85268  0.09172  Biso   1.000  F
  C21      1.0000 0.77683  0.08129  0.57008  Biso   1.000  C
  H11      1.0000 0.53672  0.12723  0.62650  Biso   1.000  H
  H12      1.0000 0.89061  0.64596  0.05992  Biso   1.000  H
  C22      1.0000 0.77435  0.59638  0.16170  Biso   1.000  C
  H13      1.0000 0.58207  0.42097  0.99072  Biso   1.000  H
  C23      1.0000 0.66471  0.51674  0.13851  Biso   1.000  C
  F5       1.0000 0.14173  0.74049  0.97360  Biso   1.000  F
  C24      1.0000 0.81793  0.98368  0.49189  Biso   1.000  C
  C25      1.0000 0.88210  0.14931  0.64788  Biso   1.000  C
  C26      1.0000 0.73106  0.16435  0.50917  Biso   1.000  C
  C27      1.0000 0.83396  0.65773  0.26104  Biso   1.000  C
  H14      1.0000 0.61161  0.49508  0.18806  Biso   1.000  H
  H15      1.0000 0.75049  0.94138  0.44060  Biso   1.000  H
  H16      1.0000 0.84648  0.93015  0.53039  Biso   1.000  H
  H17      1.0000 0.88343  0.01703  0.45480  Biso   1.000  H
  C28      1.0000 0.89129  0.16889  0.76150  Biso   1.000  C
  C29      1.0000 0.98685  0.21059  0.62468  Biso   1.000  C
  H18      1.0000 0.65929  0.12292  0.46246  Biso   1.000  H
  H19      1.0000 0.79370  0.19284  0.46711  Biso   1.000  H
  H20      1.0000 0.71086  0.22994  0.55927  Biso   1.000  H
  C30      1.0000 0.94349  0.73283  0.27714  Biso   1.000  C
  C31      1.0000 0.77318  0.63436  0.35573  Biso   1.000  C
  N4       1.0000 0.99288  0.23806  0.80624  Biso   1.000  N
  H21      1.0000 0.83093  0.13579  0.79993  Biso   1.000  H
  H22      1.0000 0.00930  0.21490  0.55619  Biso   1.000  H
  C32      1.0000 0.05649  0.26699  0.72284  Biso   1.000  C
  N5       1.0000 0.00712  0.76185  0.19374  Biso   1.000  N
  C33      1.0000 0.01314  0.78925  0.37538  Biso   1.000  C
  C34      1.0000 0.81585  0.56850  0.41956  Biso   1.000  C
  C35      1.0000 0.66908  0.67554  0.38122  Biso   1.000  C
  C36      1.0000 0.16604  0.34218  0.73894  Biso   1.000  C
  C37      1.0000 0.10880  0.83103  0.23856  Biso   1.000  C
  H23      1.0000 0.99068  0.78492  0.44379  Biso   1.000  H
  C38      1.0000 0.11788  0.85053  0.35218  Biso   1.000  C
  F6       1.0000 0.91663  0.52711  0.39976  Biso   1.000  F
  C39      1.0000 0.75570  0.54143  0.50367  Biso   1.000  C
  F7       1.0000 0.62354  0.74035  0.32267  Biso   1.000  F
  C40      1.0000 0.60921  0.65162  0.46612  Biso   1.000  C
  C41      1.0000 0.22563  0.40344  0.83828  Biso   1.000  C
  C42      1.0000 0.22689  0.36546  0.64425  Biso   1.000  C
  H24      1.0000 0.16905  0.86405  0.20013  Biso   1.000  H
  C43      1.0000 0.22316  0.91855  0.42998  Biso   1.000  C
  F8       1.0000 0.79779  0.47478  0.56159  Biso   1.000  F
  C44      1.0000 0.65183  0.58339  0.52616  Biso   1.000  C
  F9       1.0000 0.50846  0.69238  0.48853  Biso   1.000  F
  N6       1.0000 0.17766  0.39794  0.93312  Biso   1.000  N
  C45      1.0000 0.33537  0.48317  0.86147  Biso   1.000  C
  C46      1.0000 0.18423  0.43141  0.58042  Biso   1.000  C
  C47      1.0000 0.33099  0.32430  0.61884  Biso   1.000  C
  C48      1.0000 0.32165  0.97173  0.37088  Biso   1.000  C
  C49      1.0000 0.26902  0.83556  0.49081  Biso   1.000  C
  C50      1.0000 0.18200  0.01633  0.50817  Biso   1.000  C
  F10      1.0000 0.59134  0.55544  0.60570  Biso   1.000  F
  H25      1.0000 0.10946  0.35386  0.94006  Biso   1.000  H
  C51      1.0000 0.25157  0.47083  0.01352  Biso   1.000  C
  H26      1.0000 0.38839  0.50484  0.81200  Biso   1.000  H
  C52      1.0000 0.35152  0.52430  0.97068  Biso   1.000  C
  F11      1.0000 0.08343  0.47271  0.60022  Biso   1.000  F
  C53      1.0000 0.24429  0.45841  0.49639  Biso   1.000  C
  F12      1.0000 0.37654  0.25950  0.67739  Biso   1.000  F
  C54      1.0000 0.39087  0.34822  0.53394  Biso   1.000  C
  C55      1.0000 0.43516  0.93410  0.35052  Biso   1.000  C
  N7       1.0000 0.30963  0.05875  0.32772  Biso   1.000  N
  H27      1.0000 0.34070  0.87699  0.53752  Biso   1.000  H
  H28      1.0000 0.20630  0.80709  0.53295  Biso   1.000  H
  H29      1.0000 0.28922  0.76997  0.44071  Biso   1.000  H
  H30      1.0000 0.11664  0.98281  0.54526  Biso   1.000  H
  H31      1.0000 0.24953  0.05864  0.55946  Biso   1.000  H
  H32      1.0000 0.15352  0.06984  0.46959  Biso   1.000  H
  C56      1.0000 0.22360  0.48276  0.12730  Biso   1.000  C
  H33      1.0000 0.41795  0.57904  0.00934  Biso   1.000  H
  F13      1.0000 0.20228  0.52505  0.43839  Biso   1.000  F
  C57      1.0000 0.34816  0.41652  0.47382  Biso   1.000  C
  F14      1.0000 0.49154  0.30754  0.51154  Biso   1.000  F
  H34      1.0000 0.46328  0.87270  0.37356  Biso   1.000  H
  C58      1.0000 0.49284  0.00407  0.29237  Biso   1.000  C
  H35      1.0000 0.24821  0.09467  0.33016  Biso   1.000  H
  C59      1.0000 0.41417  0.08368  0.27706  Biso   1.000  C
  C60      1.0000 0.24830  0.37670  0.16415  Biso   1.000  C
  C61      1.0000 0.09212  0.49564  0.13669  Biso   1.000  C
  C62      1.0000 0.30651  0.59153  0.19626  Biso   1.000  C
  F15      1.0000 0.40865  0.44440  0.39436  Biso   1.000  F
  H36      1.0000 0.56942  0.00155  0.26673  Biso   1.000  H
  C63      1.0000 0.43038  0.16800  0.22057  Biso   1.000  C
  C64      1.0000 0.17637  0.31097  0.22136  Biso   1.000  C
  C65      1.0000 0.35458  0.33065  0.15350  Biso   1.000  C
  H37      1.0000 0.07793  0.56274  0.10971  Biso   1.000  H
  H38      1.0000 0.07559  0.50686  0.21094  Biso   1.000  H
  H39      1.0000 0.03917  0.42548  0.09543  Biso   1.000  H
  H40      1.0000 0.29224  0.66050  0.17244  Biso   1.000  H
  H41      1.0000 0.39056  0.58414  0.18995  Biso   1.000  H
  H42      1.0000 0.28927  0.59902  0.27012  Biso   1.000  H
  C66      1.0000 0.34563  0.23981  0.20550  Biso   1.000  C
  C67      1.0000 0.54481  0.19065  0.16991  Biso   1.000  C
  N8       1.0000 0.23540  0.22926  0.24629  Biso   1.000  N
  H43      1.0000 0.09871  0.32135  0.24014  Biso   1.000  H
  H44      1.0000 0.42063  0.35713  0.11736  Biso   1.000  H
  C68      1.0000 0.54828  0.15785  0.06126  Biso   1.000  C
  C69      1.0000 0.65197  0.24844  0.22814  Biso   1.000  C
  F16      1.0000 0.44714  0.10213  0.00011  Biso   1.000  F
  C70      1.0000 0.65230  0.18004  0.01321  Biso   1.000  C
  F17      1.0000 0.65495  0.28699  0.33269  Biso   1.000  F
  C71      1.0000 0.75776  0.27031  0.18119  Biso   1.000  C
  F18      1.0000 0.65141  0.14716  0.90834  Biso   1.000  F
  C72      1.0000 0.75738  0.23642  0.07325  Biso   1.000  C
  F19      1.0000 0.85993  0.32569  0.23990  Biso   1.000  F
  F20      1.0000 0.85818  0.25943  0.02646  Biso   1.000  F
