data_image0
_cell_length_a       17.958
_cell_length_b       15.407
_cell_length_c       15.296
_cell_angle_alpha    102.54
_cell_angle_beta     113.43
_cell_angle_gamma    99.39

_symmetry_space_group_name_H-M    "P 1"
_symmetry_int_tables_number       1

loop_
  _symmetry_equiv_pos_as_xyz
  'x, y, z'

loop_
  _atom_site_label
  _atom_site_occupancy
  _atom_site_fract_x
  _atom_site_fract_y
  _atom_site_fract_z
  _atom_site_thermal_displace_type
  _atom_site_B_iso_or_equiv
  _atom_site_type_symbol
  C1       1.0000 0.35258  0.64255  0.21070  Biso   1.000  C
  C2       1.0000 0.32478  0.60233  0.09853  Biso   1.000  C
  H1       1.0000 0.36304  0.59345  0.24377  Biso   1.000  H
  C3       1.0000 0.28046  0.67726  0.22180  Biso   1.000  C
  O1       1.0000 0.42644  0.71867  0.25689  Biso   1.000  O
  C4       1.0000 0.24228  0.52647  0.04956  Biso   1.000  C
  H2       1.0000 0.31544  0.65287  0.06748  Biso   1.000  H
  O2       1.0000 0.38769  0.56729  0.08008  Biso   1.000  O
  C5       1.0000 0.20028  0.59827  0.17178  Biso   1.000  C
  H3       1.0000 0.27115  0.72750  0.19016  Biso   1.000  H
  O3       1.0000 0.30427  0.71315  0.32760  Biso   1.000  O
  H4       1.0000 0.46896  0.69898  0.26529  Biso   1.000  H
  O4       1.0000 0.25405  0.45051  0.08578  Biso   1.000  O
  O5       1.0000 0.17856  0.55959  0.06658  Biso   1.000  O
  H5       1.0000 0.22351  0.50503  0.97571  Biso   1.000  H
  H6       1.0000 0.38705  0.51627  0.09140  Biso   1.000  H
  H7       1.0000 0.20920  0.54921  0.20523  Biso   1.000  H
  C6       1.0000 0.12654  0.62950  0.17561  Biso   1.000  C
  C7       1.0000 0.30226  0.80620  0.36179  Biso   1.000  C
  C8       1.0000 0.23516  0.36332  0.01410  Biso   1.000  C
  H8       1.0000 0.07438  0.57755  0.13497  Biso   1.000  H
  H9       1.0000 0.13476  0.64710  0.24572  Biso   1.000  H
  O6       1.0000 0.11665  0.70582  0.13902  Biso   1.000  O
  H10      1.0000 0.29587  0.83620  0.30848  Biso   1.000  H
  C9       1.0000 0.38603  0.85698  0.45462  Biso   1.000  C
  O7       1.0000 0.23524  0.80908  0.38781  Biso   1.000  O
  C10      1.0000 0.30959  0.32309  0.05219  Biso   1.000  C
  C11      1.0000 0.15297  0.29961  0.99753  Biso   1.000  C
  H11      1.0000 0.22792  0.37343  0.94909  Biso   1.000  H
  H12      1.0000 0.16398  0.74456  0.16279  Biso   1.000  H
  H13      1.0000 0.38493  0.92199  0.48026  Biso   1.000  H
  C12      1.0000 0.39670  0.81273  0.53567  Biso   1.000  C
  O8       1.0000 0.45523  0.86035  0.42837  Biso   1.000  O
  C13      1.0000 0.23666  0.76946  0.46459  Biso   1.000  C
  C14      1.0000 0.28737  0.22645  0.98313  Biso   1.000  C
  H14      1.0000 0.32138  0.31995  0.12087  Biso   1.000  H
  O9       1.0000 0.38217  0.38065  0.05676  Biso   1.000  O
  O10      1.0000 0.13842  0.20553  0.93919  Biso   1.000  O
  H15      1.0000 0.15666  0.29937  0.06441  Biso   1.000  H
  C15      1.0000 0.07584  0.32864  0.94226  Biso   1.000  C
  H16      1.0000 0.39886  0.74774  0.51168  Biso   1.000  H
  C16      1.0000 0.32165  0.81089  0.55899  Biso   1.000  C
  O11      1.0000 0.47151  0.86203  0.62520  Biso   1.000  O
  H17      1.0000 0.45056  0.80730  0.39441  Biso   1.000  H
  H18      1.0000 0.22784  0.70125  0.43880  Biso   1.000  H
  C17      1.0000 0.16304  0.78500  0.48431  Biso   1.000  C
  C18      1.0000 0.20575  0.16724  0.97623  Biso   1.000  C
  O12      1.0000 0.35280  0.18503  0.01110  Biso   1.000  O
  H19      1.0000 0.27474  0.23104  0.91467  Biso   1.000  H
  H20      1.0000 0.38235  0.43631  0.07438  Biso   1.000  H
  H21      1.0000 0.02445  0.28176  0.92862  Biso   1.000  H
  H22      1.0000 0.07763  0.38844  0.98433  Biso   1.000  H
  O13      1.0000 0.07256  0.33777  0.85004  Biso   1.000  O
  H23      1.0000 0.32523  0.87516  0.59446  Biso   1.000  H
  O14      1.0000 0.32701  0.75483  0.62348  Biso   1.000  O
  H24      1.0000 0.47130  0.84152  0.67169  Biso   1.000  H
  H25      1.0000 0.11026  0.75925  0.42065  Biso   1.000  H
  H26      1.0000 0.15786  0.75175  0.53110  Biso   1.000  H
  O15      1.0000 0.17402  0.88273  0.52698  Biso   1.000  O
  O16      1.0000 0.22479  0.16490  0.07468  Biso   1.000  O
  H27      1.0000 0.19095  0.10292  0.93102  Biso   1.000  H
  H28      1.0000 0.35127  0.14995  0.95958  Biso   1.000  H
  H29      1.0000 0.07855  0.39340  0.85198  Biso   1.000  H
  C19      1.0000 0.32450  0.79050  0.71526  Biso   1.000  C
  H30      1.0000 0.14704  0.90369  0.48139  Biso   1.000  H
  C20      1.0000 0.21149  0.07740  0.09163  Biso   1.000  C
  H31      1.0000 0.32511  0.85701  0.72508  Biso   1.000  H
  C21      1.0000 0.40319  0.78560  0.80066  Biso   1.000  C
  O17      1.0000 0.25244  0.74365  0.71751  Biso   1.000  O
  C22      1.0000 0.29435  0.07818  0.17666  Biso   1.000  C
  H32      1.0000 0.19680  0.02641  0.02939  Biso   1.000  H
  C23      1.0000 0.13909  0.06502  0.12222  Biso   1.000  C
  C24      1.0000 0.40161  0.68335  0.78597  Biso   1.000  C
  H33      1.0000 0.40219  0.81234  0.86575  Biso   1.000  H
  O18      1.0000 0.47882  0.83499  0.80314  Biso   1.000  O
  C25      1.0000 0.24342  0.64582  0.70124  Biso   1.000  C
  H34      1.0000 0.31350  0.13540  0.23470  Biso   1.000  H
  O19      1.0000 0.35691  0.07932  0.13992  Biso   1.000  O
  C26      1.0000 0.28066  0.99423  0.20958  Biso   1.000  C
  H35      1.0000 0.14980  0.12226  0.17621  Biso   1.000  H
  C27      1.0000 0.05436  0.04867  0.03517  Biso   1.000  C
  O20      1.0000 0.13414  0.98688  0.15979  Biso   1.000  O
  C28      1.0000 0.32124  0.63222  0.78387  Biso   1.000  C
  H36      1.0000 0.40353  0.65600  0.72156  Biso   1.000  H
  O21      1.0000 0.47232  0.67545  0.86830  Biso   1.000  O
  H37      1.0000 0.47355  0.82464  0.74450  Biso   1.000  H
  H38      1.0000 0.23847  0.61577  0.63360  Biso   1.000  H
  C29      1.0000 0.16233  0.60614  0.70738  Biso   1.000  C
  H39      1.0000 0.40417  0.11280  0.18588  Biso   1.000  H
  C30      1.0000 0.20946  0.99214  0.24189  Biso   1.000  C
  H40      1.0000 0.26156  0.93829  0.15049  Biso   1.000  H
  O22      1.0000 0.35667  0.99023  0.28718  Biso   1.000  O
  H41      1.0000 0.05548  0.10023  0.00630  Biso   1.000  H
  O23      1.0000 0.99129  0.04291  0.06868  Biso   1.000  O
  H42      1.0000 0.04141  0.99039  0.98238  Biso   1.000  H
  O24      1.0000 0.31652  0.53593  0.76107  Biso   1.000  O
  H43      1.0000 0.32190  0.65551  0.85068  Biso   1.000  H
  H44      1.0000 0.51480  0.71964  0.88584  Biso   1.000  H
  H45      1.0000 0.15557  0.53975  0.70139  Biso   1.000  H
  H46      1.0000 0.16701  0.63850  0.77344  Biso   1.000  H
  O25      1.0000 0.09104  0.61594  0.63098  Biso   1.000  O
  O26      1.0000 0.23518  0.07278  0.32347  Biso   1.000  O
  H47      1.0000 0.20095  0.93634  0.26401  Biso   1.000  H
  H48      1.0000 0.36017  0.01680  0.34342  Biso   1.000  H
  H49      1.0000 0.95988  0.07559  0.04596  Biso   1.000  H
  C31      1.0000 0.30803  0.48874  0.82736  Biso   1.000  C
  H50      1.0000 0.04843  0.59967  0.64027  Biso   1.000  H
  C32      1.0000 0.23468  0.06034  0.41495  Biso   1.000  C
  C33      1.0000 0.37893  0.44362  0.85870  Biso   1.000  C
  O27      1.0000 0.22926  0.42225  0.78304  Biso   1.000  O
  H51      1.0000 0.31332  0.53474  0.88824  Biso   1.000  H
  C34      1.0000 0.32227  0.11328  0.49908  Biso   1.000  C
  C35      1.0000 0.16759  0.09885  0.43310  Biso   1.000  C
  H52      1.0000 0.22314  0.99311  0.40948  Biso   1.000  H
  C36      1.0000 0.37181  0.37422  0.76655  Biso   1.000  C
  H53      1.0000 0.37153  0.40892  0.90414  Biso   1.000  H
  O28      1.0000 0.45960  0.50869  0.91134  Biso   1.000  O
  C37      1.0000 0.21402  0.35071  0.69396  Biso   1.000  C
  C38      1.0000 0.32156  0.10518  0.59671  Biso   1.000  C
  H54      1.0000 0.33434  0.17976  0.50216  Biso   1.000  H
  O29      1.0000 0.38348  0.07554  0.48266  Biso   1.000  O
  H55      1.0000 0.17354  0.16314  0.42837  Biso   1.000  H
  C39      1.0000 0.07961  0.03921  0.36321  Biso   1.000  C
  O30      1.0000 0.17438  0.09855  0.53088  Biso   1.000  O
  C40      1.0000 0.28493  0.30391  0.71698  Biso   1.000  C
  H56      1.0000 0.37754  0.40682  0.71886  Biso   1.000  H
  O31      1.0000 0.43645  0.32840  0.79549  Biso   1.000  O
  H57      1.0000 0.47625  0.51913  0.97327  Biso   1.000  H
  H58      1.0000 0.21193  0.37965  0.64065  Biso   1.000  H
  C41      1.0000 0.12892  0.28494  0.65947  Biso   1.000  C
  C42      1.0000 0.25398  0.14473  0.61298  Biso   1.000  C
  H59      1.0000 0.30869  0.03825  0.59229  Biso   1.000  H
  O32      1.0000 0.40214  0.15346  0.68017  Biso   1.000  O
  H60      1.0000 0.43188  0.10784  0.52705  Biso   1.000  H
  H61      1.0000 0.03870  0.07084  0.37371  Biso   1.000  H
  H62      1.0000 0.07017  0.03025  0.29318  Biso   1.000  H
  O33      1.0000 0.06394  0.94753  0.37866  Biso   1.000  O
  O34      1.0000 0.27547  0.24135  0.62595  Biso   1.000  O
  H63      1.0000 0.28196  0.26805  0.76317  Biso   1.000  H
  H64      1.0000 0.42518  0.28133  0.74780  Biso   1.000  H
  H65      1.0000 0.08601  0.31973  0.64845  Biso   1.000  H
  H66      1.0000 0.11350  0.23859  0.59461  Biso   1.000  H
  O35      1.0000 0.12764  0.23751  0.73085  Biso   1.000  O
  H67      1.0000 0.25266  0.13542  0.67507  Biso   1.000  H
  H68      1.0000 0.39696  0.19665  0.71938  Biso   1.000  H
  H69      1.0000 0.10042  0.92171  0.37326  Biso   1.000  H
  H70      1.0000 0.15398  0.19737  0.72920  Biso   1.000  H
  C43      1.0000 0.64901  0.71496  0.34327  Biso   1.000  C
  C44      1.0000 0.72094  0.68750  0.32580  Biso   1.000  C
  C45      1.0000 0.67513  0.82127  0.38811  Biso   1.000  C
  H71      1.0000 0.63903  0.68574  0.39148  Biso   1.000  H
  O36      1.0000 0.57359  0.68637  0.25142  Biso   1.000  O
  O37      1.0000 0.69895  0.58777  0.28876  Biso   1.000  O
  H72      1.0000 0.72947  0.71439  0.27541  Biso   1.000  H
  C46      1.0000 0.80235  0.72338  0.42538  Biso   1.000  C
  C47      1.0000 0.75747  0.85270  0.48341  Biso   1.000  C
  H73      1.0000 0.68304  0.84989  0.33847  Biso   1.000  H
  O38      1.0000 0.61204  0.84966  0.40925  Biso   1.000  O
  H74      1.0000 0.57488  0.72520  0.22060  Biso   1.000  H
  C48      1.0000 0.69676  0.54740  0.19390  Biso   1.000  C
  H75      1.0000 0.79424  0.69518  0.47509  Biso   1.000  H
  C49      1.0000 0.87837  0.70206  0.41120  Biso   1.000  C
  O39      1.0000 0.82255  0.82205  0.46332  Biso   1.000  O
  H76      1.0000 0.77511  0.92189  0.50988  Biso   1.000  H
  O40      1.0000 0.74581  0.81623  0.55629  Biso   1.000  O
  H77      1.0000 0.63265  0.90318  0.45079  Biso   1.000  H
  C50      1.0000 0.61137  0.47572  0.12859  Biso   1.000  C
  O41      1.0000 0.76367  0.50770  0.20500  Biso   1.000  O
  H78      1.0000 0.70149  0.59678  0.16181  Biso   1.000  H
  H79      1.0000 0.93076  0.73406  0.47441  Biso   1.000  H
  H80      1.0000 0.87187  0.63468  0.39651  Biso   1.000  H
  O42      1.0000 0.88605  0.72996  0.33390  Biso   1.000  O
  C51      1.0000 0.76564  0.88243  0.65130  Biso   1.000  C
  C52      1.0000 0.60387  0.40160  0.17441  Biso   1.000  C
  H81      1.0000 0.60844  0.44749  0.06156  Biso   1.000  H
  O43      1.0000 0.54445  0.51809  0.11442  Biso   1.000  O
  C53      1.0000 0.76238  0.43407  0.24887  Biso   1.000  C
  H82      1.0000 0.93243  0.77029  0.35699  Biso   1.000  H
  C54      1.0000 0.68942  0.85786  0.67199  Biso   1.000  C
  H83      1.0000 0.77452  0.94666  0.64635  Biso   1.000  H
  C55      1.0000 0.84590  0.87452  0.73288  Biso   1.000  C
  C56      1.0000 0.67774  0.35795  0.19008  Biso   1.000  C
  H84      1.0000 0.60457  0.42816  0.24047  Biso   1.000  H
  O44      1.0000 0.52669  0.32858  0.11037  Biso   1.000  O
  H85      1.0000 0.49816  0.47697  0.08698  Biso   1.000  H
  H86      1.0000 0.77123  0.46024  0.31928  Biso   1.000  H
  C57      1.0000 0.83609  0.39739  0.25149  Biso   1.000  C
  C58      1.0000 0.71025  0.91712  0.77509  Biso   1.000  C
  H87      1.0000 0.67693  0.79115  0.66877  Biso   1.000  H
  O45      1.0000 0.61786  0.87257  0.60031  Biso   1.000  O
  H88      1.0000 0.84050  0.80792  0.72868  Biso   1.000  H
  C59      1.0000 0.92362  0.91386  0.72396  Biso   1.000  C
  O46      1.0000 0.85769  0.92599  0.83043  Biso   1.000  O
  O47      1.0000 0.67329  0.29460  0.24407  Biso   1.000  O
  H89      1.0000 0.67266  0.32406  0.12350  Biso   1.000  H
  H90      1.0000 0.51795  0.29379  0.14269  Biso   1.000  H
  H91      1.0000 0.88864  0.44906  0.28681  Biso   1.000  H
  H92      1.0000 0.84237  0.35219  0.28921  Biso   1.000  H
  O48      1.0000 0.82390  0.35346  0.15161  Biso   1.000  O
  C60      1.0000 0.78924  0.90172  0.85308  Biso   1.000  C
  H93      1.0000 0.72269  0.98362  0.77779  Biso   1.000  H
  O49      1.0000 0.64032  0.89615  0.79826  Biso   1.000  O
  H94      1.0000 0.57786  0.82367  0.57279  Biso   1.000  H
  H95      1.0000 0.97442  0.91202  0.78117  Biso   1.000  H
  H96      1.0000 0.92151  0.87605  0.66135  Biso   1.000  H
  O50      1.0000 0.92903  0.00647  0.72321  Biso   1.000  O
  C61      1.0000 0.67918  0.20598  0.20748  Biso   1.000  C
  H97      1.0000 0.84291  0.39319  0.13032  Biso   1.000  H
  O51      1.0000 0.76843  0.80515  0.84370  Biso   1.000  O
  H98      1.0000 0.80320  0.94020  0.92213  Biso   1.000  H
  H99      1.0000 0.65879  0.90372  0.86005  Biso   1.000  H
  H100     1.0000 0.96355  0.02304  0.70169  Biso   1.000  H
  C62      1.0000 0.59819  0.13651  0.19008  Biso   1.000  C
  H101     1.0000 0.68097  0.19928  0.14187  Biso   1.000  H
  O52      1.0000 0.74929  0.18688  0.27211  Biso   1.000  O
  C63      1.0000 0.77720  0.78132  0.93173  Biso   1.000  C
  C64      1.0000 0.59677  0.14646  0.29078  Biso   1.000  C
  H102     1.0000 0.60059  0.07241  0.16301  Biso   1.000  H
  O53      1.0000 0.52498  0.15067  0.11967  Biso   1.000  O
  C65      1.0000 0.75496  0.19714  0.37206  Biso   1.000  C
  C66      1.0000 0.69711  0.71673  0.91186  Biso   1.000  C
  C67      1.0000 0.85009  0.73678  0.95985  Biso   1.000  C
  H103     1.0000 0.79129  0.83873  0.98744  Biso   1.000  H
  O54      1.0000 0.52210  0.07898  0.27481  Biso   1.000  O
  H104     1.0000 0.59406  0.21023  0.31875  Biso   1.000  H
  C68      1.0000 0.67528  0.13088  0.36149  Biso   1.000  C
  H105     1.0000 0.53430  0.20670  0.12237  Biso   1.000  H
  H106     1.0000 0.75868  0.26257  0.40468  Biso   1.000  H
  C69      1.0000 0.83606  0.17354  0.43205  Biso   1.000  C
  C70      1.0000 0.70949  0.68159  0.99944  Biso   1.000  C
  H107     1.0000 0.67949  0.66310  0.85075  Biso   1.000  H
  O55      1.0000 0.63181  0.76400  0.89484  Biso   1.000  O
  O56      1.0000 0.85494  0.69511  0.03776  Biso   1.000  O
  H108     1.0000 0.50236  0.10197  0.31290  Biso   1.000  H
  H109     1.0000 0.67547  0.06517  0.33727  Biso   1.000  H
  O57      1.0000 0.67758  0.14986  0.45859  Biso   1.000  O
  H110     1.0000 0.88513  0.21382  0.43235  Biso   1.000  H
  H111     1.0000 0.84556  0.18377  0.50238  Biso   1.000  H
  O58      1.0000 0.82656  0.07330  0.38361  Biso   1.000  O
  C71      1.0000 0.78029  0.63432  0.01969  Biso   1.000  C
  O59      1.0000 0.63364  0.62131  0.98587  Biso   1.000  O
  H112     1.0000 0.72794  0.73636  0.05973  Biso   1.000  H
  H113     1.0000 0.59252  0.73810  0.83658  Biso   1.000  H
  C72      1.0000 0.68298  0.07958  0.50358  Biso   1.000  C
  H114     1.0000 0.87195  0.06044  0.41278  Biso   1.000  H
  O60      1.0000 0.75441  0.55582  0.93316  Biso   1.000  O
  H115     1.0000 0.78938  0.61272  0.07930  Biso   1.000  H
  H116     1.0000 0.59802  0.60414  0.92528  Biso   1.000  H
  H117     1.0000 0.67744  0.02124  0.45447  Biso   1.000  H
  C73      1.0000 0.60968  0.06359  0.53170  Biso   1.000  C
  O61      1.0000 0.76057  0.10251  0.59086  Biso   1.000  O
  C74      1.0000 0.75182  0.46669  0.94853  Biso   1.000  C
  H118     1.0000 0.61238  0.01306  0.56349  Biso   1.000  H
  C75      1.0000 0.61885  0.15336  0.60616  Biso   1.000  C
  O62      1.0000 0.53126  0.03788  0.44345  Biso   1.000  O
  C76      1.0000 0.77576  0.18703  0.66719  Biso   1.000  C
  C77      1.0000 0.66427  0.40011  0.87669  Biso   1.000  C
  C78      1.0000 0.82130  0.43179  0.92806  Biso   1.000  C
  H119     1.0000 0.76297  0.47279  0.01939  Biso   1.000  H
  H120     1.0000 0.61605  0.20403  0.57467  Biso   1.000  H
  C79      1.0000 0.70326  0.17896  0.69816  Biso   1.000  C
  O63      1.0000 0.54912  0.13613  0.63135  Biso   1.000  O
  H121     1.0000 0.50945  0.98044  0.42515  Biso   1.000  H
  H122     1.0000 0.77857  0.24032  0.63998  Biso   1.000  H
  C80      1.0000 0.86086  0.20103  0.75500  Biso   1.000  C
  C81      1.0000 0.66547  0.30544  0.88697  Biso   1.000  C
  H123     1.0000 0.65154  0.39802  0.80629  Biso   1.000  H
  O64      1.0000 0.60412  0.43319  0.90114  Biso   1.000  O
  O65      1.0000 0.81375  0.33701  0.92948  Biso   1.000  O
  H124     1.0000 0.81389  0.43409  0.86035  Biso   1.000  H
  C82      1.0000 0.90876  0.48671  0.00394  Biso   1.000  C
  H125     1.0000 0.70423  0.13101  0.73318  Biso   1.000  H
  O66      1.0000 0.71295  0.26643  0.76280  Biso   1.000  O
  H126     1.0000 0.50354  0.11264  0.57849  Biso   1.000  H
  H127     1.0000 0.90456  0.20205  0.73085  Biso   1.000  H
  H128     1.0000 0.87637  0.26191  0.80539  Biso   1.000  H
  O67      1.0000 0.86013  0.13062  0.80134  Biso   1.000  O
  C83      1.0000 0.73374  0.27495  0.86537  Biso   1.000  C
  H129     1.0000 0.67775  0.30821  0.95745  Biso   1.000  H
  O68      1.0000 0.58736  0.24023  0.82173  Biso   1.000  O
  H130     1.0000 0.61646  0.49113  0.91479  Biso   1.000  H
  H131     1.0000 0.95004  0.46422  0.98384  Biso   1.000  H
  H132     1.0000 0.91658  0.55272  0.00746  Biso   1.000  H
  O69      1.0000 0.92414  0.47728  0.10404  Biso   1.000  O
  H133     1.0000 0.88808  0.09595  0.78739  Biso   1.000  H
  H134     1.0000 0.73433  0.21271  0.87475  Biso   1.000  H
  H135     1.0000 0.56434  0.22184  0.85525  Biso   1.000  H
  H136     1.0000 0.90655  0.42127  0.09827  Biso   1.000  H
  Ne1      1.0000 0.26646  0.41824  0.39948  Biso   1.000  Ne
  He1      1.0000 0.28138  0.41832  0.42180  Biso   1.000  He
  He2      1.0000 0.18569  0.40454  0.38010  Biso   1.000  He
  Ar1      1.0000 0.28145  0.42057  0.42310  Biso   1.000  Ar
  Ne2      1.0000 0.72055  0.48792  0.57441  Biso   1.000  Ne
  He3      1.0000 0.80330  0.50038  0.61519  Biso   1.000  He
  He4      1.0000 0.55970  0.46650  0.51546  Biso   1.000  He
  Ar2      1.0000 0.71629  0.48289  0.58039  Biso   1.000  Ar
