data_image0
_cell_length_a       12.401
_cell_length_b       12.726
_cell_length_c       34.039
_cell_angle_alpha    83.66
_cell_angle_beta     83.95
_cell_angle_gamma    82.86

_symmetry_space_group_name_H-M    "P 1"
_symmetry_int_tables_number       1

loop_
  _symmetry_equiv_pos_as_xyz
  'x, y, z'

loop_
  _atom_site_label
  _atom_site_occupancy
  _atom_site_fract_x
  _atom_site_fract_y
  _atom_site_fract_z
  _atom_site_thermal_displace_type
  _atom_site_B_iso_or_equiv
  _atom_site_type_symbol
  C1       1.0000 0.28670  0.83327  0.28726  Biso   1.000  C
  N1       1.0000 0.25449  0.75840  0.26520  Biso   1.000  N
  N2       1.0000 0.36973  0.88125  0.26481  Biso   1.000  N
  O1       1.0000 0.24539  0.85415  0.31938  Biso   1.000  O
  C2       1.0000 0.15936  0.70323  0.27859  Biso   1.000  C
  C3       1.0000 0.30987  0.76047  0.22562  Biso   1.000  C
  C4       1.0000 0.38586  0.84930  0.22453  Biso   1.000  C
  C5       1.0000 0.41077  0.97321  0.27612  Biso   1.000  C
  N3       1.0000 0.18536  0.59091  0.29034  Biso   1.000  N
  H1       1.0000 0.11941  0.73692  0.30121  Biso   1.000  H
  H2       1.0000 0.11118  0.71157  0.25721  Biso   1.000  H
  N4       1.0000 0.38840  0.66606  0.21906  Biso   1.000  N
  O2       1.0000 0.23931  0.77185  0.19635  Biso   1.000  O
  N5       1.0000 0.49472  0.79638  0.21470  Biso   1.000  N
  O3       1.0000 0.36288  0.94399  0.20036  Biso   1.000  O
  H3       1.0000 0.36608  0.99699  0.29969  Biso   1.000  H
  N6       1.0000 0.52468  0.95400  0.28470  Biso   1.000  N
  H4       1.0000 0.40329  0.03078  0.25460  Biso   1.000  H
  C6       1.0000 0.20728  0.50770  0.26270  Biso   1.000  C
  C7       1.0000 0.17537  0.55150  0.32888  Biso   1.000  C
  C8       1.0000 0.35547  0.56560  0.20965  Biso   1.000  C
  C9       1.0000 0.49196  0.68971  0.21051  Biso   1.000  C
  C10      1.0000 0.58791  0.85288  0.20048  Biso   1.000  C
  C11      1.0000 0.61828  0.96670  0.25493  Biso   1.000  C
  C12      1.0000 0.55106  0.95178  0.32273  Biso   1.000  C
  C13      1.0000 0.20548  0.40231  0.29168  Biso   1.000  C
  N7       1.0000 0.31888  0.50058  0.24439  Biso   1.000  N
  C14      1.0000 0.12261  0.52252  0.23302  Biso   1.000  C
  N8       1.0000 0.18999  0.44257  0.33140  Biso   1.000  N
  O4       1.0000 0.15078  0.60429  0.35744  Biso   1.000  O
  H5       1.0000 0.29666  0.58120  0.19199  Biso   1.000  H
  H6       1.0000 0.41761  0.52613  0.19540  Biso   1.000  H
  O5       1.0000 0.57092  0.63305  0.19864  Biso   1.000  O
  H7       1.0000 0.63676  0.81017  0.18231  Biso   1.000  H
  H8       1.0000 0.56257  0.91997  0.18549  Biso   1.000  H
  N9       1.0000 0.64830  0.87549  0.23180  Biso   1.000  N
  C15      1.0000 0.71754  0.95428  0.28245  Biso   1.000  C
  C16      1.0000 0.60742  0.07107  0.22919  Biso   1.000  C
  N10      1.0000 0.66167  0.95237  0.32229  Biso   1.000  N
  O6       1.0000 0.48442  0.95676  0.35242  Biso   1.000  O
  N11      1.0000 0.31626  0.34868  0.28307  Biso   1.000  N
  C17      1.0000 0.11650  0.33220  0.28788  Biso   1.000  C
  C18      1.0000 0.37880  0.40288  0.25540  Biso   1.000  C
  H9       1.0000 0.13642  0.46538  0.21580  Biso   1.000  H
  H10      1.0000 0.12669  0.59029  0.21719  Biso   1.000  H
  H11      1.0000 0.05049  0.52117  0.24709  Biso   1.000  H
  C19      1.0000 0.18162  0.37809  0.36952  Biso   1.000  C
  C20      1.0000 0.73789  0.81027  0.24272  Biso   1.000  C
  N12      1.0000 0.77541  0.84876  0.27416  Biso   1.000  N
  C21      1.0000 0.79045  0.03987  0.27532  Biso   1.000  C
  H12      1.0000 0.58899  0.12898  0.24590  Biso   1.000  H
  H13      1.0000 0.55018  0.07124  0.21179  Biso   1.000  H
  H14      1.0000 0.67586  0.08010  0.21330  Biso   1.000  H
  C22      1.0000 0.71350  0.94720  0.35892  Biso   1.000  C
  C23      1.0000 0.35786  0.24200  0.29836  Biso   1.000  C
  H15      1.0000 0.12724  0.30547  0.26199  Biso   1.000  H
  H16      1.0000 0.04551  0.37361  0.29091  Biso   1.000  H
  H17      1.0000 0.12020  0.27271  0.30830  Biso   1.000  H
  O7       1.0000 0.46890  0.37498  0.24112  Biso   1.000  O
  N13      1.0000 0.28828  0.33601  0.38371  Biso   1.000  N
  H18      1.0000 0.14066  0.31838  0.36711  Biso   1.000  H
  H19      1.0000 0.14014  0.42141  0.38929  Biso   1.000  H
  O8       1.0000 0.77994  0.73147  0.22687  Biso   1.000  O
  C24      1.0000 0.87914  0.80419  0.28731  Biso   1.000  C
  H20      1.0000 0.82697  0.03970  0.24869  Biso   1.000  H
  H21      1.0000 0.84445  0.02777  0.29441  Biso   1.000  H
  H22      1.0000 0.74761  0.10816  0.27820  Biso   1.000  H
  N14      1.0000 0.75316  0.84035  0.37486  Biso   1.000  N
  H23      1.0000 0.66091  0.97951  0.37899  Biso   1.000  H
  H24      1.0000 0.77498  0.98987  0.35420  Biso   1.000  H
  H25      1.0000 0.41251  0.21201  0.27850  Biso   1.000  H
  H26      1.0000 0.29783  0.19759  0.30219  Biso   1.000  H
  N15      1.0000 0.40720  0.23677  0.33582  Biso   1.000  N
  C25      1.0000 0.34950  0.23462  0.37510  Biso   1.000  C
  C26      1.0000 0.32648  0.38137  0.41340  Biso   1.000  C
  N16      1.0000 0.87134  0.74251  0.32558  Biso   1.000  N
  H27      1.0000 0.92335  0.86218  0.28871  Biso   1.000  H
  H28      1.0000 0.91703  0.75856  0.26760  Biso   1.000  H
  C27      1.0000 0.86096  0.78407  0.36489  Biso   1.000  C
  C28      1.0000 0.69526  0.78662  0.40467  Biso   1.000  C
  C29      1.0000 0.51834  0.23401  0.33668  Biso   1.000  C
  C30      1.0000 0.44542  0.22461  0.40336  Biso   1.000  C
  C31      1.0000 0.27231  0.14181  0.38377  Biso   1.000  C
  N17      1.0000 0.41560  0.31794  0.42569  Biso   1.000  N
  O9       1.0000 0.28192  0.45970  0.42836  Biso   1.000  O
  C32      1.0000 0.88795  0.63268  0.32914  Biso   1.000  C
  C33      1.0000 0.86376  0.67889  0.39487  Biso   1.000  C
  C34      1.0000 0.95005  0.85310  0.36738  Biso   1.000  C
  N18      1.0000 0.75299  0.69060  0.41500  Biso   1.000  N
  O10      1.0000 0.60620  0.82136  0.42153  Biso   1.000  O
  N19      1.0000 0.54026  0.23383  0.37388  Biso   1.000  N
  O11      1.0000 0.58478  0.23068  0.30614  Biso   1.000  O
  C35      1.0000 0.46261  0.12132  0.43130  Biso   1.000  C
  H29      1.0000 0.31430  0.07449  0.37840  Biso   1.000  H
  H30      1.0000 0.21301  0.15651  0.36679  Biso   1.000  H
  H31      1.0000 0.24270  0.13798  0.41141  Biso   1.000  H
  C36      1.0000 0.47002  0.34687  0.45674  Biso   1.000  C
  N20      1.0000 0.87946  0.59661  0.36851  Biso   1.000  N
  O12      1.0000 0.90740  0.57929  0.30133  Biso   1.000  O
  C37      1.0000 0.94824  0.66939  0.42453  Biso   1.000  C
  H32      1.0000 0.94753  0.87251  0.39431  Biso   1.000  H
  H33      1.0000 0.93958  0.91698  0.34921  Biso   1.000  H
  H34      1.0000 0.02054  0.81411  0.36029  Biso   1.000  H
  C38      1.0000 0.71769  0.62170  0.45033  Biso   1.000  C
  C39      1.0000 0.65285  0.21380  0.38407  Biso   1.000  C
  H35      1.0000 0.48155  0.06130  0.41571  Biso   1.000  H
  H36      1.0000 0.39590  0.11163  0.44819  Biso   1.000  H
  H37      1.0000 0.52118  0.12588  0.44760  Biso   1.000  H
  H38      1.0000 0.48890  0.28291  0.47461  Biso   1.000  H
  H39      1.0000 0.41935  0.39597  0.47200  Biso   1.000  H
  N21      1.0000 0.57099  0.39782  0.44344  Biso   1.000  N
  C40      1.0000 0.90445  0.48353  0.38107  Biso   1.000  C
  H40      1.0000 0.93197  0.72728  0.44130  Biso   1.000  H
  H41      1.0000 0.94689  0.60197  0.44080  Biso   1.000  H
  H42      1.0000 0.02011  0.67281  0.41040  Biso   1.000  H
  N22      1.0000 0.68200  0.52482  0.44023  Biso   1.000  N
  H43      1.0000 0.77827  0.60327  0.46701  Biso   1.000  H
  H44      1.0000 0.65760  0.66069  0.46580  Biso   1.000  H
  H45      1.0000 0.65759  0.15687  0.40589  Biso   1.000  H
  H46      1.0000 0.69939  0.18840  0.36121  Biso   1.000  H
  N23      1.0000 0.69510  0.30631  0.39570  Biso   1.000  N
  C41      1.0000 0.67514  0.34280  0.43409  Biso   1.000  C
  C42      1.0000 0.57480  0.50353  0.44861  Biso   1.000  C
  N24      1.0000 0.80970  0.42977  0.39360  Biso   1.000  N
  H47      1.0000 0.94605  0.44889  0.35901  Biso   1.000  H
  H48      1.0000 0.95095  0.47567  0.40301  Biso   1.000  H
  C43      1.0000 0.75487  0.42886  0.43329  Biso   1.000  C
  C44      1.0000 0.77794  0.35407  0.37261  Biso   1.000  C
  O13      1.0000 0.70263  0.25201  0.45909  Biso   1.000  O
  O14      1.0000 0.49779  0.56982  0.45757  Biso   1.000  O
  O15      1.0000 0.83055  0.40546  0.46158  Biso   1.000  O
  O16      1.0000 0.82106  0.33076  0.33974  Biso   1.000  O
  C45      1.0000 0.52995  0.65312  0.54325  Biso   1.000  C
  N25      1.0000 0.42898  0.60217  0.55655  Biso   1.000  N
  H49      1.0000 0.51107  0.71708  0.52541  Biso   1.000  H
  H50      1.0000 0.58055  0.60402  0.52799  Biso   1.000  H
  N26      1.0000 0.58437  0.68205  0.57430  Biso   1.000  N
  C46      1.0000 0.42517  0.49646  0.55138  Biso   1.000  C
  C47      1.0000 0.32475  0.65719  0.56590  Biso   1.000  C
  C48      1.0000 0.55456  0.77538  0.59663  Biso   1.000  C
  C49      1.0000 0.67350  0.61862  0.58659  Biso   1.000  C
  N27      1.0000 0.31798  0.47517  0.55976  Biso   1.000  N
  O17      1.0000 0.50218  0.43017  0.54242  Biso   1.000  O
  C50      1.0000 0.24511  0.57105  0.56670  Biso   1.000  C
  N28      1.0000 0.30487  0.69368  0.60432  Biso   1.000  N
  O18      1.0000 0.29726  0.74798  0.54090  Biso   1.000  O
  N29      1.0000 0.45971  0.76616  0.62611  Biso   1.000  N
  C51      1.0000 0.65047  0.76537  0.62489  Biso   1.000  C
  C52      1.0000 0.53737  0.87867  0.56869  Biso   1.000  C
  N30      1.0000 0.71170  0.66398  0.61628  Biso   1.000  N
  O19      1.0000 0.71806  0.54029  0.57163  Biso   1.000  O
  C53      1.0000 0.28228  0.37828  0.54969  Biso   1.000  C
  N31      1.0000 0.19027  0.57022  0.60639  Biso   1.000  N
  O20      1.0000 0.16941  0.59452  0.53844  Biso   1.000  O
  C54      1.0000 0.22196  0.64592  0.62738  Biso   1.000  C
  C55      1.0000 0.34705  0.78619  0.61592  Biso   1.000  C
  C56      1.0000 0.48154  0.76598  0.66333  Biso   1.000  C
  N32      1.0000 0.59277  0.76321  0.66420  Biso   1.000  N
  C57      1.0000 0.72767  0.85818  0.61622  Biso   1.000  C
  H51      1.0000 0.51834  0.93869  0.58431  Biso   1.000  H
  H52      1.0000 0.60408  0.88836  0.55180  Biso   1.000  H
  H53      1.0000 0.47880  0.87411  0.55239  Biso   1.000  H
  C58      1.0000 0.81836  0.62190  0.63047  Biso   1.000  C
  H54      1.0000 0.22170  0.39671  0.53301  Biso   1.000  H
  H55      1.0000 0.34238  0.33930  0.53419  Biso   1.000  H
  N33      1.0000 0.24698  0.30939  0.58502  Biso   1.000  N
  C59      1.0000 0.09552  0.51645  0.61895  Biso   1.000  C
  O21      1.0000 0.17892  0.66923  0.66025  Biso   1.000  O
  H56      1.0000 0.34239  0.84312  0.59410  Biso   1.000  H
  H57      1.0000 0.30058  0.81158  0.63881  Biso   1.000  H
  O22      1.0000 0.41520  0.76931  0.69385  Biso   1.000  O
  C60      1.0000 0.64203  0.75799  0.70163  Biso   1.000  C
  H58      1.0000 0.68567  0.92550  0.62159  Biso   1.000  H
  H59      1.0000 0.78696  0.84348  0.63320  Biso   1.000  H
  H60      1.0000 0.75726  0.86200  0.58861  Biso   1.000  H
  H61      1.0000 0.85923  0.68160  0.63291  Biso   1.000  H
  H62      1.0000 0.85984  0.57858  0.61070  Biso   1.000  H
  N34      1.0000 0.80998  0.55741  0.66862  Biso   1.000  N
  C61      1.0000 0.13621  0.32109  0.60515  Biso   1.000  C
  C62      1.0000 0.30471  0.21337  0.59532  Biso   1.000  C
  N35      1.0000 0.12050  0.40337  0.63151  Biso   1.000  N
  H63      1.0000 0.05392  0.55109  0.64101  Biso   1.000  H
  H64      1.0000 0.04901  0.52431  0.59701  Biso   1.000  H
  H65      1.0000 0.58747  0.78798  0.72149  Biso   1.000  H
  H66      1.0000 0.70215  0.80240  0.69780  Biso   1.000  H
  N36      1.0000 0.68364  0.65131  0.71692  Biso   1.000  N
  C63      1.0000 0.79448  0.59767  0.70834  Biso   1.000  C
  C64      1.0000 0.82460  0.44849  0.67111  Biso   1.000  C
  C65      1.0000 0.13901  0.21591  0.63513  Biso   1.000  C
  C66      1.0000 0.05173  0.33060  0.57549  Biso   1.000  C
  N37      1.0000 0.24683  0.15956  0.62513  Biso   1.000  N
  O23      1.0000 0.39377  0.17862  0.57849  Biso   1.000  O
  C67      1.0000 0.11203  0.36731  0.67085  Biso   1.000  C
  C68      1.0000 0.62118  0.59711  0.74459  Biso   1.000  C
  C69      1.0000 0.79270  0.49229  0.73729  Biso   1.000  C
  C70      1.0000 0.88347  0.66779  0.71211  Biso   1.000  C
  N38      1.0000 0.81460  0.40907  0.70968  Biso   1.000  N
  O24      1.0000 0.84920  0.39570  0.64255  Biso   1.000  O
  C71      1.0000 0.04992  0.14689  0.63261  Biso   1.000  C
  N39      1.0000 0.12864  0.25748  0.67441  Biso   1.000  N
  H67      1.0000 0.06800  0.27271  0.55869  Biso   1.000  H
  H68      1.0000 0.05308  0.39802  0.55919  Biso   1.000  H
  H69      1.0000 0.97986  0.32718  0.58959  Biso   1.000  H
  C72      1.0000 0.28648  0.05279  0.64107  Biso   1.000  C
  O25      1.0000 0.09258  0.42070  0.69866  Biso   1.000  O
  N40      1.0000 0.68110  0.49941  0.75560  Biso   1.000  N
  O26      1.0000 0.53107  0.62501  0.75890  Biso   1.000  O
  C73      1.0000 0.87736  0.47747  0.76697  Biso   1.000  C
  H70      1.0000 0.87274  0.69452  0.73800  Biso   1.000  H
  H71      1.0000 0.95446  0.62637  0.70911  Biso   1.000  H
  H72      1.0000 0.87978  0.72728  0.69169  Biso   1.000  H
  C74      1.0000 0.84053  0.29676  0.72143  Biso   1.000  C
  H73      1.0000 0.05236  0.12747  0.60571  Biso   1.000  H
  H74      1.0000 0.06039  0.08300  0.65081  Biso   1.000  H
  H75      1.0000 0.97944  0.18588  0.63970  Biso   1.000  H
  C75      1.0000 0.12083  0.19580  0.71271  Biso   1.000  C
  H76      1.0000 0.33906  0.02048  0.62100  Biso   1.000  H
  H77      1.0000 0.22500  0.01012  0.64579  Biso   1.000  H
  N41      1.0000 0.33831  0.04762  0.67770  Biso   1.000  N
  C76      1.0000 0.64450  0.43439  0.79034  Biso   1.000  C
  H78      1.0000 0.86356  0.53461  0.78419  Biso   1.000  H
  H79      1.0000 0.87328  0.40970  0.78280  Biso   1.000  H
  H80      1.0000 0.94948  0.47882  0.75290  Biso   1.000  H
  N42      1.0000 0.74547  0.24158  0.73482  Biso   1.000  N
  H81      1.0000 0.88056  0.26306  0.69881  Biso   1.000  H
  H82      1.0000 0.88879  0.28841  0.74281  Biso   1.000  H
  H83      1.0000 0.07662  0.13780  0.71131  Biso   1.000  H
  H84      1.0000 0.08286  0.24143  0.73239  Biso   1.000  H
  N43      1.0000 0.22456  0.15123  0.72583  Biso   1.000  N
  C77      1.0000 0.28234  0.04571  0.71757  Biso   1.000  C
  C78      1.0000 0.44892  0.04821  0.67726  Biso   1.000  C
  N44      1.0000 0.61157  0.33392  0.78096  Biso   1.000  N
  H85      1.0000 0.70323  0.41879  0.80800  Biso   1.000  H
  H86      1.0000 0.58237  0.47386  0.80459  Biso   1.000  H
  C79      1.0000 0.71327  0.16673  0.71273  Biso   1.000  C
  C80      1.0000 0.69011  0.23952  0.77437  Biso   1.000  C
  C81      1.0000 0.26208  0.18971  0.75730  Biso   1.000  C
  C82      1.0000 0.38168  0.03328  0.74509  Biso   1.000  C
  C83      1.0000 0.20943  0.96011  0.72470  Biso   1.000  C
  N45      1.0000 0.47529  0.04599  0.71529  Biso   1.000  N
  O27      1.0000 0.51555  0.04322  0.64760  Biso   1.000  O
  C84      1.0000 0.50801  0.31028  0.78951  Biso   1.000  C
  N46      1.0000 0.63026  0.11866  0.73518  Biso   1.000  N
  O28      1.0000 0.75458  0.14584  0.68061  Biso   1.000  O
  C85      1.0000 0.61411  0.15069  0.77546  Biso   1.000  C
  O29      1.0000 0.76068  0.22806  0.80364  Biso   1.000  O
  N47      1.0000 0.35167  0.12449  0.76822  Biso   1.000  N
  O30      1.0000 0.21995  0.26852  0.77312  Biso   1.000  O
  C86      1.0000 0.39255  0.92891  0.77083  Biso   1.000  C
  H87      1.0000 0.17301  0.96029  0.75130  Biso   1.000  H
  H88      1.0000 0.15543  0.97221  0.70561  Biso   1.000  H
  H89      1.0000 0.25237  0.89183  0.72179  Biso   1.000  H
  C87      1.0000 0.58920  0.02677  0.72390  Biso   1.000  C
  N48      1.0000 0.50525  0.20361  0.78529  Biso   1.000  N
  O31      1.0000 0.42906  0.36686  0.80135  Biso   1.000  O
  O32      1.0000 0.63710  0.05600  0.79963  Biso   1.000  O
  C88      1.0000 0.41206  0.14711  0.79951  Biso   1.000  C
  H90      1.0000 0.41099  0.87101  0.75409  Biso   1.000  H
  H91      1.0000 0.44973  0.92867  0.78820  Biso   1.000  H
  H92      1.0000 0.32404  0.91989  0.78669  Biso   1.000  H
  H93      1.0000 0.63389  0.00300  0.70030  Biso   1.000  H
  H94      1.0000 0.59669  0.96921  0.74539  Biso   1.000  H
  H95      1.0000 0.36321  0.18981  0.81771  Biso   1.000  H
  H96      1.0000 0.43741  0.08003  0.81450  Biso   1.000  H
  O33      1.0000 0.41500  0.88538  0.12938  Biso   1.000  O
  C89      1.0000 0.35237  0.84059  0.11308  Biso   1.000  C
  N49      1.0000 0.37609  0.74319  0.10049  Biso   1.000  N
  N50      1.0000 0.24792  0.88266  0.10465  Biso   1.000  N
  C90      1.0000 0.28603  0.70788  0.08369  Biso   1.000  C
  C91      1.0000 0.47884  0.67500  0.10708  Biso   1.000  C
  C92      1.0000 0.19089  0.80496  0.08850  Biso   1.000  C
  C93      1.0000 0.19381  0.98060  0.12000  Biso   1.000  C
  C94      1.0000 0.25556  0.59625  0.10361  Biso   1.000  C
  N51      1.0000 0.30617  0.70498  0.04073  Biso   1.000  N
  H97      1.0000 0.46255  0.60137  0.11391  Biso   1.000  H
  H98      1.0000 0.50927  0.69700  0.12991  Biso   1.000  H
  N52      1.0000 0.55941  0.67762  0.07413  Biso   1.000  N
  C95      1.0000 0.08996  0.77666  0.11287  Biso   1.000  C
  N53      1.0000 0.17186  0.83797  0.04664  Biso   1.000  N
  H99      1.0000 0.23428  0.99746  0.14131  Biso   1.000  H
  H100     1.0000 0.12037  0.96777  0.13169  Biso   1.000  H
  N54      1.0000 0.18488  0.06898  0.09153  Biso   1.000  N
  H101     1.0000 0.19368  0.57749  0.09191  Biso   1.000  H
  H102     1.0000 0.31746  0.54280  0.09939  Biso   1.000  H
  H103     1.0000 0.23705  0.60002  0.13190  Biso   1.000  H
  C96      1.0000 0.23559  0.77856  0.02004  Biso   1.000  C
  C97      1.0000 0.37621  0.62393  0.02081  Biso   1.000  C
  C98      1.0000 0.56484  0.61230  0.04260  Biso   1.000  C
  C99      1.0000 0.65117  0.73146  0.07327  Biso   1.000  C
  H104     1.0000 0.10641  0.75491  0.14001  Biso   1.000  H
  H105     1.0000 0.03510  0.83800  0.11240  Biso   1.000  H
  H106     1.0000 0.06281  0.71869  0.10209  Biso   1.000  H
  C100     1.0000 0.08861  0.92158  0.03441  Biso   1.000  C
  C101     1.0000 0.10209  0.09699  0.06350  Biso   1.000  C
  C102     1.0000 0.25427  0.14549  0.09001  Biso   1.000  C
  O34      1.0000 0.22628  0.78604  0.98427  Biso   1.000  O
  H107     1.0000 0.37340  0.55558  0.03699  Biso   1.000  H
  N55      1.0000 0.48920  0.64623  0.01345  Biso   1.000  N
  H108     1.0000 0.34829  0.61726  0.99540  Biso   1.000  H
  H109     1.0000 0.56138  0.53667  0.05281  Biso   1.000  H
  C103     1.0000 0.67669  0.62879  0.01888  Biso   1.000  C
  N56      1.0000 0.71645  0.70858  0.03999  Biso   1.000  N
  O35      1.0000 0.66990  0.78421  0.09871  Biso   1.000  O
  H110     1.0000 0.02382  0.91735  0.05341  Biso   1.000  H
  H111     1.0000 0.06819  0.90840  0.00849  Biso   1.000  H
  N57      1.0000 0.11860  0.02690  0.03147  Biso   1.000  N
  C104     1.0000 0.98697  0.09759  0.08488  Biso   1.000  C
  C105     1.0000 0.12851  0.20438  0.04219  Biso   1.000  C
  N58      1.0000 0.22351  0.22545  0.06074  Biso   1.000  N
  O36      1.0000 0.32927  0.14661  0.11094  Biso   1.000  O
  C106     1.0000 0.53876  0.67216  0.97705  Biso   1.000  C
  N59      1.0000 0.64846  0.66609  0.97934  Biso   1.000  N
  O37      1.0000 0.75421  0.53268  0.01909  Biso   1.000  O
  C107     1.0000 0.82844  0.73431  0.03372  Biso   1.000  C
  C108     1.0000 0.15044  0.08048  0.99534  Biso   1.000  C
  H112     1.0000 0.93345  0.11620  0.06570  Biso   1.000  H
  H113     1.0000 0.97784  0.02744  0.09829  Biso   1.000  H
  H114     1.0000 0.97645  0.14950  0.10420  Biso   1.000  H
  N60      1.0000 0.15550  0.18397  0.00080  Biso   1.000  N
  C109     1.0000 0.03623  0.30200  0.04412  Biso   1.000  C
  C110     1.0000 0.27240  0.32504  0.05549  Biso   1.000  C
  O38      1.0000 0.49228  0.69245  0.94704  Biso   1.000  O
  C111     1.0000 0.72756  0.67491  0.94451  Biso   1.000  C
  H115     1.0000 0.87757  0.66941  0.02909  Biso   1.000  H
  H116     1.0000 0.84745  0.76099  0.05771  Biso   1.000  H
  N61      1.0000 0.84446  0.81598  0.99920  Biso   1.000  N
  O39      1.0000 0.16506  0.04167  0.96360  Biso   1.000  O
  C112     1.0000 0.17152  0.26564  0.96628  Biso   1.000  C
  H117     1.0000 0.97205  0.28501  0.03319  Biso   1.000  H
  H118     1.0000 0.01742  0.31654  0.07149  Biso   1.000  H
  H119     1.0000 0.06249  0.36417  0.02880  Biso   1.000  H
  H120     1.0000 0.30877  0.33128  0.07921  Biso   1.000  H
  H121     1.0000 0.21443  0.38449  0.05320  Biso   1.000  H
  N62      1.0000 0.35150  0.33385  0.02069  Biso   1.000  N
  H122     1.0000 0.69110  0.66866  0.92082  Biso   1.000  H
  H123     1.0000 0.78553  0.61546  0.94680  Biso   1.000  H
  N63      1.0000 0.77645  0.77449  0.93929  Biso   1.000  N
  C113     1.0000 0.87145  0.79556  0.95784  Biso   1.000  C
  C114     1.0000 0.84944  0.91947  0.00466  Biso   1.000  C
  H124     1.0000 0.12239  0.33054  0.97091  Biso   1.000  H
  H125     1.0000 0.15250  0.23895  0.94232  Biso   1.000  H
  N64      1.0000 0.28351  0.29137  0.96001  Biso   1.000  N
  C115     1.0000 0.32327  0.37116  0.98112  Biso   1.000  C
  C116     1.0000 0.46120  0.32778  0.02298  Biso   1.000  C
  C117     1.0000 0.74561  0.85445  0.91002  Biso   1.000  C
  C118     1.0000 0.89787  0.90296  0.93653  Biso   1.000  C
  C119     1.0000 0.96373  0.69795  0.95591  Biso   1.000  C
  O40      1.0000 0.83490  0.95827  0.03643  Biso   1.000  O
  N65      1.0000 0.88136  0.97305  0.96853  Biso   1.000  N
  C120     1.0000 0.34879  0.26849  0.92673  Biso   1.000  C
  C121     1.0000 0.43504  0.38765  0.95740  Biso   1.000  C
  O41      1.0000 0.24575  0.46727  0.98094  Biso   1.000  O
  N66      1.0000 0.51076  0.35372  0.98655  Biso   1.000  N
  O42      1.0000 0.50769  0.30750  0.05296  Biso   1.000  O
  N67      1.0000 0.81500  0.93097  0.90847  Biso   1.000  N
  O43      1.0000 0.67061  0.85334  0.88906  Biso   1.000  O
  C122     1.0000 0.01300  0.90236  0.91512  Biso   1.000  C
  H126     1.0000 0.98255  0.68333  0.92851  Biso   1.000  H
  H127     1.0000 0.93740  0.63578  0.97120  Biso   1.000  H
  H128     1.0000 0.02792  0.71494  0.96681  Biso   1.000  H
  C123     1.0000 0.91136  0.07837  0.96559  Biso   1.000  C
  N68      1.0000 0.44055  0.32233  0.92587  Biso   1.000  N
  O44      1.0000 0.33006  0.21574  0.90129  Biso   1.000  O
  H129     1.0000 0.43858  0.46328  0.94722  Biso   1.000  H
  C124     1.0000 0.62375  0.37602  0.97919  Biso   1.000  C
  C125     1.0000 0.80615  0.01935  0.88000  Biso   1.000  C
  H130     1.0000 0.06651  0.88375  0.93430  Biso   1.000  H
  H131     1.0000 0.02204  0.97251  0.90171  Biso   1.000  H
  H132     1.0000 0.02352  0.85045  0.89580  Biso   1.000  H
  H133     1.0000 0.97614  0.08259  0.94662  Biso   1.000  H
  H134     1.0000 0.93177  0.09155  0.99151  Biso   1.000  H
  N69      1.0000 0.82802  0.16198  0.95336  Biso   1.000  N
  C126     1.0000 0.52104  0.32495  0.89292  Biso   1.000  C
  H135     1.0000 0.62657  0.44437  0.96301  Biso   1.000  H
  N70      1.0000 0.69380  0.29497  0.95927  Biso   1.000  N
  H136     1.0000 0.65167  0.38269  0.00460  Biso   1.000  H
  H137     1.0000 0.76568  0.00249  0.85872  Biso   1.000  H
  H138     1.0000 0.87959  0.03218  0.86831  Biso   1.000  H
  N71      1.0000 0.75204  0.11728  0.89538  Biso   1.000  N
  C127     1.0000 0.80907  0.19499  0.91150  Biso   1.000  C
  C128     1.0000 0.76436  0.22138  0.97999  Biso   1.000  C
  H139     1.0000 0.53732  0.39857  0.88612  Biso   1.000  H
  H140     1.0000 0.49069  0.30294  0.87012  Biso   1.000  H
  N72      1.0000 0.62387  0.25676  0.89951  Biso   1.000  N
  C129     1.0000 0.71393  0.29207  0.91631  Biso   1.000  C
  C130     1.0000 0.64759  0.15935  0.88695  Biso   1.000  C
  C131     1.0000 0.90992  0.22328  0.88716  Biso   1.000  C
  O45      1.0000 0.77369  0.21383  0.01573  Biso   1.000  O
  C132     1.0000 0.74432  0.40369  0.89642  Biso   1.000  C
  O46      1.0000 0.58496  0.11456  0.87065  Biso   1.000  O
  H141     1.0000 0.89354  0.24503  0.86002  Biso   1.000  H
  H142     1.0000 0.96487  0.16195  0.88760  Biso   1.000  H
  H143     1.0000 0.93715  0.28126  0.89791  Biso   1.000  H
  H144     1.0000 0.80628  0.42245  0.90812  Biso   1.000  H
  H145     1.0000 0.68242  0.45715  0.90061  Biso   1.000  H
  H146     1.0000 0.76283  0.39993  0.86810  Biso   1.000  H
  Ne1      1.0000 0.53318  0.59452  0.32921  Biso   1.000  Ne
  He1      1.0000 0.39847  0.72954  0.38560  Biso   1.000  He
  He2      1.0000 0.69343  0.46044  0.26481  Biso   1.000  He
  Ar1      1.0000 0.53326  0.59434  0.32942  Biso   1.000  Ar
  Ne2      1.0000 0.49997  0.99997  0.00001  Biso   1.000  Ne
  He3      1.0000 0.59114  0.05010  0.08184  Biso   1.000  He
  He4      1.0000 0.41527  0.95308  0.92345  Biso   1.000  He
  Ar2      1.0000 0.49997  0.99998  0.00001  Biso   1.000  Ar
  Ne3      1.0000 0.46678  0.40546  0.67079  Biso   1.000  Ne
  He5      1.0000 0.32375  0.52612  0.72789  Biso   1.000  He
  He6      1.0000 0.65599  0.29677  0.60654  Biso   1.000  He
  Ar3      1.0000 0.46670  0.40563  0.67058  Biso   1.000  Ar
