data_image0
_cell_length_a       36.409
_cell_length_b       11.501
_cell_length_c       12.148
_cell_angle_alpha    90
_cell_angle_beta     90
_cell_angle_gamma    90

_symmetry_space_group_name_H-M    "P 1"
_symmetry_int_tables_number       1

loop_
  _symmetry_equiv_pos_as_xyz
  'x, y, z'

loop_
  _atom_site_label
  _atom_site_occupancy
  _atom_site_fract_x
  _atom_site_fract_y
  _atom_site_fract_z
  _atom_site_thermal_displace_type
  _atom_site_B_iso_or_equiv
  _atom_site_type_symbol
  C1       1.0000 0.51089  0.54752  0.33281  Biso   1.000  C
  C2       1.0000 0.51284  0.43266  0.36187  Biso   1.000  C
  C3       1.0000 0.50985  0.57969  0.22094  Biso   1.000  C
  H1       1.0000 0.51020  0.60447  0.38698  Biso   1.000  H
  C4       1.0000 0.51309  0.34936  0.27980  Biso   1.000  C
  C5       1.0000 0.51504  0.39823  0.48214  Biso   1.000  C
  C6       1.0000 0.51089  0.49413  0.13904  Biso   1.000  C
  O1       1.0000 0.50897  0.69159  0.18546  Biso   1.000  O
  O2       1.0000 0.51504  0.23450  0.31627  Biso   1.000  O
  C7       1.0000 0.51224  0.37962  0.17007  Biso   1.000  C
  C8       1.0000 0.55434  0.38501  0.52000  Biso   1.000  C
  H2       1.0000 0.50221  0.32528  0.49292  Biso   1.000  H
  H3       1.0000 0.50301  0.45700  0.52659  Biso   1.000  H
  C9       1.0000 0.51119  0.52969  0.01852  Biso   1.000  C
  C10      1.0000 0.50520  0.78219  0.26482  Biso   1.000  C
  C11      1.0000 0.51130  0.14616  0.23559  Biso   1.000  C
  H4       1.0000 0.51259  0.32171  0.11673  Biso   1.000  H
  C12      1.0000 0.57250  0.28102  0.50568  Biso   1.000  C
  C13      1.0000 0.57373  0.47631  0.56701  Biso   1.000  C
  H5       1.0000 0.49589  0.59812  0.00889  Biso   1.000  H
  C14      1.0000 0.54959  0.55595  0.97901  Biso   1.000  C
  H6       1.0000 0.50089  0.46752  0.97440  Biso   1.000  H
  H7       1.0000 0.48559  0.76350  0.31462  Biso   1.000  H
  H8       1.0000 0.52770  0.79028  0.30524  Biso   1.000  H
  H9       1.0000 0.49971  0.85401  0.22794  Biso   1.000  H
  H10      1.0000 0.51009  0.07182  0.27107  Biso   1.000  H
  H11      1.0000 0.48930  0.15912  0.19402  Biso   1.000  H
  H12      1.0000 0.53209  0.14799  0.18711  Biso   1.000  H
  H13      1.0000 0.55981  0.21911  0.47448  Biso   1.000  H
  C15      1.0000 0.60919  0.26380  0.53581  Biso   1.000  C
  O3       1.0000 0.55467  0.57917  0.57812  Biso   1.000  O
  C16      1.0000 0.61010  0.46153  0.59821  Biso   1.000  C
  C17      1.0000 0.56461  0.66681  0.99259  Biso   1.000  C
  C18      1.0000 0.57148  0.47126  0.93061  Biso   1.000  C
  O4       1.0000 0.62825  0.16599  0.51753  Biso   1.000  O
  C19      1.0000 0.62866  0.35736  0.58281  Biso   1.000  C
  C20      1.0000 0.57370  0.67125  0.62875  Biso   1.000  C
  H14      1.0000 0.62240  0.52352  0.63047  Biso   1.000  H
  H15      1.0000 0.55030  0.72559  0.02288  Biso   1.000  H
  C21      1.0000 0.60046  0.69072  0.96189  Biso   1.000  C
  O5       1.0000 0.55574  0.36406  0.92073  Biso   1.000  O
  C22      1.0000 0.60724  0.49909  0.89653  Biso   1.000  C
  C23      1.0000 0.60820  0.07747  0.45983  Biso   1.000  C
  C24      1.0000 0.66907  0.34753  0.61236  Biso   1.000  C
  H16      1.0000 0.57719  0.65412  0.70530  Biso   1.000  H
  H17      1.0000 0.59719  0.68107  0.59384  Biso   1.000  H
  H18      1.0000 0.55970  0.74167  0.62142  Biso   1.000  H
  O6       1.0000 0.61677  0.79889  0.97827  Biso   1.000  O
  C25      1.0000 0.62243  0.60612  0.91258  Biso   1.000  C
  C26      1.0000 0.57681  0.27624  0.86697  Biso   1.000  C
  H19      1.0000 0.62119  0.44222  0.86154  Biso   1.000  H
  H20      1.0000 0.58821  0.05026  0.50584  Biso   1.000  H
  H21      1.0000 0.59771  0.11060  0.39348  Biso   1.000  H
  C27      1.0000 0.63119  0.98061  0.43052  Biso   1.000  C
  H22      1.0000 0.67470  0.26728  0.63072  Biso   1.000  H
  H23      1.0000 0.67409  0.39484  0.67674  Biso   1.000  H
  C28      1.0000 0.69321  0.38631  0.51860  Biso   1.000  C
  C29      1.0000 0.59840  0.89236  0.04050  Biso   1.000  C
  C30      1.0000 0.66179  0.62916  0.88023  Biso   1.000  C
  H24      1.0000 0.59851  0.26006  0.90937  Biso   1.000  H
  H25      1.0000 0.56239  0.20668  0.86047  Biso   1.000  H
  H26      1.0000 0.58381  0.30267  0.79511  Biso   1.000  H
  H27      1.0000 0.64981  0.00704  0.37891  Biso   1.000  H
  H28      1.0000 0.64380  0.95322  0.49597  Biso   1.000  H
  C31      1.0000 0.60861  0.87019  0.37446  Biso   1.000  C
  C32      1.0000 0.70334  0.50413  0.50617  Biso   1.000  C
  C33      1.0000 0.70678  0.30745  0.44304  Biso   1.000  C
  H29      1.0000 0.58211  0.85888  0.09376  Biso   1.000  H
  H30      1.0000 0.61650  0.93879  0.07738  Biso   1.000  H
  H31      1.0000 0.58461  0.94053  0.99070  Biso   1.000  H
  C34      1.0000 0.68815  0.59760  0.96938  Biso   1.000  C
  H32      1.0000 0.66459  0.71098  0.86269  Biso   1.000  H
  H33      1.0000 0.66761  0.58491  0.81462  Biso   1.000  H
  H34      1.0000 0.59510  0.89827  0.31092  Biso   1.000  H
  H35      1.0000 0.59079  0.84141  0.42731  Biso   1.000  H
  C35      1.0000 0.63089  0.77950  0.34228  Biso   1.000  C
  O7       1.0000 0.69008  0.57891  0.58487  Biso   1.000  O
  C36      1.0000 0.72468  0.53813  0.41801  Biso   1.000  C
  C37      1.0000 0.72812  0.34249  0.35454  Biso   1.000  C
  H36      1.0000 0.70150  0.22902  0.45168  Biso   1.000  H
  C38      1.0000 0.70021  0.68011  0.04643  Biso   1.000  C
  C39      1.0000 0.70109  0.48422  0.98329  Biso   1.000  C
  H37      1.0000 0.64671  0.80497  0.28268  Biso   1.000  H
  H38      1.0000 0.64641  0.75628  0.40352  Biso   1.000  H
  C40      1.0000 0.60839  0.67690  0.30474  Biso   1.000  C
  C41      1.0000 0.70051  0.69750  0.57524  Biso   1.000  C
  H39      1.0000 0.73070  0.61629  0.41044  Biso   1.000  H
  C42      1.0000 0.73762  0.45892  0.33989  Biso   1.000  C
  O8       1.0000 0.74182  0.26598  0.27634  Biso   1.000  O
  C43      1.0000 0.72369  0.65220  0.13204  Biso   1.000  C
  H40      1.0000 0.69211  0.75637  0.03968  Biso   1.000  H
  C44      1.0000 0.72383  0.45396  0.06964  Biso   1.000  C
  O9       1.0000 0.68928  0.40596  0.90402  Biso   1.000  O
  H41      1.0000 0.59389  0.69916  0.24119  Biso   1.000  H
  H42      1.0000 0.59169  0.65412  0.36294  Biso   1.000  H
  C45      1.0000 0.63149  0.57951  0.27609  Biso   1.000  C
  H43      1.0000 0.69060  0.74072  0.63591  Biso   1.000  H
  H44      1.0000 0.72691  0.70333  0.57590  Biso   1.000  H
  H45      1.0000 0.69120  0.72855  0.50741  Biso   1.000  H
  C46      1.0000 0.75948  0.50100  0.24037  Biso   1.000  C
  C47      1.0000 0.73460  0.14651  0.29239  Biso   1.000  C
  O10      1.0000 0.73644  0.72959  0.20901  Biso   1.000  O
  C48      1.0000 0.73550  0.53717  0.14603  Biso   1.000  C
  H46      1.0000 0.73149  0.37718  0.07713  Biso   1.000  H
  C49      1.0000 0.70279  0.29128  0.91307  Biso   1.000  C
  H47      1.0000 0.64671  0.55952  0.33890  Biso   1.000  H
  H48      1.0000 0.64770  0.60212  0.21633  Biso   1.000  H
  C50      1.0000 0.61070  0.47883  0.24309  Biso   1.000  C
  H49      1.0000 0.77569  0.43918  0.21608  Biso   1.000  H
  H50      1.0000 0.77459  0.56639  0.26227  Biso   1.000  H
  H51      1.0000 0.74350  0.12321  0.36343  Biso   1.000  H
  H52      1.0000 0.70859  0.13303  0.28828  Biso   1.000  H
  H53      1.0000 0.74679  0.10208  0.23634  Biso   1.000  H
  C51      1.0000 0.72721  0.84932  0.19098  Biso   1.000  C
  H54      1.0000 0.69439  0.25746  0.98082  Biso   1.000  H
  H55      1.0000 0.69420  0.24589  0.85224  Biso   1.000  H
  H56      1.0000 0.72919  0.29267  0.91258  Biso   1.000  H
  H57      1.0000 0.59480  0.45735  0.30384  Biso   1.000  H
  H58      1.0000 0.59510  0.50109  0.18209  Biso   1.000  H
  C52      1.0000 0.63199  0.37162  0.20909  Biso   1.000  C
  H59      1.0000 0.74061  0.89705  0.24193  Biso   1.000  H
  H60      1.0000 0.73350  0.87079  0.11714  Biso   1.000  H
  H61      1.0000 0.70131  0.86019  0.20209  Biso   1.000  H
  H62      1.0000 0.64819  0.34953  0.26902  Biso   1.000  H
  H63      1.0000 0.64731  0.39127  0.14653  Biso   1.000  H
  C53      1.0000 0.60960  0.27250  0.18011  Biso   1.000  C
  H64      1.0000 0.59491  0.25172  0.24366  Biso   1.000  H
  H65      1.0000 0.59290  0.29580  0.12208  Biso   1.000  H
  C54      1.0000 0.62979  0.16616  0.14257  Biso   1.000  C
  H66      1.0000 0.64781  0.14512  0.19674  Biso   1.000  H
  H67      1.0000 0.61279  0.10330  0.13319  Biso   1.000  H
  H68      1.0000 0.64179  0.18198  0.07384  Biso   1.000  H
  O11      1.0000 0.48496  0.73446  0.68373  Biso   1.000  O
  C55      1.0000 0.48691  0.84940  0.72020  Biso   1.000  C
  C56      1.0000 0.48870  0.64620  0.76441  Biso   1.000  C
  C57      1.0000 0.48716  0.93270  0.63813  Biso   1.000  C
  C58      1.0000 0.48776  0.87958  0.82993  Biso   1.000  C
  H69      1.0000 0.48991  0.57178  0.72893  Biso   1.000  H
  H70      1.0000 0.51070  0.65907  0.80598  Biso   1.000  H
  H71      1.0000 0.46791  0.64803  0.81289  Biso   1.000  H
  C59      1.0000 0.48496  0.89818  0.51795  Biso   1.000  C
  C60      1.0000 0.48911  0.04747  0.66719  Biso   1.000  C
  C61      1.0000 0.48911  0.99409  0.86105  Biso   1.000  C
  H72      1.0000 0.48741  0.82167  0.88327  Biso   1.000  H
  C62      1.0000 0.44566  0.88497  0.48000  Biso   1.000  C
  H73      1.0000 0.49779  0.82532  0.50708  Biso   1.000  H
  H74      1.0000 0.49699  0.95696  0.47341  Biso   1.000  H
  C63      1.0000 0.49015  0.07973  0.77914  Biso   1.000  C
  H75      1.0000 0.48980  0.10451  0.61302  Biso   1.000  H
  C64      1.0000 0.48881  0.02974  0.98148  Biso   1.000  C
  C65      1.0000 0.42750  0.78098  0.49432  Biso   1.000  C
  C66      1.0000 0.42627  0.97626  0.43299  Biso   1.000  C
  O12      1.0000 0.49103  0.19164  0.81454  Biso   1.000  O
  H76      1.0000 0.49911  0.96748  0.02560  Biso   1.000  H
  H77      1.0000 0.50411  0.09808  0.99111  Biso   1.000  H
  C67      1.0000 0.45041  0.05600  0.02099  Biso   1.000  C
  C68      1.0000 0.39081  0.76376  0.46419  Biso   1.000  C
  H78      1.0000 0.44019  0.71907  0.52552  Biso   1.000  H
  C69      1.0000 0.38990  0.96148  0.40179  Biso   1.000  C
  O13      1.0000 0.44533  0.07921  0.42188  Biso   1.000  O
  C70      1.0000 0.49480  0.28224  0.73518  Biso   1.000  C
  C71      1.0000 0.42852  0.97131  0.06939  Biso   1.000  C
  C72      1.0000 0.43539  0.16677  0.00741  Biso   1.000  C
  O14      1.0000 0.37175  0.66603  0.48247  Biso   1.000  O
  C73      1.0000 0.37134  0.85740  0.41719  Biso   1.000  C
  H79      1.0000 0.37760  0.02348  0.36953  Biso   1.000  H
  C74      1.0000 0.42630  0.17129  0.37134  Biso   1.000  C
  H80      1.0000 0.51441  0.26346  0.68538  Biso   1.000  H
  H81      1.0000 0.47230  0.29032  0.69476  Biso   1.000  H
  H82      1.0000 0.50029  0.35397  0.77214  Biso   1.000  H
  O15      1.0000 0.44426  0.86410  0.07927  Biso   1.000  O
  C75      1.0000 0.39276  0.99904  0.10347  Biso   1.000  C
  H83      1.0000 0.44970  0.22563  0.97712  Biso   1.000  H
  C76      1.0000 0.39954  0.19068  0.03811  Biso   1.000  C
  C77      1.0000 0.39180  0.57751  0.54017  Biso   1.000  C
  C78      1.0000 0.33093  0.84749  0.38764  Biso   1.000  C
  H84      1.0000 0.42281  0.15407  0.29470  Biso   1.000  H
  H85      1.0000 0.40281  0.18111  0.40624  Biso   1.000  H
  H86      1.0000 0.44030  0.24172  0.37858  Biso   1.000  H
  C79      1.0000 0.42319  0.77619  0.13303  Biso   1.000  C
  H87      1.0000 0.37881  0.94218  0.13854  Biso   1.000  H
  C80      1.0000 0.37757  0.10608  0.08742  Biso   1.000  C
  O16      1.0000 0.38323  0.29893  0.02173  Biso   1.000  O
  C81      1.0000 0.36881  0.48057  0.56948  Biso   1.000  C
  H88      1.0000 0.41179  0.55030  0.49424  Biso   1.000  H
  H89      1.0000 0.40229  0.61056  0.60652  Biso   1.000  H
  H90      1.0000 0.32530  0.76732  0.36928  Biso   1.000  H
  H91      1.0000 0.32591  0.89479  0.32326  Biso   1.000  H
  C82      1.0000 0.30679  0.88627  0.48140  Biso   1.000  C
  H92      1.0000 0.40149  0.76011  0.09063  Biso   1.000  H
  H93      1.0000 0.43761  0.70672  0.13953  Biso   1.000  H
  H94      1.0000 0.41619  0.80271  0.20489  Biso   1.000  H
  C83      1.0000 0.33821  0.12921  0.11977  Biso   1.000  C
  C84      1.0000 0.40160  0.39240  0.95950  Biso   1.000  C
  H95      1.0000 0.35019  0.50700  0.62109  Biso   1.000  H
  H96      1.0000 0.35620  0.45318  0.50403  Biso   1.000  H
  C85      1.0000 0.39139  0.37023  0.62554  Biso   1.000  C
  C86      1.0000 0.29322  0.80750  0.55696  Biso   1.000  C
  C87      1.0000 0.29666  0.00409  0.49383  Biso   1.000  C
  C88      1.0000 0.31185  0.09756  0.03062  Biso   1.000  C
  H97      1.0000 0.33541  0.21103  0.13731  Biso   1.000  H
  H98      1.0000 0.33239  0.08486  0.18538  Biso   1.000  H
  H99      1.0000 0.41789  0.35893  0.90624  Biso   1.000  H
  H100     1.0000 0.38350  0.43883  0.92262  Biso   1.000  H
  H101     1.0000 0.41539  0.44048  0.00930  Biso   1.000  H
  H102     1.0000 0.40490  0.39831  0.68908  Biso   1.000  H
  H103     1.0000 0.40921  0.34136  0.57269  Biso   1.000  H
  C89      1.0000 0.36911  0.27945  0.65772  Biso   1.000  C
  C90      1.0000 0.27188  0.84245  0.64554  Biso   1.000  C
  H104     1.0000 0.29850  0.72898  0.54832  Biso   1.000  H
  O17      1.0000 0.30992  0.07886  0.41513  Biso   1.000  O
  C91      1.0000 0.27532  0.03808  0.58199  Biso   1.000  C
  C92      1.0000 0.29891  0.98418  0.01671  Biso   1.000  C
  C93      1.0000 0.29979  0.18007  0.95357  Biso   1.000  C
  H105     1.0000 0.35329  0.30502  0.71732  Biso   1.000  H
  H106     1.0000 0.35359  0.25633  0.59648  Biso   1.000  H
  C94      1.0000 0.39161  0.17685  0.69534  Biso   1.000  C
  O18      1.0000 0.25818  0.76602  0.72374  Biso   1.000  O
  C95      1.0000 0.26238  0.95887  0.66011  Biso   1.000  C
  C96      1.0000 0.29949  0.19746  0.42484  Biso   1.000  C
  H107     1.0000 0.26930  0.11634  0.58964  Biso   1.000  H
  C97      1.0000 0.27617  0.95400  0.93044  Biso   1.000  C
  O19      1.0000 0.31072  0.90601  0.09598  Biso   1.000  O
  C98      1.0000 0.27631  0.15216  0.86804  Biso   1.000  C
  H108     1.0000 0.30789  0.25641  0.96032  Biso   1.000  H
  H109     1.0000 0.40611  0.19920  0.75881  Biso   1.000  H
  H110     1.0000 0.40831  0.15407  0.63714  Biso   1.000  H
  C99      1.0000 0.36851  0.07947  0.72391  Biso   1.000  C
  C100     1.0000 0.26540  0.64647  0.70761  Biso   1.000  C
  C101     1.0000 0.24052  0.00104  0.75963  Biso   1.000  C
  H111     1.0000 0.30940  0.24067  0.36409  Biso   1.000  H
  H112     1.0000 0.27309  0.20329  0.42410  Biso   1.000  H
  H113     1.0000 0.30880  0.22859  0.49259  Biso   1.000  H
  C102     1.0000 0.26450  0.03721  0.85397  Biso   1.000  C
  H114     1.0000 0.26851  0.87723  0.92287  Biso   1.000  H
  C103     1.0000 0.29721  0.79132  0.08693  Biso   1.000  C
  O20      1.0000 0.26356  0.22963  0.79099  Biso   1.000  O
  H115     1.0000 0.35329  0.05947  0.66110  Biso   1.000  H
  H116     1.0000 0.35230  0.10208  0.78367  Biso   1.000  H
  C104     1.0000 0.38930  0.97878  0.75691  Biso   1.000  C
  H117     1.0000 0.25650  0.62316  0.63657  Biso   1.000  H
  H118     1.0000 0.29141  0.63299  0.71172  Biso   1.000  H
  H119     1.0000 0.25321  0.60212  0.76375  Biso   1.000  H
  H120     1.0000 0.22431  0.93922  0.78392  Biso   1.000  H
  H121     1.0000 0.22541  0.06643  0.73773  Biso   1.000  H
  H122     1.0000 0.30561  0.75750  0.01918  Biso   1.000  H
  H123     1.0000 0.30580  0.74585  0.14776  Biso   1.000  H
  H124     1.0000 0.27081  0.79271  0.08742  Biso   1.000  H
  C105     1.0000 0.27279  0.34927  0.80902  Biso   1.000  C
  H125     1.0000 0.40490  0.00113  0.81791  Biso   1.000  H
  H126     1.0000 0.40520  0.95740  0.69625  Biso   1.000  H
  C106     1.0000 0.36801  0.87158  0.79091  Biso   1.000  C
  H127     1.0000 0.25939  0.39710  0.75807  Biso   1.000  H
  H128     1.0000 0.26650  0.37075  0.88294  Biso   1.000  H
  H129     1.0000 0.29869  0.36023  0.79791  Biso   1.000  H
  H130     1.0000 0.35181  0.84949  0.73098  Biso   1.000  H
  H131     1.0000 0.35269  0.89131  0.85347  Biso   1.000  H
  C107     1.0000 0.39040  0.77245  0.81989  Biso   1.000  C
  H132     1.0000 0.40509  0.75167  0.75634  Biso   1.000  H
  H133     1.0000 0.40710  0.79576  0.87792  Biso   1.000  H
  C108     1.0000 0.37021  0.66620  0.85743  Biso   1.000  C
  H134     1.0000 0.35219  0.64507  0.80334  Biso   1.000  H
  H135     1.0000 0.38721  0.60325  0.86681  Biso   1.000  H
  H136     1.0000 0.35821  0.68203  0.92624  Biso   1.000  H
  C109     1.0000 0.25947  0.50100  0.25963  Biso   1.000  C
  C110     1.0000 0.23761  0.45892  0.16011  Biso   1.000  C
  H137     1.0000 0.27570  0.43918  0.28392  Biso   1.000  H
  H138     1.0000 0.27460  0.56639  0.23773  Biso   1.000  H
  C111     1.0000 0.23549  0.53717  0.35397  Biso   1.000  C
  C112     1.0000 0.22813  0.34249  0.14554  Biso   1.000  C
  C113     1.0000 0.22470  0.53813  0.08199  Biso   1.000  C
  C114     1.0000 0.22368  0.65220  0.36804  Biso   1.000  C
  C115     1.0000 0.22382  0.45396  0.43044  Biso   1.000  C
  O21      1.0000 0.24181  0.26598  0.22374  Biso   1.000  O
  C116     1.0000 0.20679  0.30745  0.05696  Biso   1.000  C
  H139     1.0000 0.23071  0.61629  0.08956  Biso   1.000  H
  C117     1.0000 0.20333  0.50413  0.99383  Biso   1.000  C
  O22      1.0000 0.23643  0.72959  0.29099  Biso   1.000  O
  C118     1.0000 0.20020  0.68011  0.45357  Biso   1.000  C
  C119     1.0000 0.20110  0.48422  0.51671  Biso   1.000  C
  H140     1.0000 0.23151  0.37718  0.42287  Biso   1.000  H
  C120     1.0000 0.23461  0.14651  0.20761  Biso   1.000  C
  H141     1.0000 0.20149  0.22902  0.04832  Biso   1.000  H
  C121     1.0000 0.19322  0.38631  0.98140  Biso   1.000  C
  O23      1.0000 0.19009  0.57891  0.91513  Biso   1.000  O
  C122     1.0000 0.22720  0.84932  0.30902  Biso   1.000  C
  H142     1.0000 0.19210  0.75637  0.46032  Biso   1.000  H
  C123     1.0000 0.18814  0.59760  0.53062  Biso   1.000  C
  O24      1.0000 0.18929  0.40596  0.59598  Biso   1.000  O
  H143     1.0000 0.24351  0.12321  0.13657  Biso   1.000  H
  H144     1.0000 0.20860  0.13303  0.21172  Biso   1.000  H
  H145     1.0000 0.24681  0.10208  0.26366  Biso   1.000  H
  C124     1.0000 0.16908  0.34753  0.88764  Biso   1.000  C
  C125     1.0000 0.20050  0.69750  0.92484  Biso   1.000  C
  H146     1.0000 0.24060  0.89705  0.25807  Biso   1.000  H
  H147     1.0000 0.23351  0.87079  0.38294  Biso   1.000  H
  H148     1.0000 0.20130  0.86019  0.29791  Biso   1.000  H
  C126     1.0000 0.16180  0.62916  0.61977  Biso   1.000  C
  C127     1.0000 0.20281  0.29128  0.58693  Biso   1.000  C
  C128     1.0000 0.12868  0.35736  0.91719  Biso   1.000  C
  H149     1.0000 0.17471  0.26728  0.86928  Biso   1.000  H
  H150     1.0000 0.17411  0.39484  0.82335  Biso   1.000  H
  H151     1.0000 0.19061  0.74072  0.86409  Biso   1.000  H
  H152     1.0000 0.22689  0.70333  0.92410  Biso   1.000  H
  H153     1.0000 0.19119  0.72855  0.99259  Biso   1.000  H
  H154     1.0000 0.16460  0.71098  0.63731  Biso   1.000  H
  H155     1.0000 0.16760  0.58491  0.68538  Biso   1.000  H
  C129     1.0000 0.12244  0.60612  0.58742  Biso   1.000  C
  H156     1.0000 0.19440  0.25746  0.51918  Biso   1.000  H
  H157     1.0000 0.19421  0.24589  0.64784  Biso   1.000  H
  H158     1.0000 0.22920  0.29267  0.58742  Biso   1.000  H
  C130     1.0000 0.11008  0.46153  0.90179  Biso   1.000  C
  C131     1.0000 0.10920  0.26380  0.96419  Biso   1.000  C
  C132     1.0000 0.10044  0.69072  0.53811  Biso   1.000  C
  C133     1.0000 0.10725  0.49909  0.60347  Biso   1.000  C
  C134     1.0000 0.07372  0.47631  0.93299  Biso   1.000  C
  H159     1.0000 0.12239  0.52352  0.86953  Biso   1.000  H
  O25      1.0000 0.12824  0.16599  0.98255  Biso   1.000  O
  C135     1.0000 0.07251  0.28102  0.99432  Biso   1.000  C
  O26      1.0000 0.11676  0.79889  0.52173  Biso   1.000  O
  C136     1.0000 0.06460  0.66681  0.50741  Biso   1.000  C
  C137     1.0000 0.07149  0.47126  0.56939  Biso   1.000  C
  H160     1.0000 0.12121  0.44222  0.63854  Biso   1.000  H
  O27      1.0000 0.05466  0.57917  0.92188  Biso   1.000  O
  C138     1.0000 0.05433  0.38501  0.98000  Biso   1.000  C
  C139     1.0000 0.10819  0.07747  0.04017  Biso   1.000  C
  H161     1.0000 0.05979  0.21911  0.02552  Biso   1.000  H
  C140     1.0000 0.09841  0.89236  0.45950  Biso   1.000  C
  H162     1.0000 0.05029  0.72559  0.47712  Biso   1.000  H
  C141     1.0000 0.04960  0.55595  0.52099  Biso   1.000  C
  O28      1.0000 0.05576  0.36406  0.57927  Biso   1.000  O
  C142     1.0000 0.07369  0.67125  0.87134  Biso   1.000  C
  C143     1.0000 0.01505  0.39823  0.01786  Biso   1.000  C
  H163     1.0000 0.09770  0.11060  0.10652  Biso   1.000  H
  C144     1.0000 0.13120  0.98061  0.06948  Biso   1.000  C
  H164     1.0000 0.08819  0.05026  0.99424  Biso   1.000  H
  H165     1.0000 0.08210  0.85888  0.40624  Biso   1.000  H
  H166     1.0000 0.11651  0.93879  0.42262  Biso   1.000  H
  H167     1.0000 0.08459  0.94053  0.50930  Biso   1.000  H
  C145     1.0000 0.01121  0.52969  0.48148  Biso   1.000  C
  C146     1.0000 0.07679  0.27624  0.63303  Biso   1.000  C
  H168     1.0000 0.07721  0.65412  0.79470  Biso   1.000  H
  H169     1.0000 0.09720  0.68107  0.90624  Biso   1.000  H
  H170     1.0000 0.05971  0.74167  0.87858  Biso   1.000  H
  C147     1.0000 0.01285  0.43266  0.13813  Biso   1.000  C
  H171     1.0000 0.00220  0.32528  0.00708  Biso   1.000  H
  H172     1.0000 0.00299  0.45700  0.97341  Biso   1.000  H
  H173     1.0000 0.14980  0.00704  0.12109  Biso   1.000  H
  H174     1.0000 0.14381  0.95322  0.00403  Biso   1.000  H
  C148     1.0000 0.10860  0.87019  0.12554  Biso   1.000  C
  C149     1.0000 0.01088  0.49413  0.36096  Biso   1.000  C
  H175     1.0000 0.00091  0.46752  0.52560  Biso   1.000  H
  H176     1.0000 0.99591  0.59812  0.49111  Biso   1.000  H
  H177     1.0000 0.09849  0.26006  0.59063  Biso   1.000  H
  H178     1.0000 0.06240  0.20668  0.63953  Biso   1.000  H
  H179     1.0000 0.08380  0.30267  0.70489  Biso   1.000  H
  C150     1.0000 0.01088  0.54752  0.16719  Biso   1.000  C
  C151     1.0000 0.01307  0.34936  0.22020  Biso   1.000  C
  H180     1.0000 0.09509  0.89827  0.18908  Biso   1.000  H
  H181     1.0000 0.09080  0.84141  0.07269  Biso   1.000  H
  C152     1.0000 0.13090  0.77950  0.15772  Biso   1.000  C
  C153     1.0000 0.00986  0.57969  0.27914  Biso   1.000  C
  C154     1.0000 0.01225  0.37962  0.32993  Biso   1.000  C
  H182     1.0000 0.01019  0.60447  0.11302  Biso   1.000  H
  O29      1.0000 0.01502  0.23450  0.18373  Biso   1.000  O
  H183     1.0000 0.14669  0.80497  0.21732  Biso   1.000  H
  H184     1.0000 0.14639  0.75628  0.09648  Biso   1.000  H
  C155     1.0000 0.10841  0.67690  0.19534  Biso   1.000  C
  O30      1.0000 0.00895  0.69159  0.31454  Biso   1.000  O
  H185     1.0000 0.01261  0.32171  0.38327  Biso   1.000  H
  C156     1.0000 0.01129  0.14616  0.26441  Biso   1.000  C
  H186     1.0000 0.09391  0.69916  0.25881  Biso   1.000  H
  H187     1.0000 0.09171  0.65412  0.13714  Biso   1.000  H
  C157     1.0000 0.13151  0.57951  0.22391  Biso   1.000  C
  C158     1.0000 0.00519  0.78219  0.23518  Biso   1.000  C
  H188     1.0000 0.01011  0.07182  0.22893  Biso   1.000  H
  H189     1.0000 0.03211  0.14799  0.31289  Biso   1.000  H
  H190     1.0000 0.98929  0.15912  0.30598  Biso   1.000  H
  H191     1.0000 0.14669  0.55952  0.16110  Biso   1.000  H
  H192     1.0000 0.14771  0.60212  0.28367  Biso   1.000  H
  C159     1.0000 0.11069  0.47883  0.25691  Biso   1.000  C
  H193     1.0000 0.02771  0.79028  0.19476  Biso   1.000  H
  H194     1.0000 0.98561  0.76350  0.18538  Biso   1.000  H
  H195     1.0000 0.99970  0.85401  0.27206  Biso   1.000  H
  H196     1.0000 0.09481  0.45735  0.19616  Biso   1.000  H
  H197     1.0000 0.09509  0.50109  0.31791  Biso   1.000  H
  C160     1.0000 0.13200  0.37162  0.29091  Biso   1.000  C
  H198     1.0000 0.14821  0.34953  0.23098  Biso   1.000  H
  H199     1.0000 0.14730  0.39127  0.35347  Biso   1.000  H
  C161     1.0000 0.10959  0.27250  0.31989  Biso   1.000  C
  H200     1.0000 0.09489  0.25172  0.25634  Biso   1.000  H
  H201     1.0000 0.09289  0.29580  0.37792  Biso   1.000  H
  C162     1.0000 0.12980  0.16616  0.35743  Biso   1.000  C
  H202     1.0000 0.14779  0.14512  0.30334  Biso   1.000  H
  H203     1.0000 0.11280  0.10330  0.36681  Biso   1.000  H
  H204     1.0000 0.14181  0.18198  0.42624  Biso   1.000  H
  O31      1.0000 0.75819  0.76602  0.77634  Biso   1.000  O
  C163     1.0000 0.76539  0.64647  0.79239  Biso   1.000  C
  C164     1.0000 0.77187  0.84245  0.85454  Biso   1.000  C
  H205     1.0000 0.75649  0.62316  0.86343  Biso   1.000  H
  H206     1.0000 0.79140  0.63299  0.78828  Biso   1.000  H
  H207     1.0000 0.75319  0.60212  0.73634  Biso   1.000  H
  C165     1.0000 0.76239  0.95887  0.83989  Biso   1.000  C
  C166     1.0000 0.79321  0.80750  0.94304  Biso   1.000  C
  C167     1.0000 0.77530  0.03808  0.91801  Biso   1.000  C
  C168     1.0000 0.74053  0.00104  0.74037  Biso   1.000  C
  H208     1.0000 0.79851  0.72898  0.95168  Biso   1.000  H
  C169     1.0000 0.80678  0.88627  0.01860  Biso   1.000  C
  H209     1.0000 0.76929  0.11634  0.91044  Biso   1.000  H
  C170     1.0000 0.79667  0.00409  0.00617  Biso   1.000  C
  H210     1.0000 0.72430  0.93922  0.71608  Biso   1.000  H
  H211     1.0000 0.72540  0.06643  0.76227  Biso   1.000  H
  C171     1.0000 0.76451  0.03721  0.64603  Biso   1.000  C
  C172     1.0000 0.83092  0.84749  0.11236  Biso   1.000  C
  O32      1.0000 0.80991  0.07886  0.08487  Biso   1.000  O
  C173     1.0000 0.77618  0.95400  0.56964  Biso   1.000  C
  C174     1.0000 0.77632  0.15216  0.63204  Biso   1.000  C
  C175     1.0000 0.87132  0.85740  0.08281  Biso   1.000  C
  H212     1.0000 0.82529  0.76732  0.13072  Biso   1.000  H
  H213     1.0000 0.82589  0.89479  0.17674  Biso   1.000  H
  C176     1.0000 0.79950  0.19746  0.07524  Biso   1.000  C
  C177     1.0000 0.79890  0.98418  0.48329  Biso   1.000  C
  H214     1.0000 0.76849  0.87723  0.57713  Biso   1.000  H
  O33      1.0000 0.76357  0.22963  0.70901  Biso   1.000  O
  C178     1.0000 0.79980  0.18007  0.54643  Biso   1.000  C
  C179     1.0000 0.88992  0.96148  0.09821  Biso   1.000  C
  C180     1.0000 0.89080  0.76376  0.03581  Biso   1.000  C
  H215     1.0000 0.80939  0.24067  0.13591  Biso   1.000  H
  H216     1.0000 0.77311  0.20329  0.07590  Biso   1.000  H
  H217     1.0000 0.80881  0.22859  0.00741  Biso   1.000  H
  O34      1.0000 0.81071  0.90601  0.40402  Biso   1.000  O
  C181     1.0000 0.81186  0.09756  0.46938  Biso   1.000  C
  C182     1.0000 0.77280  0.34927  0.69098  Biso   1.000  C
  H218     1.0000 0.80790  0.25641  0.53968  Biso   1.000  H
  C183     1.0000 0.92628  0.97626  0.06701  Biso   1.000  C
  H219     1.0000 0.87761  0.02348  0.13047  Biso   1.000  H
  O35      1.0000 0.87176  0.66603  0.01753  Biso   1.000  O
  C184     1.0000 0.92749  0.78098  0.00568  Biso   1.000  C
  C185     1.0000 0.79719  0.79132  0.41307  Biso   1.000  C
  C186     1.0000 0.83820  0.12921  0.38023  Biso   1.000  C
  H220     1.0000 0.75940  0.39710  0.74193  Biso   1.000  H
  H221     1.0000 0.76649  0.37075  0.61714  Biso   1.000  H
  H222     1.0000 0.79870  0.36023  0.70209  Biso   1.000  H
  C187     1.0000 0.94567  0.88497  0.02000  Biso   1.000  C
  O36      1.0000 0.94534  0.07921  0.07812  Biso   1.000  O
  C188     1.0000 0.89181  0.57751  0.95983  Biso   1.000  C
  H223     1.0000 0.94021  0.71907  0.97448  Biso   1.000  H
  H224     1.0000 0.80560  0.75750  0.48082  Biso   1.000  H
  H225     1.0000 0.80579  0.74585  0.35224  Biso   1.000  H
  H226     1.0000 0.77080  0.79271  0.41258  Biso   1.000  H
  H227     1.0000 0.83540  0.21103  0.36269  Biso   1.000  H
  H228     1.0000 0.83240  0.08486  0.31462  Biso   1.000  H
  C189     1.0000 0.87756  0.10608  0.41258  Biso   1.000  C
  C190     1.0000 0.98495  0.89818  0.98214  Biso   1.000  C
  C191     1.0000 0.92631  0.17129  0.12866  Biso   1.000  C
  H229     1.0000 0.90230  0.61056  0.89348  Biso   1.000  H
  C192     1.0000 0.86880  0.48057  0.93052  Biso   1.000  C
  H230     1.0000 0.91181  0.55030  0.00576  Biso   1.000  H
  C193     1.0000 0.89275  0.99904  0.39653  Biso   1.000  C
  C194     1.0000 0.89956  0.19068  0.46189  Biso   1.000  C
  C195     1.0000 0.98715  0.93270  0.86187  Biso   1.000  C
  H231     1.0000 0.99780  0.82532  0.99292  Biso   1.000  H
  H232     1.0000 0.99701  0.95696  0.02659  Biso   1.000  H
  H233     1.0000 0.92279  0.15407  0.20530  Biso   1.000  H
  H234     1.0000 0.90280  0.18111  0.09376  Biso   1.000  H
  H235     1.0000 0.94029  0.24172  0.12142  Biso   1.000  H
  H236     1.0000 0.85020  0.50700  0.87891  Biso   1.000  H
  H237     1.0000 0.85619  0.45318  0.99605  Biso   1.000  H
  C196     1.0000 0.89140  0.37023  0.87455  Biso   1.000  C
  C197     1.0000 0.92851  0.97131  0.43061  Biso   1.000  C
  H238     1.0000 0.87879  0.94218  0.36154  Biso   1.000  H
  O37      1.0000 0.88324  0.29893  0.47827  Biso   1.000  O
  C198     1.0000 0.93540  0.16677  0.49259  Biso   1.000  C
  C199     1.0000 0.98693  0.84940  0.77980  Biso   1.000  C
  C200     1.0000 0.98912  0.04747  0.83281  Biso   1.000  C
  H239     1.0000 0.90491  0.39831  0.81092  Biso   1.000  H
  H240     1.0000 0.90920  0.34136  0.92731  Biso   1.000  H
  C201     1.0000 0.86910  0.27945  0.84228  Biso   1.000  C
  O38      1.0000 0.94424  0.86410  0.42073  Biso   1.000  O
  C202     1.0000 0.95040  0.05600  0.47901  Biso   1.000  C
  C203     1.0000 0.90159  0.39240  0.54050  Biso   1.000  C
  H241     1.0000 0.94971  0.22563  0.52288  Biso   1.000  H
  O39      1.0000 0.98498  0.73446  0.81627  Biso   1.000  O
  C204     1.0000 0.98775  0.87958  0.67007  Biso   1.000  C
  C205     1.0000 0.99014  0.07973  0.72094  Biso   1.000  C
  H242     1.0000 0.98981  0.10451  0.88698  Biso   1.000  H
  H243     1.0000 0.85331  0.30502  0.78268  Biso   1.000  H
  H244     1.0000 0.85361  0.25633  0.90352  Biso   1.000  H
  C206     1.0000 0.89159  0.17685  0.80474  Biso   1.000  C
  C207     1.0000 0.92321  0.77619  0.36697  Biso   1.000  C
  C208     1.0000 0.98879  0.02974  0.51852  Biso   1.000  C
  H245     1.0000 0.91790  0.35893  0.59384  Biso   1.000  H
  H246     1.0000 0.88349  0.43883  0.57738  Biso   1.000  H
  H247     1.0000 0.91541  0.44048  0.49070  Biso   1.000  H
  C209     1.0000 0.98871  0.64620  0.73559  Biso   1.000  C
  C210     1.0000 0.98912  0.99409  0.63904  Biso   1.000  C
  H248     1.0000 0.98739  0.82167  0.61673  Biso   1.000  H
  O40      1.0000 0.99105  0.19164  0.68554  Biso   1.000  O
  H249     1.0000 0.90609  0.19920  0.74119  Biso   1.000  H
  H250     1.0000 0.90829  0.15407  0.86294  Biso   1.000  H
  C211     1.0000 0.86849  0.07947  0.77609  Biso   1.000  C
  H251     1.0000 0.90151  0.76011  0.40937  Biso   1.000  H
  H252     1.0000 0.93760  0.70672  0.36047  Biso   1.000  H
  H253     1.0000 0.91620  0.80271  0.29511  Biso   1.000  H
  H254     1.0000 0.99909  0.96748  0.47440  Biso   1.000  H
  H255     1.0000 0.00409  0.09808  0.50889  Biso   1.000  H
  H256     1.0000 0.98989  0.57178  0.77107  Biso   1.000  H
  H257     1.0000 0.96789  0.64803  0.68711  Biso   1.000  H
  H258     1.0000 0.01071  0.65907  0.69402  Biso   1.000  H
  C212     1.0000 0.99481  0.28224  0.76482  Biso   1.000  C
  H259     1.0000 0.85331  0.05947  0.83890  Biso   1.000  H
  H260     1.0000 0.85229  0.10208  0.71633  Biso   1.000  H
  C213     1.0000 0.88931  0.97878  0.74309  Biso   1.000  C
  H261     1.0000 0.97229  0.29032  0.80524  Biso   1.000  H
  H262     1.0000 0.01439  0.26346  0.81462  Biso   1.000  H
  H263     1.0000 0.00030  0.35397  0.72794  Biso   1.000  H
  H264     1.0000 0.90491  0.00113  0.68209  Biso   1.000  H
  H265     1.0000 0.90519  0.95740  0.80384  Biso   1.000  H
  C214     1.0000 0.86800  0.87158  0.70909  Biso   1.000  C
  H266     1.0000 0.85179  0.84949  0.76902  Biso   1.000  H
  H267     1.0000 0.85270  0.89131  0.64653  Biso   1.000  H
  C215     1.0000 0.89041  0.77245  0.68011  Biso   1.000  C
  H268     1.0000 0.90511  0.75167  0.74374  Biso   1.000  H
  H269     1.0000 0.90711  0.79576  0.62208  Biso   1.000  H
  C216     1.0000 0.87020  0.66620  0.64257  Biso   1.000  C
  H270     1.0000 0.85221  0.64507  0.69674  Biso   1.000  H
  H271     1.0000 0.88720  0.60325  0.63319  Biso   1.000  H
  H272     1.0000 0.85819  0.68203  0.57384  Biso   1.000  H
  Ne1      1.0000 0.12324  0.35017  0.24889  Biso   1.000  Ne
  He1      1.0000 0.12974  0.15388  0.35681  Biso   1.000  He
  He2      1.0000 0.11911  0.78146  0.15692  Biso   1.000  He
  Ar1      1.0000 0.12498  0.36191  0.28791  Biso   1.000  Ar
  Ne2      1.0000 0.37676  0.85017  0.74889  Biso   1.000  Ne
  He3      1.0000 0.37031  0.65595  0.85624  Biso   1.000  He
  He4      1.0000 0.38115  0.29891  0.65091  Biso   1.000  He
  Ar2      1.0000 0.37501  0.86192  0.78791  Biso   1.000  Ar
  Ne3      1.0000 0.62324  0.35017  0.25113  Biso   1.000  Ne
  He5      1.0000 0.61858  0.82297  0.35743  Biso   1.000  He
  He6      1.0000 0.62959  0.16086  0.14512  Biso   1.000  He
  Ar3      1.0000 0.62498  0.36191  0.21209  Biso   1.000  Ar
  Ne4      1.0000 0.87676  0.85017  0.75113  Biso   1.000  Ne
  He7      1.0000 0.88112  0.29660  0.84829  Biso   1.000  He
  He8      1.0000 0.87030  0.65530  0.64357  Biso   1.000  He
  Ar4      1.0000 0.87502  0.86191  0.71211  Biso   1.000  Ar
