data_image0
_cell_length_a       14.246
_cell_length_b       15.511
_cell_length_c       18.315
_cell_angle_alpha    95.75
_cell_angle_beta     104.02
_cell_angle_gamma    112.04

_symmetry_space_group_name_H-M    "P 1"
_symmetry_int_tables_number       1

loop_
  _symmetry_equiv_pos_as_xyz
  'x, y, z'

loop_
  _atom_site_label
  _atom_site_occupancy
  _atom_site_fract_x
  _atom_site_fract_y
  _atom_site_fract_z
  _atom_site_thermal_displace_type
  _atom_site_B_iso_or_equiv
  _atom_site_type_symbol
  C1       1.0000 0.60007  0.40016  0.41322  Biso   1.000  C
  C2       1.0000 0.57191  0.37155  0.33420  Biso   1.000  C
  C3       1.0000 0.60583  0.33385  0.45762  Biso   1.000  C
  H1       1.0000 0.61465  0.46193  0.43603  Biso   1.000  H
  N1       1.0000 0.54985  0.28405  0.29792  Biso   1.000  N
  N2       1.0000 0.56212  0.43443  0.28180  Biso   1.000  N
  C4       1.0000 0.58564  0.24515  0.42284  Biso   1.000  C
  H2       1.0000 0.62355  0.35035  0.51090  Biso   1.000  H
  C5       1.0000 0.55703  0.22220  0.34261  Biso   1.000  C
  C6       1.0000 0.59261  0.52911  0.30622  Biso   1.000  C
  C7       1.0000 0.52470  0.41121  0.20451  Biso   1.000  C
  H3       1.0000 0.59063  0.20014  0.45169  Biso   1.000  H
  N3       1.0000 0.53363  0.12910  0.30011  Biso   1.000  N
  N4       1.0000 0.57410  0.56428  0.24390  Biso   1.000  N
  H4       1.0000 0.62098  0.56290  0.35701  Biso   1.000  H
  H5       1.0000 0.49891  0.35071  0.17381  Biso   1.000  H
  C8       1.0000 0.53139  0.49191  0.17940  Biso   1.000  C
  C9       1.0000 0.55453  0.06006  0.33092  Biso   1.000  C
  C10      1.0000 0.49110  0.09750  0.22081  Biso   1.000  C
  C11      1.0000 0.60986  0.66791  0.24442  Biso   1.000  C
  H6       1.0000 0.51102  0.49752  0.12849  Biso   1.000  H
  H7       1.0000 0.58366  0.06336  0.38293  Biso   1.000  H
  N5       1.0000 0.52620  0.98694  0.27391  Biso   1.000  N
  C12      1.0000 0.48734  0.01102  0.20589  Biso   1.000  C
  H8       1.0000 0.46975  0.13054  0.18533  Biso   1.000  H
  H9       1.0000 0.60469  0.70048  0.29032  Biso   1.000  H
  H10      1.0000 0.56490  0.67726  0.19979  Biso   1.000  H
  C13      1.0000 0.72459  0.70832  0.24309  Biso   1.000  C
  C14      1.0000 0.54690  0.90041  0.28370  Biso   1.000  C
  H11      1.0000 0.46232  0.97219  0.15711  Biso   1.000  H
  C15      1.0000 0.74657  0.70947  0.17358  Biso   1.000  C
  C16      1.0000 0.80759  0.73650  0.31013  Biso   1.000  C
  C17      1.0000 0.65412  0.91573  0.27183  Biso   1.000  C
  H12      1.0000 0.49093  0.84523  0.24649  Biso   1.000  H
  H13      1.0000 0.54760  0.88913  0.33501  Biso   1.000  H
  H14      1.0000 0.69123  0.69238  0.12808  Biso   1.000  H
  C18      1.0000 0.85158  0.73630  0.17059  Biso   1.000  C
  C19      1.0000 0.91110  0.76491  0.30840  Biso   1.000  C
  H15      1.0000 0.79378  0.73641  0.35718  Biso   1.000  H
  C20      1.0000 0.74299  0.94151  0.33449  Biso   1.000  C
  C21      1.0000 0.66484  0.91073  0.19719  Biso   1.000  C
  H16      1.0000 0.86507  0.73553  0.12342  Biso   1.000  H
  C22      1.0000 0.93386  0.76361  0.23803  Biso   1.000  C
  H17      1.0000 0.96619  0.78503  0.35430  Biso   1.000  H
  C23      1.0000 0.84426  0.96626  0.32493  Biso   1.000  C
  H18      1.0000 0.73594  0.94254  0.38373  Biso   1.000  H
  H19      1.0000 0.60503  0.89094  0.15440  Biso   1.000  H
  C24      1.0000 0.76392  0.93523  0.18769  Biso   1.000  C
  C25      1.0000 0.04798  0.78538  0.23670  Biso   1.000  C
  C26      1.0000 0.85385  0.96423  0.24862  Biso   1.000  C
  H20      1.0000 0.90395  0.98365  0.36732  Biso   1.000  H
  H21      1.0000 0.76982  0.93180  0.13810  Biso   1.000  H
  N6       1.0000 0.06173  0.69344  0.23014  Biso   1.000  N
  H22      1.0000 0.06057  0.81390  0.19328  Biso   1.000  H
  H23      1.0000 0.09846  0.82989  0.28358  Biso   1.000  H
  C27      1.0000 0.96322  0.00343  0.23711  Biso   1.000  C
  C28      1.0000 0.08636  0.65628  0.28992  Biso   1.000  C
  C29      1.0000 0.03147  0.62732  0.16270  Biso   1.000  C
  N7       1.0000 0.99360  0.10522  0.23089  Biso   1.000  N
  H24      1.0000 0.96189  0.96664  0.19051  Biso   1.000  H
  H25      1.0000 0.01499  0.99902  0.28018  Biso   1.000  H
  N8       1.0000 0.07837  0.56850  0.26314  Biso   1.000  N
  H26      1.0000 0.10579  0.68538  0.34140  Biso   1.000  H
  H27      1.0000 0.00743  0.63507  0.11299  Biso   1.000  H
  C30      1.0000 0.04302  0.54963  0.18228  Biso   1.000  C
  C31      1.0000 0.96650  0.13483  0.16408  Biso   1.000  C
  C32      1.0000 0.03263  0.17744  0.28871  Biso   1.000  C
  C33      1.0000 0.09440  0.50315  0.30881  Biso   1.000  C
  H28      1.0000 0.03022  0.49441  0.14893  Biso   1.000  H
  C34      1.0000 0.99464  0.22994  0.18510  Biso   1.000  C
  H29      1.0000 0.93533  0.09754  0.11449  Biso   1.000  H
  N9       1.0000 0.03472  0.25592  0.26233  Biso   1.000  N
  H30      1.0000 0.05556  0.17524  0.34019  Biso   1.000  H
  N10      1.0000 0.06139  0.41392  0.26780  Biso   1.000  N
  C35      1.0000 0.13629  0.52909  0.38719  Biso   1.000  C
  H31      1.0000 0.98732  0.27013  0.15170  Biso   1.000  H
  C36      1.0000 0.07061  0.34899  0.30869  Biso   1.000  C
  C37      1.0000 0.14336  0.45983  0.42750  Biso   1.000  C
  H32      1.0000 0.15955  0.59174  0.41282  Biso   1.000  H
  C38      1.0000 0.11031  0.36770  0.38840  Biso   1.000  C
  H33      1.0000 0.17010  0.47531  0.48089  Biso   1.000  H
  H34      1.0000 0.11457  0.32014  0.41443  Biso   1.000  H
  C39      1.0000 0.40002  0.59994  0.58680  Biso   1.000  C
  C40      1.0000 0.39426  0.66625  0.54240  Biso   1.000  C
  H35      1.0000 0.38541  0.53810  0.56400  Biso   1.000  H
  C41      1.0000 0.42817  0.62856  0.66582  Biso   1.000  C
  C42      1.0000 0.41447  0.75497  0.57724  Biso   1.000  C
  H36      1.0000 0.37654  0.64976  0.48913  Biso   1.000  H
  N11      1.0000 0.45024  0.71605  0.70210  Biso   1.000  N
  N12      1.0000 0.43797  0.56567  0.71823  Biso   1.000  N
  C43      1.0000 0.44303  0.77783  0.65741  Biso   1.000  C
  H37      1.0000 0.40946  0.79996  0.54833  Biso   1.000  H
  C44      1.0000 0.40745  0.47093  0.69381  Biso   1.000  C
  C45      1.0000 0.47539  0.58889  0.79551  Biso   1.000  C
  N13      1.0000 0.46643  0.87093  0.69991  Biso   1.000  N
  N14      1.0000 0.42596  0.43575  0.75612  Biso   1.000  N
  H38      1.0000 0.37908  0.43714  0.64301  Biso   1.000  H
  H39      1.0000 0.50115  0.64933  0.82621  Biso   1.000  H
  C46      1.0000 0.46870  0.50820  0.82062  Biso   1.000  C
  C47      1.0000 0.44555  0.94004  0.66910  Biso   1.000  C
  C48      1.0000 0.50896  0.90254  0.77922  Biso   1.000  C
  C49      1.0000 0.39016  0.33219  0.75560  Biso   1.000  C
  H40      1.0000 0.48907  0.50258  0.87154  Biso   1.000  H
  H41      1.0000 0.41643  0.93675  0.61710  Biso   1.000  H
  N15      1.0000 0.47388  0.01316  0.72612  Biso   1.000  N
  C50      1.0000 0.51275  0.98908  0.79413  Biso   1.000  C
  H42      1.0000 0.53036  0.86958  0.81475  Biso   1.000  H
  H43      1.0000 0.39537  0.29955  0.70970  Biso   1.000  H
  H44      1.0000 0.43516  0.32277  0.80024  Biso   1.000  H
  C51      1.0000 0.27550  0.29178  0.75693  Biso   1.000  C
  C52      1.0000 0.45316  0.09962  0.71633  Biso   1.000  C
  H45      1.0000 0.53774  0.02784  0.84291  Biso   1.000  H
  C53      1.0000 0.25349  0.29056  0.82644  Biso   1.000  C
  C54      1.0000 0.19250  0.26355  0.68995  Biso   1.000  C
  C55      1.0000 0.34596  0.08432  0.72825  Biso   1.000  C
  H46      1.0000 0.50913  0.15481  0.75353  Biso   1.000  H
  H47      1.0000 0.45246  0.11090  0.66501  Biso   1.000  H
  H48      1.0000 0.30883  0.30766  0.87194  Biso   1.000  H
  C56      1.0000 0.14851  0.26380  0.82944  Biso   1.000  C
  C57      1.0000 0.08898  0.23519  0.69162  Biso   1.000  C
  H49      1.0000 0.20628  0.26363  0.64284  Biso   1.000  H
  C58      1.0000 0.25707  0.05853  0.66553  Biso   1.000  C
  C59      1.0000 0.33524  0.08937  0.80283  Biso   1.000  C
  H50      1.0000 0.13502  0.26458  0.87660  Biso   1.000  H
  C60      1.0000 0.06616  0.23644  0.76205  Biso   1.000  C
  H51      1.0000 0.03390  0.21507  0.64572  Biso   1.000  H
  C61      1.0000 0.15585  0.03386  0.67515  Biso   1.000  C
  H52      1.0000 0.26414  0.05750  0.61635  Biso   1.000  H
  H53      1.0000 0.39506  0.10916  0.84562  Biso   1.000  H
  C62      1.0000 0.23614  0.06481  0.81233  Biso   1.000  C
  C63      1.0000 0.95208  0.21466  0.76332  Biso   1.000  C
  C64      1.0000 0.14621  0.03580  0.75140  Biso   1.000  C
  H54      1.0000 0.09614  0.01645  0.63270  Biso   1.000  H
  H55      1.0000 0.23024  0.06823  0.86192  Biso   1.000  H
  N16      1.0000 0.93839  0.30667  0.76994  Biso   1.000  N
  H56      1.0000 0.93952  0.18621  0.80674  Biso   1.000  H
  H57      1.0000 0.90160  0.17014  0.71644  Biso   1.000  H
  C65      1.0000 0.03687  0.99668  0.76292  Biso   1.000  C
  C66      1.0000 0.91370  0.34375  0.71011  Biso   1.000  C
  C67      1.0000 0.96862  0.37278  0.83733  Biso   1.000  C
  N17      1.0000 0.00649  0.89488  0.76914  Biso   1.000  N
  H58      1.0000 0.98507  0.00101  0.71984  Biso   1.000  H
  H59      1.0000 0.03820  0.03346  0.80951  Biso   1.000  H
  N18      1.0000 0.92171  0.43155  0.73694  Biso   1.000  N
  H60      1.0000 0.89427  0.31465  0.65862  Biso   1.000  H
  H61      1.0000 0.99256  0.36497  0.88703  Biso   1.000  H
  C68      1.0000 0.95707  0.45048  0.81774  Biso   1.000  C
  C69      1.0000 0.03358  0.86527  0.83594  Biso   1.000  C
  C70      1.0000 0.96746  0.82266  0.71132  Biso   1.000  C
  C71      1.0000 0.90569  0.49695  0.69122  Biso   1.000  C
  H62      1.0000 0.96986  0.50564  0.85115  Biso   1.000  H
  C72      1.0000 0.00545  0.77017  0.81492  Biso   1.000  C
  H63      1.0000 0.06476  0.90257  0.88553  Biso   1.000  H
  N19      1.0000 0.96537  0.74413  0.73775  Biso   1.000  N
  H64      1.0000 0.94453  0.82486  0.65983  Biso   1.000  H
  N20      1.0000 0.93870  0.58618  0.73222  Biso   1.000  N
  C73      1.0000 0.86377  0.47094  0.61283  Biso   1.000  C
  H65      1.0000 0.01277  0.72997  0.84833  Biso   1.000  H
  C74      1.0000 0.92945  0.65104  0.69133  Biso   1.000  C
  H66      1.0000 0.84054  0.40836  0.58721  Biso   1.000  H
  C75      1.0000 0.85673  0.54027  0.57252  Biso   1.000  C
  C76      1.0000 0.88975  0.63234  0.61162  Biso   1.000  C
  H67      1.0000 0.82996  0.52472  0.51913  Biso   1.000  H
  H68      1.0000 0.88551  0.67996  0.58559  Biso   1.000  H
