data_image0
_cell_length_a       4.614
_cell_length_b       14.769
_cell_length_c       15.065
_cell_angle_alpha    90
_cell_angle_beta     90
_cell_angle_gamma    90

_symmetry_space_group_name_H-M    "P 1"
_symmetry_int_tables_number       1

loop_
  _symmetry_equiv_pos_as_xyz
  'x, y, z'

loop_
  _atom_site_label
  _atom_site_occupancy
  _atom_site_fract_x
  _atom_site_fract_y
  _atom_site_fract_z
  _atom_site_thermal_displace_type
  _atom_site_B_iso_or_equiv
  _atom_site_type_symbol
  N1       1.0000 0.76246  0.59151  0.59210  Biso   1.000  N
  C1       1.0000 0.71565  0.57147  0.67361  Biso   1.000  C
  C2       1.0000 0.90789  0.67229  0.56940  Biso   1.000  C
  C3       1.0000 0.52666  0.49699  0.70362  Biso   1.000  C
  N2       1.0000 0.82510  0.61318  0.75002  Biso   1.000  N
  N3       1.0000 0.79606  0.75002  0.60259  Biso   1.000  N
  C4       1.0000 0.13329  0.66701  0.50760  Biso   1.000  C
  C5       1.0000 0.35306  0.43788  0.65549  Biso   1.000  C
  C6       1.0000 0.52666  0.49699  0.79642  Biso   1.000  C
  C7       1.0000 0.71565  0.57147  0.82642  Biso   1.000  C
  H1       1.0000 0.97703  0.66497  0.75002  Biso   1.000  H
  C8       1.0000 0.90789  0.82768  0.56940  Biso   1.000  C
  C9       1.0000 0.24881  0.75002  0.47859  Biso   1.000  C
  H2       1.0000 0.21803  0.59896  0.48802  Biso   1.000  H
  C10      1.0000 0.18639  0.37680  0.70309  Biso   1.000  C
  H3       1.0000 0.36996  0.44099  0.59197  Biso   1.000  H
  C11      1.0000 0.35306  0.43788  0.84447  Biso   1.000  C
  N4       1.0000 0.76246  0.59151  0.90793  Biso   1.000  N
  N5       1.0000 0.76246  0.90846  0.59210  Biso   1.000  N
  C12      1.0000 0.13329  0.83296  0.50760  Biso   1.000  C
  H4       1.0000 0.44993  0.75002  0.43797  Biso   1.000  H
  C13      1.0000 0.18639  0.37680  0.79688  Biso   1.000  C
  H5       1.0000 0.06502  0.33299  0.67899  Biso   1.000  H
  H6       1.0000 0.36996  0.44099  0.90800  Biso   1.000  H
  C14      1.0000 0.90789  0.67229  0.93057  Biso   1.000  C
  C15      1.0000 0.71565  0.92850  0.67361  Biso   1.000  C
  H7       1.0000 0.21803  0.90101  0.48802  Biso   1.000  H
  H8       1.0000 0.06502  0.33299  0.82098  Biso   1.000  H
  N6       1.0000 0.79606  0.75002  0.89738  Biso   1.000  N
  C16      1.0000 0.13329  0.66701  0.99243  Biso   1.000  C
  N7       1.0000 0.82510  0.88679  0.75002  Biso   1.000  N
  C17      1.0000 0.52666  0.00298  0.70362  Biso   1.000  C
  C18      1.0000 0.90789  0.82768  0.93057  Biso   1.000  C
  C19      1.0000 0.24881  0.75002  0.02137  Biso   1.000  C
  H9       1.0000 0.21803  0.59896  0.01201  Biso   1.000  H
  C20      1.0000 0.71565  0.92850  0.82642  Biso   1.000  C
  H10      1.0000 0.97703  0.83499  0.75002  Biso   1.000  H
  C21      1.0000 0.35306  0.06209  0.65549  Biso   1.000  C
  C22      1.0000 0.52666  0.00298  0.79642  Biso   1.000  C
  N8       1.0000 0.76246  0.90846  0.90793  Biso   1.000  N
  C23      1.0000 0.13329  0.83296  0.99243  Biso   1.000  C
  H11      1.0000 0.44993  0.75002  0.06200  Biso   1.000  H
  C24      1.0000 0.18639  0.12323  0.70309  Biso   1.000  C
  H12      1.0000 0.36996  0.05897  0.59197  Biso   1.000  H
  C25      1.0000 0.35306  0.06209  0.84447  Biso   1.000  C
  H13      1.0000 0.21803  0.90101  0.01201  Biso   1.000  H
  C26      1.0000 0.18639  0.12323  0.79688  Biso   1.000  C
  H14      1.0000 0.06502  0.16697  0.67899  Biso   1.000  H
  H15      1.0000 0.36996  0.05897  0.90800  Biso   1.000  H
  H16      1.0000 0.06502  0.16697  0.82098  Biso   1.000  H
  N9       1.0000 0.23754  0.40849  0.40790  Biso   1.000  N
  C27      1.0000 0.09211  0.32771  0.43060  Biso   1.000  C
  C28      1.0000 0.28435  0.42847  0.32639  Biso   1.000  C
  N10      1.0000 0.20394  0.24998  0.39741  Biso   1.000  N
  C29      1.0000 0.86693  0.33299  0.49240  Biso   1.000  C
  C30      1.0000 0.47334  0.50301  0.29638  Biso   1.000  C
  N11      1.0000 0.17490  0.38682  0.24998  Biso   1.000  N
  C31      1.0000 0.09211  0.17232  0.43060  Biso   1.000  C
  C32      1.0000 0.75119  0.24998  0.52141  Biso   1.000  C
  H17      1.0000 0.78197  0.40098  0.51198  Biso   1.000  H
  C33      1.0000 0.47334  0.50301  0.20358  Biso   1.000  C
  C34      1.0000 0.64694  0.56206  0.34451  Biso   1.000  C
  C35      1.0000 0.28435  0.42847  0.17358  Biso   1.000  C
  H18      1.0000 0.02297  0.33503  0.24998  Biso   1.000  H
  N12      1.0000 0.23754  0.09148  0.40790  Biso   1.000  N
  C36      1.0000 0.86693  0.16697  0.49240  Biso   1.000  C
  H19      1.0000 0.55007  0.24998  0.56203  Biso   1.000  H
  C37      1.0000 0.64694  0.56206  0.15553  Biso   1.000  C
  C38      1.0000 0.81361  0.62320  0.29691  Biso   1.000  C
  H20      1.0000 0.63004  0.55901  0.40803  Biso   1.000  H
  N13      1.0000 0.23754  0.40849  0.09207  Biso   1.000  N
  C39      1.0000 0.28435  0.07150  0.32639  Biso   1.000  C
  H21      1.0000 0.78197  0.09899  0.51198  Biso   1.000  H
  C40      1.0000 0.81361  0.62320  0.20312  Biso   1.000  C
  H22      1.0000 0.63004  0.55901  0.09200  Biso   1.000  H
  H23      1.0000 0.93498  0.66701  0.32101  Biso   1.000  H
  C41      1.0000 0.09211  0.32771  0.06943  Biso   1.000  C
  N14      1.0000 0.17490  0.11321  0.24998  Biso   1.000  N
  C42      1.0000 0.47334  0.99695  0.29638  Biso   1.000  C
  H24      1.0000 0.93498  0.66701  0.17902  Biso   1.000  H
  N15      1.0000 0.20394  0.24998  0.10262  Biso   1.000  N
  C43      1.0000 0.86693  0.33299  0.00757  Biso   1.000  C
  C44      1.0000 0.28435  0.07150  0.17358  Biso   1.000  C
  H25      1.0000 0.02297  0.16501  0.24998  Biso   1.000  H
  C45      1.0000 0.47334  0.99695  0.20358  Biso   1.000  C
  C46      1.0000 0.64694  0.93791  0.34451  Biso   1.000  C
  C47      1.0000 0.09211  0.17232  0.06943  Biso   1.000  C
  C48      1.0000 0.75119  0.24998  0.97863  Biso   1.000  C
  H26      1.0000 0.78197  0.40098  0.98799  Biso   1.000  H
  N16      1.0000 0.23754  0.09148  0.09207  Biso   1.000  N
  C49      1.0000 0.64694  0.93791  0.15553  Biso   1.000  C
  C50      1.0000 0.81361  0.87677  0.29691  Biso   1.000  C
  H27      1.0000 0.63004  0.94096  0.40803  Biso   1.000  H
  C51      1.0000 0.86693  0.16697  0.00757  Biso   1.000  C
  H28      1.0000 0.55007  0.24998  0.93800  Biso   1.000  H
  C52      1.0000 0.81361  0.87677  0.20312  Biso   1.000  C
  H29      1.0000 0.63004  0.94096  0.09200  Biso   1.000  H
  H30      1.0000 0.93498  0.83296  0.32101  Biso   1.000  H
  H31      1.0000 0.78197  0.09899  0.98799  Biso   1.000  H
  H32      1.0000 0.93498  0.83296  0.17902  Biso   1.000  H
