data_image0
_cell_length_a       10.127
_cell_length_b       12.04
_cell_length_c       15.569
_cell_angle_alpha    90
_cell_angle_beta     90
_cell_angle_gamma    90

_symmetry_space_group_name_H-M    "P 1"
_symmetry_int_tables_number       1

loop_
  _symmetry_equiv_pos_as_xyz
  'x, y, z'

loop_
  _atom_site_label
  _atom_site_occupancy
  _atom_site_fract_x
  _atom_site_fract_y
  _atom_site_fract_z
  _atom_site_thermal_displace_type
  _atom_site_B_iso_or_equiv
  _atom_site_type_symbol
  N1       1.0000 0.28231  0.65108  0.51615  Biso   1.000  N
  C1       1.0000 0.20055  0.65673  0.44666  Biso   1.000  C
  C2       1.0000 0.31431  0.75000  0.54512  Biso   1.000  C
  N2       1.0000 0.15898  0.55814  0.41737  Biso   1.000  N
  N3       1.0000 0.15789  0.75000  0.40953  Biso   1.000  N
  N4       1.0000 0.28231  0.84892  0.51615  Biso   1.000  N
  Cl1      1.0000 0.41315  0.75000  0.63607  Biso   1.000  Cl
  C3       1.0000 0.07979  0.53945  0.34325  Biso   1.000  C
  H1       1.0000 0.18248  0.50042  0.44608  Biso   1.000  H
  C4       1.0000 0.20055  0.84327  0.44666  Biso   1.000  C
  C5       1.0000 0.12195  0.57492  0.26309  Biso   1.000  C
  C6       1.0000 0.96781  0.47458  0.35172  Biso   1.000  C
  N5       1.0000 0.15898  0.94186  0.41737  Biso   1.000  N
  C7       1.0000 0.05342  0.54020  0.19083  Biso   1.000  C
  H2       1.0000 0.19502  0.62118  0.25782  Biso   1.000  H
  H3       1.0000 0.93957  0.45233  0.40587  Biso   1.000  H
  C8       1.0000 0.89809  0.44302  0.27953  Biso   1.000  C
  H4       1.0000 0.18248  0.99958  0.44608  Biso   1.000  H
  C9       1.0000 0.07979  0.96055  0.34325  Biso   1.000  C
  N6       1.0000 0.10655  0.55839  0.10707  Biso   1.000  N
  C10      1.0000 0.94065  0.47575  0.19879  Biso   1.000  C
  H5       1.0000 0.82245  0.39983  0.28512  Biso   1.000  H
  C11      1.0000 0.12195  0.92508  0.26309  Biso   1.000  C
  C12      1.0000 0.96781  0.02542  0.35172  Biso   1.000  C
  H6       1.0000 0.11780  0.50091  0.07509  Biso   1.000  H
  C13      1.0000 0.14042  0.65664  0.07380  Biso   1.000  C
  H7       1.0000 0.89365  0.45449  0.15011  Biso   1.000  H
  C14      1.0000 0.05342  0.95980  0.19083  Biso   1.000  C
  H8       1.0000 0.19502  0.87882  0.25782  Biso   1.000  H
  H9       1.0000 0.93957  0.04767  0.40587  Biso   1.000  H
  C15      1.0000 0.89809  0.05698  0.27953  Biso   1.000  C
  N7       1.0000 0.10516  0.75000  0.11401  Biso   1.000  N
  N8       1.0000 0.20766  0.65108  0.99750  Biso   1.000  N
  N9       1.0000 0.10655  0.94161  0.10707  Biso   1.000  N
  C16      1.0000 0.94065  0.02425  0.19879  Biso   1.000  C
  H10      1.0000 0.82245  0.10017  0.28512  Biso   1.000  H
  C17      1.0000 0.14042  0.84336  0.07380  Biso   1.000  C
  C18      1.0000 0.23393  0.75000  0.96621  Biso   1.000  C
  H11      1.0000 0.11780  0.99909  0.07509  Biso   1.000  H
  H12      1.0000 0.89365  0.04551  0.15011  Biso   1.000  H
  N10      1.0000 0.20766  0.84892  0.99750  Biso   1.000  N
  Cl2      1.0000 0.31510  0.75000  0.86801  Biso   1.000  Cl
