data_image0
_cell_length_a       12.508
_cell_length_b       24.589
_cell_length_c       13.77
_cell_angle_alpha    90
_cell_angle_beta     99.06
_cell_angle_gamma    90

_symmetry_space_group_name_H-M    "P 1"
_symmetry_int_tables_number       1

loop_
  _symmetry_equiv_pos_as_xyz
  'x, y, z'

loop_
  _atom_site_label
  _atom_site_occupancy
  _atom_site_fract_x
  _atom_site_fract_y
  _atom_site_fract_z
  _atom_site_thermal_displace_type
  _atom_site_B_iso_or_equiv
  _atom_site_type_symbol
  C1       1.0000 0.51541  0.45980  0.40432  Biso   1.000  C
  C2       1.0000 0.40502  0.45899  0.38461  Biso   1.000  C
  C3       1.0000 0.56350  0.50592  0.38152  Biso   1.000  C
  H1       1.0000 0.55511  0.42999  0.43182  Biso   1.000  H
  C4       1.0000 0.34828  0.50230  0.34880  Biso   1.000  C
  H2       1.0000 0.36840  0.42739  0.39660  Biso   1.000  H
  C5       1.0000 0.50931  0.55220  0.34240  Biso   1.000  C
  H3       1.0000 0.63867  0.50689  0.39270  Biso   1.000  H
  O1       1.0000 0.23003  0.49811  0.31923  Biso   1.000  O
  C6       1.0000 0.39450  0.55008  0.32350  Biso   1.000  C
  N1       1.0000 0.56292  0.59791  0.31129  Biso   1.000  N
  C7       1.0000 0.16298  0.52499  0.36968  Biso   1.000  C
  H4       1.0000 0.35300  0.57920  0.29577  Biso   1.000  H
  H5       1.0000 0.59802  0.59360  0.26290  Biso   1.000  H
  C8       1.0000 0.56323  0.64590  0.34997  Biso   1.000  C
  N2       1.0000 0.20139  0.55590  0.43998  Biso   1.000  N
  N3       1.0000 0.05938  0.51389  0.33100  Biso   1.000  N
  N4       1.0000 0.51401  0.65460  0.43087  Biso   1.000  N
  N5       1.0000 0.62110  0.68051  0.30703  Biso   1.000  N
  C9       1.0000 0.12524  0.57851  0.48771  Biso   1.000  C
  C10      1.0000 0.99419  0.53870  0.38432  Biso   1.000  C
  C11      1.0000 0.51674  0.70430  0.45903  Biso   1.000  C
  C12      1.0000 0.61819  0.72951  0.34328  Biso   1.000  C
  O2       1.0000 0.14789  0.61328  0.56530  Biso   1.000  O
  N6       1.0000 0.01427  0.57139  0.45910  Biso   1.000  N
  Cl1      1.0000 0.85569  0.52837  0.34218  Biso   1.000  Cl
  O3       1.0000 0.46943  0.72142  0.53478  Biso   1.000  O
  N7       1.0000 0.56658  0.74570  0.42278  Biso   1.000  N
  Cl2      1.0000 0.68941  0.78088  0.29570  Biso   1.000  Cl
  C13      1.0000 0.25999  0.63081  0.60412  Biso   1.000  C
  C14      1.0000 0.41409  0.68388  0.58589  Biso   1.000  C
  C15      1.0000 0.31263  0.66481  0.54301  Biso   1.000  C
  C16      1.0000 0.30138  0.61950  0.70039  Biso   1.000  C
  C17      1.0000 0.45793  0.67400  0.68340  Biso   1.000  C
  H6       1.0000 0.28173  0.67372  0.47911  Biso   1.000  H
  H7       1.0000 0.26223  0.59860  0.73877  Biso   1.000  H
  C18      1.0000 0.40302  0.63972  0.73973  Biso   1.000  C
  H8       1.0000 0.52298  0.68998  0.71090  Biso   1.000  H
  H9       1.0000 0.43426  0.63040  0.80327  Biso   1.000  H
  C19      1.0000 0.48462  0.54020  0.59567  Biso   1.000  C
  C20      1.0000 0.43652  0.49408  0.61846  Biso   1.000  C
  C21      1.0000 0.59501  0.54101  0.61538  Biso   1.000  C
  H10      1.0000 0.44493  0.57001  0.56824  Biso   1.000  H
  C22      1.0000 0.49072  0.44780  0.65759  Biso   1.000  C
  H11      1.0000 0.36127  0.49311  0.60729  Biso   1.000  H
  C23      1.0000 0.65166  0.49770  0.65119  Biso   1.000  C
  H12      1.0000 0.63162  0.57261  0.60339  Biso   1.000  H
  N8       1.0000 0.43711  0.40209  0.68869  Biso   1.000  N
  C24      1.0000 0.60552  0.44992  0.67649  Biso   1.000  C
  O4       1.0000 0.77001  0.50189  0.68083  Biso   1.000  O
  C25      1.0000 0.43680  0.35410  0.65001  Biso   1.000  C
  H13      1.0000 0.40200  0.40640  0.73708  Biso   1.000  H
  H14      1.0000 0.64702  0.42080  0.70421  Biso   1.000  H
  C26      1.0000 0.83696  0.47501  0.63030  Biso   1.000  C
  N9       1.0000 0.48601  0.34540  0.56912  Biso   1.000  N
  N10      1.0000 0.37894  0.31949  0.69303  Biso   1.000  N
  N11      1.0000 0.79863  0.44410  0.56000  Biso   1.000  N
  N12      1.0000 0.94057  0.48611  0.66899  Biso   1.000  N
  C27      1.0000 0.48330  0.29570  0.54103  Biso   1.000  C
  C28      1.0000 0.38183  0.27049  0.65670  Biso   1.000  C
  C29      1.0000 0.87478  0.42149  0.51227  Biso   1.000  C
  C30      1.0000 0.00575  0.46130  0.61567  Biso   1.000  C
  O5       1.0000 0.53060  0.27858  0.46521  Biso   1.000  O
  N13      1.0000 0.43337  0.25430  0.57721  Biso   1.000  N
  Cl3      1.0000 0.31061  0.21912  0.70428  Biso   1.000  Cl
  O6       1.0000 0.85206  0.38672  0.43469  Biso   1.000  O
  N14      1.0000 0.98567  0.42861  0.54088  Biso   1.000  N
  Cl4      1.0000 0.14434  0.47163  0.65781  Biso   1.000  Cl
  C31      1.0000 0.58594  0.31612  0.41410  Biso   1.000  C
  C32      1.0000 0.73997  0.36919  0.39593  Biso   1.000  C
  C33      1.0000 0.54209  0.32600  0.31659  Biso   1.000  C
  C34      1.0000 0.68739  0.33519  0.45697  Biso   1.000  C
  C35      1.0000 0.69856  0.38050  0.29960  Biso   1.000  C
  C36      1.0000 0.59702  0.36028  0.26033  Biso   1.000  C
  H15      1.0000 0.47696  0.31002  0.28908  Biso   1.000  H
  H16      1.0000 0.71830  0.32628  0.52088  Biso   1.000  H
  H17      1.0000 0.73780  0.40140  0.26121  Biso   1.000  H
  H18      1.0000 0.56568  0.36960  0.19672  Biso   1.000  H
  N15      1.0000 0.76698  0.65379  0.67810  Biso   1.000  N
  C37      1.0000 0.78546  0.63492  0.76951  Biso   1.000  C
  C38      1.0000 0.85541  0.65180  0.63251  Biso   1.000  C
  N16      1.0000 0.69929  0.63659  0.81430  Biso   1.000  N
  N17      1.0000 0.88056  0.61532  0.81768  Biso   1.000  N
  Cl5      1.0000 0.83723  0.67160  0.50823  Biso   1.000  Cl
  N18      1.0000 0.95534  0.63581  0.67119  Biso   1.000  N
  C39      1.0000 0.69701  0.61731  0.90630  Biso   1.000  C
  H19      1.0000 0.64112  0.65090  0.78312  Biso   1.000  H
  C40      1.0000 0.96140  0.61711  0.76378  Biso   1.000  C
  C41      1.0000 0.63583  0.57542  0.91637  Biso   1.000  C
  C42      1.0000 0.75376  0.64419  0.98881  Biso   1.000  C
  O7       1.0000 0.06111  0.60059  0.80033  Biso   1.000  O
  H20      1.0000 0.60306  0.55651  0.86107  Biso   1.000  H
  C43      1.0000 0.61883  0.55830  0.01197  Biso   1.000  C
  H21      1.0000 0.80088  0.67262  0.98160  Biso   1.000  H
  C44      1.0000 0.73711  0.62650  0.08367  Biso   1.000  C
  C45      1.0000 0.08163  0.57688  0.89519  Biso   1.000  C
  H22      1.0000 0.57316  0.52938  0.01969  Biso   1.000  H
  C46      1.0000 0.67242  0.58620  0.09331  Biso   1.000  C
  O8       1.0000 0.78376  0.65590  0.17060  Biso   1.000  O
  C47      1.0000 0.09163  0.61182  0.97682  Biso   1.000  C
  C48      1.0000 0.09771  0.52340  0.89938  Biso   1.000  C
  H23      1.0000 0.66169  0.57570  0.15589  Biso   1.000  H
  C49      1.0000 0.89165  0.66261  0.20406  Biso   1.000  C
  H24      1.0000 0.07727  0.64879  0.96917  Biso   1.000  H
  C50      1.0000 0.12446  0.58860  0.07169  Biso   1.000  C
  C51      1.0000 0.12718  0.50331  0.99837  Biso   1.000  C
  H25      1.0000 0.09060  0.50120  0.84408  Biso   1.000  H
  N19      1.0000 0.96494  0.63740  0.15596  Biso   1.000  N
  N20      1.0000 0.91709  0.69389  0.28716  Biso   1.000  N
  O9       1.0000 0.14782  0.62162  0.15751  Biso   1.000  O
  C52      1.0000 0.14166  0.53329  0.08139  Biso   1.000  C
  H26      1.0000 0.13734  0.46590  0.00579  Biso   1.000  H
  C53      1.0000 0.06935  0.64480  0.19788  Biso   1.000  C
  C54      1.0000 0.02504  0.70052  0.31679  Biso   1.000  C
  H27      1.0000 0.16219  0.51739  0.14265  Biso   1.000  H
  N21      1.0000 0.10512  0.67591  0.27509  Biso   1.000  N
  Cl6      1.0000 0.06554  0.74090  0.41526  Biso   1.000  Cl
  N22      1.0000 0.23297  0.34621  0.32188  Biso   1.000  N
  C55      1.0000 0.14461  0.34820  0.36747  Biso   1.000  C
  C56      1.0000 0.21448  0.36508  0.23047  Biso   1.000  C
  Cl7      1.0000 0.16281  0.32840  0.49183  Biso   1.000  Cl
  N23      1.0000 0.04469  0.36419  0.32879  Biso   1.000  N
  N24      1.0000 0.11939  0.38468  0.18230  Biso   1.000  N
  N25      1.0000 0.30066  0.36341  0.18569  Biso   1.000  N
  C57      1.0000 0.03863  0.38289  0.23621  Biso   1.000  C
  H28      1.0000 0.35891  0.34910  0.21687  Biso   1.000  H
  C58      1.0000 0.30302  0.38269  0.09369  Biso   1.000  C
  O10      1.0000 0.93893  0.39941  0.19973  Biso   1.000  O
  C59      1.0000 0.24618  0.35581  0.01118  Biso   1.000  C
  C60      1.0000 0.36419  0.42458  0.08361  Biso   1.000  C
  C61      1.0000 0.91839  0.42312  0.10479  Biso   1.000  C
  H29      1.0000 0.19906  0.32738  0.01838  Biso   1.000  H
  C62      1.0000 0.26283  0.37350  0.91631  Biso   1.000  C
  H30      1.0000 0.39688  0.44349  0.13892  Biso   1.000  H
  C63      1.0000 0.38120  0.44170  0.98801  Biso   1.000  C
  C64      1.0000 0.90840  0.38818  0.02316  Biso   1.000  C
  C65      1.0000 0.90231  0.47660  0.10060  Biso   1.000  C
  O11      1.0000 0.21627  0.34410  0.82939  Biso   1.000  O
  C66      1.0000 0.32760  0.41380  0.90668  Biso   1.000  C
  H31      1.0000 0.42687  0.47062  0.98029  Biso   1.000  H
  C67      1.0000 0.87556  0.41140  0.92830  Biso   1.000  C
  H32      1.0000 0.92267  0.35121  0.03081  Biso   1.000  H
  C68      1.0000 0.87284  0.49669  0.00162  Biso   1.000  C
  H33      1.0000 0.90942  0.49880  0.15590  Biso   1.000  H
  C69      1.0000 0.10837  0.33739  0.79593  Biso   1.000  C
  H34      1.0000 0.33826  0.42430  0.84410  Biso   1.000  H
  O12      1.0000 0.85213  0.37838  0.84248  Biso   1.000  O
  C70      1.0000 0.85837  0.46671  0.91859  Biso   1.000  C
  H35      1.0000 0.86268  0.53410  0.99419  Biso   1.000  H
  N26      1.0000 0.03508  0.36260  0.84402  Biso   1.000  N
  N27      1.0000 0.08285  0.30611  0.71283  Biso   1.000  N
  C71      1.0000 0.93068  0.35520  0.80211  Biso   1.000  C
  H36      1.0000 0.83776  0.48261  0.85733  Biso   1.000  H
  C72      1.0000 0.97498  0.29948  0.68319  Biso   1.000  C
  N28      1.0000 0.89490  0.32409  0.72489  Biso   1.000  N
  Cl8      1.0000 0.93449  0.25910  0.58472  Biso   1.000  Cl
  C73      1.0000 0.47499  0.20050  0.18319  Biso   1.000  C
  N29      1.0000 0.39492  0.17589  0.22488  Biso   1.000  N
  Cl9      1.0000 0.43450  0.24092  0.08472  Biso   1.000  Cl
  N30      1.0000 0.58286  0.19391  0.21282  Biso   1.000  N
  C74      1.0000 0.43069  0.14478  0.30210  Biso   1.000  C
  C75      1.0000 0.60838  0.16259  0.29592  Biso   1.000  C
  O13      1.0000 0.35222  0.12160  0.34247  Biso   1.000  O
  N31      1.0000 0.53509  0.13742  0.34402  Biso   1.000  N
  O14      1.0000 0.71628  0.15588  0.32938  Biso   1.000  O
  C76      1.0000 0.37557  0.08862  0.42829  Biso   1.000  C
  C77      1.0000 0.76293  0.12652  0.41630  Biso   1.000  C
  C78      1.0000 0.40842  0.11180  0.52323  Biso   1.000  C
  C79      1.0000 0.35838  0.03331  0.41858  Biso   1.000  C
  C80      1.0000 0.74619  0.14421  0.51117  Biso   1.000  C
  C81      1.0000 0.82761  0.08622  0.40667  Biso   1.000  C
  C82      1.0000 0.41840  0.07690  0.60479  Biso   1.000  C
  H37      1.0000 0.42269  0.14881  0.53081  Biso   1.000  H
  H38      1.0000 0.33777  0.01741  0.35733  Biso   1.000  H
  C83      1.0000 0.37277  0.00329  0.50161  Biso   1.000  C
  H39      1.0000 0.69907  0.17260  0.51838  Biso   1.000  H
  C84      1.0000 0.80303  0.11729  0.59368  Biso   1.000  C
  C85      1.0000 0.88121  0.05832  0.48801  Biso   1.000  C
  H40      1.0000 0.83827  0.07568  0.34409  Biso   1.000  H
  O15      1.0000 0.43894  0.10061  0.69972  Biso   1.000  O
  C86      1.0000 0.40233  0.02338  0.60059  Biso   1.000  C
  H41      1.0000 0.36269  0.96592  0.49418  Biso   1.000  H
  N32      1.0000 0.80067  0.13661  0.68568  Biso   1.000  N
  C87      1.0000 0.86420  0.07540  0.58361  Biso   1.000  C
  H42      1.0000 0.92688  0.02940  0.48028  Biso   1.000  H
  C88      1.0000 0.53856  0.11708  0.73620  Biso   1.000  C
  H43      1.0000 0.40943  0.00122  0.65590  Biso   1.000  H
  C89      1.0000 0.71449  0.13490  0.73046  Biso   1.000  C
  H44      1.0000 0.85893  0.15088  0.71693  Biso   1.000  H
  H45      1.0000 0.89690  0.05649  0.63891  Biso   1.000  H
  N33      1.0000 0.61940  0.11530  0.68230  Biso   1.000  N
  N34      1.0000 0.54470  0.13579  0.82879  Biso   1.000  N
  N35      1.0000 0.73298  0.15381  0.82187  Biso   1.000  N
  C90      1.0000 0.64462  0.15182  0.86747  Biso   1.000  C
  Cl10     1.0000 0.66282  0.17158  0.99182  Biso   1.000  Cl
  C91      1.0000 0.52503  0.79950  0.81680  Biso   1.000  C
  N36      1.0000 0.41709  0.80609  0.78724  Biso   1.000  N
  N37      1.0000 0.60511  0.82411  0.77510  Biso   1.000  N
  Cl11     1.0000 0.56553  0.75908  0.91527  Biso   1.000  Cl
  C92      1.0000 0.39156  0.83741  0.70406  Biso   1.000  C
  C93      1.0000 0.56934  0.85522  0.69789  Biso   1.000  C
  O16      1.0000 0.28367  0.84412  0.67060  Biso   1.000  O
  N38      1.0000 0.46493  0.86258  0.65597  Biso   1.000  N
  O17      1.0000 0.64780  0.87840  0.65751  Biso   1.000  O
  C94      1.0000 0.23710  0.87348  0.58368  Biso   1.000  C
  C95      1.0000 0.62437  0.91138  0.57169  Biso   1.000  C
  C96      1.0000 0.25383  0.85579  0.48881  Biso   1.000  C
  C97      1.0000 0.17241  0.91378  0.59331  Biso   1.000  C
  C98      1.0000 0.59162  0.88820  0.47683  Biso   1.000  C
  C99      1.0000 0.64156  0.96669  0.58140  Biso   1.000  C
  C100     1.0000 0.19699  0.88271  0.40630  Biso   1.000  C
  H46      1.0000 0.30087  0.82740  0.48161  Biso   1.000  H
  C101     1.0000 0.11882  0.94168  0.51198  Biso   1.000  C
  H47      1.0000 0.16167  0.92432  0.65590  Biso   1.000  H
  C102     1.0000 0.58162  0.92310  0.39520  Biso   1.000  C
  H48      1.0000 0.57726  0.85119  0.46918  Biso   1.000  H
  C103     1.0000 0.62717  0.99671  0.49837  Biso   1.000  C
  H49      1.0000 0.66219  0.98259  0.64273  Biso   1.000  H
  N39      1.0000 0.19927  0.86339  0.31431  Biso   1.000  N
  C104     1.0000 0.13582  0.92460  0.41638  Biso   1.000  C
  H50      1.0000 0.07306  0.97060  0.51970  Biso   1.000  H
  O18      1.0000 0.56110  0.89939  0.30033  Biso   1.000  O
  C105     1.0000 0.59770  0.97662  0.39939  Biso   1.000  C
  H51      1.0000 0.63733  0.03408  0.50580  Biso   1.000  H
  C106     1.0000 0.28553  0.86510  0.26952  Biso   1.000  C
  H52      1.0000 0.14110  0.84912  0.28313  Biso   1.000  H
  H53      1.0000 0.10313  0.94351  0.36108  Biso   1.000  H
  C107     1.0000 0.46138  0.88292  0.26378  Biso   1.000  C
  H54      1.0000 0.59059  0.99878  0.34409  Biso   1.000  H
  N40      1.0000 0.26697  0.84619  0.17811  Biso   1.000  N
  N41      1.0000 0.38063  0.88470  0.31769  Biso   1.000  N
  N42      1.0000 0.45533  0.86421  0.17120  Biso   1.000  N
  C108     1.0000 0.35540  0.84818  0.13252  Biso   1.000  C
  Cl12     1.0000 0.33721  0.82842  0.00824  Biso   1.000  Cl
  N43      1.0000 0.06659  0.75428  0.92277  Biso   1.000  N
  C109     1.0000 0.01667  0.79568  0.95902  Biso   1.000  C
  C110     1.0000 0.11820  0.77051  0.84327  Biso   1.000  C
  O19      1.0000 0.96944  0.77860  0.03477  Biso   1.000  O
  N44      1.0000 0.01404  0.84542  0.93093  Biso   1.000  N
  N45      1.0000 0.12111  0.81951  0.80702  Biso   1.000  N
  Cl13     1.0000 0.18943  0.71914  0.79569  Biso   1.000  Cl
  C111     1.0000 0.91410  0.81610  0.08588  Biso   1.000  C
  C112     1.0000 0.06316  0.85408  0.84997  Biso   1.000  C
  C113     1.0000 0.81265  0.83521  0.04301  Biso   1.000  C
  C114     1.0000 0.95795  0.82602  0.18339  Biso   1.000  C
  N46      1.0000 0.06293  0.90211  0.81128  Biso   1.000  N
  C115     1.0000 0.76000  0.86921  0.10412  Biso   1.000  C
  H55      1.0000 0.78166  0.82630  0.97910  Biso   1.000  H
  C116     1.0000 0.90302  0.86030  0.23965  Biso   1.000  C
  H56      1.0000 0.02300  0.81000  0.21090  Biso   1.000  H
  C117     1.0000 0.00932  0.94778  0.84239  Biso   1.000  C
  H57      1.0000 0.09803  0.90638  0.76289  Biso   1.000  H
  O20      1.0000 0.64790  0.88670  0.06529  Biso   1.000  O
  C118     1.0000 0.80139  0.88052  0.20038  Biso   1.000  C
  H58      1.0000 0.93436  0.86962  0.30326  Biso   1.000  H
  C119     1.0000 0.89452  0.94990  0.82349  Biso   1.000  C
  C120     1.0000 0.06351  0.99410  0.88151  Biso   1.000  C
  C121     1.0000 0.62517  0.92151  0.98770  Biso   1.000  C
  H59      1.0000 0.76224  0.90142  0.23877  Biso   1.000  H
  C122     1.0000 0.84829  0.99768  0.84879  Biso   1.000  C
  H60      1.0000 0.85301  0.92082  0.79577  Biso   1.000  H
  C123     1.0000 0.01542  0.04018  0.90431  Biso   1.000  C
  H61      1.0000 0.13868  0.99309  0.89269  Biso   1.000  H
  N47      1.0000 0.51428  0.92859  0.95910  Biso   1.000  N
  N48      1.0000 0.70141  0.94408  0.93998  Biso   1.000  N
  O21      1.0000 0.73004  0.00191  0.81923  Biso   1.000  O
  C124     1.0000 0.90503  0.04099  0.88460  Biso   1.000  C
  H62      1.0000 0.05512  0.06999  0.93181  Biso   1.000  H
  C125     1.0000 0.49420  0.96128  0.88431  Biso   1.000  C
  C126     1.0000 0.66300  0.97499  0.86967  Biso   1.000  C
  H63      1.0000 0.86841  0.07259  0.89659  Biso   1.000  H
  Cl14     1.0000 0.35570  0.97161  0.84217  Biso   1.000  Cl
  N49      1.0000 0.55939  0.98609  0.83099  Biso   1.000  N
  N50      1.0000 0.93344  0.24572  0.07722  Biso   1.000  N
  C127     1.0000 0.98329  0.20432  0.04103  Biso   1.000  C
  C128     1.0000 0.88182  0.22949  0.15671  Biso   1.000  C
  N51      1.0000 0.98600  0.15458  0.06913  Biso   1.000  N
  O22      1.0000 0.03059  0.22140  0.96522  Biso   1.000  O
  N52      1.0000 0.87891  0.18049  0.19297  Biso   1.000  N
  Cl15     1.0000 0.81060  0.28086  0.20429  Biso   1.000  Cl
  C129     1.0000 0.93678  0.14592  0.15002  Biso   1.000  C
  C130     1.0000 0.08585  0.18390  0.91411  Biso   1.000  C
  N53      1.0000 0.93709  0.09789  0.18870  Biso   1.000  N
  C131     1.0000 0.18738  0.16479  0.95698  Biso   1.000  C
  C132     1.0000 0.04208  0.17398  0.81659  Biso   1.000  C
  C133     1.0000 0.99070  0.05222  0.15759  Biso   1.000  C
  H64      1.0000 0.90199  0.09362  0.23709  Biso   1.000  H
  C134     1.0000 0.23996  0.13079  0.89594  Biso   1.000  C
  H65      1.0000 0.21828  0.17370  0.02089  Biso   1.000  H
  C135     1.0000 0.09700  0.13970  0.76034  Biso   1.000  C
  H66      1.0000 0.97695  0.19000  0.78909  Biso   1.000  H
  C136     1.0000 0.10551  0.05010  0.17649  Biso   1.000  C
  C137     1.0000 0.93651  0.00590  0.11847  Biso   1.000  C
  O23      1.0000 0.35205  0.11330  0.93470  Biso   1.000  O
  C138     1.0000 0.19855  0.11948  0.79961  Biso   1.000  C
  H67      1.0000 0.06567  0.13038  0.69672  Biso   1.000  H
  C139     1.0000 0.15173  0.00232  0.15120  Biso   1.000  C
  H68      1.0000 0.14701  0.07918  0.20422  Biso   1.000  H
  C140     1.0000 0.98461  0.95982  0.09567  Biso   1.000  C
  H69      1.0000 0.86126  0.00691  0.10729  Biso   1.000  H
  C141     1.0000 0.37477  0.07849  0.01228  Biso   1.000  C
  H70      1.0000 0.23779  0.09858  0.76122  Biso   1.000  H
  O24      1.0000 0.27000  0.99809  0.18083  Biso   1.000  O
  C142     1.0000 0.09499  0.95901  0.11538  Biso   1.000  C
  H71      1.0000 0.94490  0.93001  0.06817  Biso   1.000  H
  N54      1.0000 0.29862  0.05592  0.06001  Biso   1.000  N
  N55      1.0000 0.48566  0.07141  0.04089  Biso   1.000  N
  C143     1.0000 0.33703  0.02501  0.13031  Biso   1.000  C
  H72      1.0000 0.13161  0.92741  0.10340  Biso   1.000  H
  C144     1.0000 0.50582  0.03872  0.11568  Biso   1.000  C
  N56      1.0000 0.44063  0.01391  0.16899  Biso   1.000  N
  Cl16     1.0000 0.64432  0.02839  0.15781  Biso   1.000  Cl
