data_image0
_cell_length_a       18.444
_cell_length_b       18.767
_cell_length_c       13.677
_cell_angle_alpha    90
_cell_angle_beta     104.28
_cell_angle_gamma    90

_symmetry_space_group_name_H-M    "P 1"
_symmetry_int_tables_number       1

loop_
  _symmetry_equiv_pos_as_xyz
  'x, y, z'

loop_
  _atom_site_label
  _atom_site_occupancy
  _atom_site_fract_x
  _atom_site_fract_y
  _atom_site_fract_z
  _atom_site_thermal_displace_type
  _atom_site_B_iso_or_equiv
  _atom_site_type_symbol
  N1       1.0000 0.56732  0.43177  0.49463  Biso   1.000  N
  C1       1.0000 0.52452  0.41600  0.39964  Biso   1.000  C
  C2       1.0000 0.62645  0.38999  0.51764  Biso   1.000  C
  N2       1.0000 0.46662  0.45937  0.36735  Biso   1.000  N
  N3       1.0000 0.53630  0.36271  0.34132  Biso   1.000  N
  Cl1      1.0000 0.68663  0.40992  0.63617  Biso   1.000  Cl
  N4       1.0000 0.64925  0.33660  0.47094  Biso   1.000  N
  C3       1.0000 0.41512  0.45409  0.27078  Biso   1.000  C
  H1       1.0000 0.45983  0.49289  0.40703  Biso   1.000  H
  C4       1.0000 0.59760  0.32472  0.38093  Biso   1.000  C
  C5       1.0000 0.35991  0.40289  0.25229  Biso   1.000  C
  C6       1.0000 0.41771  0.50408  0.19631  Biso   1.000  C
  N5       1.0000 0.61089  0.26680  0.32880  Biso   1.000  N
  C7       1.0000 0.30763  0.40150  0.16183  Biso   1.000  C
  H2       1.0000 0.35821  0.36911  0.30141  Biso   1.000  H
  C8       1.0000 0.36411  0.50179  0.10630  Biso   1.000  C
  H3       1.0000 0.45510  0.53850  0.20718  Biso   1.000  H
  C9       1.0000 0.56091  0.25151  0.23222  Biso   1.000  C
  C10      1.0000 0.67641  0.22241  0.36275  Biso   1.000  C
  O1       1.0000 0.24428  0.35701  0.14599  Biso   1.000  O
  C11      1.0000 0.30781  0.45090  0.08631  Biso   1.000  C
  H4       1.0000 0.36568  0.53557  0.05711  Biso   1.000  H
  C12      1.0000 0.49599  0.21309  0.22679  Biso   1.000  C
  C13      1.0000 0.57889  0.27580  0.14350  Biso   1.000  C
  H5       1.0000 0.70424  0.23808  0.42801  Biso   1.000  H
  H6       1.0000 0.66123  0.17382  0.36690  Biso   1.000  H
  H7       1.0000 0.70734  0.22577  0.31574  Biso   1.000  H
  C14      1.0000 0.25374  0.28587  0.14433  Biso   1.000  C
  H8       1.0000 0.27189  0.44999  0.02512  Biso   1.000  H
  C15      1.0000 0.44869  0.19801  0.13211  Biso   1.000  C
  H9       1.0000 0.48400  0.19742  0.28541  Biso   1.000  H
  C16      1.0000 0.53122  0.26030  0.05123  Biso   1.000  C
  H10      1.0000 0.62239  0.30191  0.14712  Biso   1.000  H
  N6       1.0000 0.31928  0.26008  0.13927  Biso   1.000  N
  N7       1.0000 0.19051  0.25108  0.14667  Biso   1.000  N
  N8       1.0000 0.38231  0.15687  0.12758  Biso   1.000  N
  C17      1.0000 0.46699  0.22039  0.04512  Biso   1.000  C
  H11      1.0000 0.54227  0.27682  0.99246  Biso   1.000  H
  C18      1.0000 0.31761  0.18799  0.13339  Biso   1.000  C
  C19      1.0000 0.20043  0.18261  0.14101  Biso   1.000  C
  C20      1.0000 0.38829  0.08142  0.10721  Biso   1.000  C
  H12      1.0000 0.43640  0.20872  0.98250  Biso   1.000  H
  N9       1.0000 0.25950  0.14510  0.13437  Biso   1.000  N
  Cl2      1.0000 0.12239  0.12991  0.14448  Biso   1.000  Cl
  H13      1.0000 0.34129  0.05851  0.10427  Biso   1.000  H
  H14      1.0000 0.40121  0.07550  0.04383  Biso   1.000  H
  H15      1.0000 0.42653  0.06032  0.16002  Biso   1.000  H
  N10      1.0000 0.43272  0.56818  0.50542  Biso   1.000  N
  C21      1.0000 0.37364  0.61001  0.48241  Biso   1.000  C
  C22      1.0000 0.47552  0.58400  0.60040  Biso   1.000  C
  Cl3      1.0000 0.31341  0.59008  0.36388  Biso   1.000  Cl
  N11      1.0000 0.35084  0.66340  0.52911  Biso   1.000  N
  N12      1.0000 0.46374  0.63729  0.65872  Biso   1.000  N
  N13      1.0000 0.53342  0.54058  0.63270  Biso   1.000  N
  C23      1.0000 0.40244  0.67528  0.61911  Biso   1.000  C
  H16      1.0000 0.54021  0.50711  0.59301  Biso   1.000  H
  C24      1.0000 0.58496  0.54591  0.72919  Biso   1.000  C
  N14      1.0000 0.38915  0.73320  0.67125  Biso   1.000  N
  C25      1.0000 0.64013  0.59711  0.74775  Biso   1.000  C
  C26      1.0000 0.58233  0.49587  0.80373  Biso   1.000  C
  C27      1.0000 0.43913  0.74849  0.76782  Biso   1.000  C
  C28      1.0000 0.32363  0.77759  0.63730  Biso   1.000  C
  H17      1.0000 0.64183  0.63089  0.69864  Biso   1.000  H
  C29      1.0000 0.69246  0.59850  0.83821  Biso   1.000  C
  C30      1.0000 0.63593  0.49821  0.89374  Biso   1.000  C
  H18      1.0000 0.54494  0.46150  0.79287  Biso   1.000  H
  C31      1.0000 0.42115  0.72420  0.85655  Biso   1.000  C
  C32      1.0000 0.50405  0.78686  0.77325  Biso   1.000  C
  H19      1.0000 0.29586  0.76187  0.57204  Biso   1.000  H
  H20      1.0000 0.33886  0.82618  0.63315  Biso   1.000  H
  H21      1.0000 0.29275  0.77418  0.68430  Biso   1.000  H
  O2       1.0000 0.75576  0.64299  0.85406  Biso   1.000  O
  C33      1.0000 0.69223  0.54910  0.91373  Biso   1.000  C
  H22      1.0000 0.63436  0.46438  0.94293  Biso   1.000  H
  C34      1.0000 0.46887  0.73970  0.94882  Biso   1.000  C
  H23      1.0000 0.37765  0.69809  0.85292  Biso   1.000  H
  C35      1.0000 0.55135  0.80199  0.86794  Biso   1.000  C
  H24      1.0000 0.51604  0.80258  0.71463  Biso   1.000  H
  C36      1.0000 0.74636  0.71407  0.85572  Biso   1.000  C
  H25      1.0000 0.72815  0.55001  0.97492  Biso   1.000  H
  C37      1.0000 0.53305  0.77956  0.95493  Biso   1.000  C
  H26      1.0000 0.45777  0.72318  0.00759  Biso   1.000  H
  N15      1.0000 0.61773  0.84308  0.87246  Biso   1.000  N
  N16      1.0000 0.68076  0.73986  0.86077  Biso   1.000  N
  N17      1.0000 0.80951  0.74887  0.85330  Biso   1.000  N
  H27      1.0000 0.56369  0.79128  0.01755  Biso   1.000  H
  C38      1.0000 0.68243  0.81196  0.86666  Biso   1.000  C
  C39      1.0000 0.61175  0.91858  0.89284  Biso   1.000  C
  C40      1.0000 0.79967  0.81739  0.85904  Biso   1.000  C
  N18      1.0000 0.74052  0.85490  0.86560  Biso   1.000  N
  H28      1.0000 0.65874  0.94149  0.89570  Biso   1.000  H
  H29      1.0000 0.59883  0.92450  0.95621  Biso   1.000  H
  H30      1.0000 0.57357  0.93968  0.84002  Biso   1.000  H
  Cl4      1.0000 0.87770  0.87009  0.85556  Biso   1.000  Cl
  C41      1.0000 0.61171  0.58139  0.39285  Biso   1.000  C
  N19      1.0000 0.61773  0.65690  0.37240  Biso   1.000  N
  H31      1.0000 0.65870  0.55848  0.39572  Biso   1.000  H
  H32      1.0000 0.59885  0.57548  0.45623  Biso   1.000  H
  H33      1.0000 0.57353  0.56029  0.34004  Biso   1.000  H
  C42      1.0000 0.68243  0.68796  0.36660  Biso   1.000  C
  C43      1.0000 0.55129  0.69798  0.36788  Biso   1.000  C
  N20      1.0000 0.74054  0.64507  0.36561  Biso   1.000  N
  N21      1.0000 0.68070  0.76006  0.36071  Biso   1.000  N
  C44      1.0000 0.53301  0.72036  0.45494  Biso   1.000  C
  C45      1.0000 0.50399  0.71306  0.27319  Biso   1.000  C
  C46      1.0000 0.79963  0.68258  0.35905  Biso   1.000  C
  C47      1.0000 0.74632  0.78590  0.35573  Biso   1.000  C
  H34      1.0000 0.56372  0.70869  0.51764  Biso   1.000  H
  C48      1.0000 0.46883  0.76027  0.44883  Biso   1.000  C
  C49      1.0000 0.43914  0.75148  0.26784  Biso   1.000  C
  H35      1.0000 0.51600  0.69739  0.21465  Biso   1.000  H
  Cl5      1.0000 0.87766  0.62988  0.35558  Biso   1.000  Cl
  N22      1.0000 0.80953  0.75111  0.35332  Biso   1.000  N
  O3       1.0000 0.75571  0.85698  0.35400  Biso   1.000  O
  H36      1.0000 0.45784  0.77679  0.50760  Biso   1.000  H
  C50      1.0000 0.42109  0.77578  0.35649  Biso   1.000  C
  N23      1.0000 0.38910  0.76677  0.17119  Biso   1.000  N
  C51      1.0000 0.69242  0.90148  0.33823  Biso   1.000  C
  H37      1.0000 0.37761  0.80189  0.35294  Biso   1.000  H
  C52      1.0000 0.40240  0.82469  0.11913  Biso   1.000  C
  C53      1.0000 0.32359  0.72239  0.13731  Biso   1.000  C
  C54      1.0000 0.64013  0.90286  0.24769  Biso   1.000  C
  C55      1.0000 0.69225  0.95087  0.41375  Biso   1.000  C
  N24      1.0000 0.35080  0.83657  0.02912  Biso   1.000  N
  N25      1.0000 0.46370  0.86268  0.15874  Biso   1.000  N
  H38      1.0000 0.29580  0.73810  0.07198  Biso   1.000  H
  H39      1.0000 0.33881  0.67379  0.13309  Biso   1.000  H
  H40      1.0000 0.29271  0.72580  0.18432  Biso   1.000  H
  C56      1.0000 0.58492  0.95407  0.22921  Biso   1.000  C
  H41      1.0000 0.64183  0.86908  0.19858  Biso   1.000  H
  H42      1.0000 0.72811  0.94997  0.47494  Biso   1.000  H
  C57      1.0000 0.63593  0.00181  0.39368  Biso   1.000  C
  C58      1.0000 0.37367  0.88997  0.98250  Biso   1.000  C
  C59      1.0000 0.47554  0.91597  0.10042  Biso   1.000  C
  N26      1.0000 0.53338  0.95940  0.13271  Biso   1.000  N
  C60      1.0000 0.58234  0.00410  0.30375  Biso   1.000  C
  H43      1.0000 0.63432  0.03559  0.44295  Biso   1.000  H
  N27      1.0000 0.43273  0.93180  0.00543  Biso   1.000  N
  Cl6      1.0000 0.31348  0.90990  0.86389  Biso   1.000  Cl
  H44      1.0000 0.54022  0.99286  0.09303  Biso   1.000  H
  H45      1.0000 0.54494  0.03853  0.29281  Biso   1.000  H
  C61      1.0000 0.38833  0.41861  0.60719  Biso   1.000  C
  N28      1.0000 0.38231  0.34310  0.62764  Biso   1.000  N
  H46      1.0000 0.34134  0.44147  0.60433  Biso   1.000  H
  H47      1.0000 0.40125  0.42447  0.54382  Biso   1.000  H
  H48      1.0000 0.42651  0.43971  0.66001  Biso   1.000  H
  C62      1.0000 0.44873  0.30202  0.63209  Biso   1.000  C
  C63      1.0000 0.31766  0.31198  0.63345  Biso   1.000  C
  C64      1.0000 0.46703  0.27959  0.54510  Biso   1.000  C
  C65      1.0000 0.49605  0.28689  0.72685  Biso   1.000  C
  N29      1.0000 0.25956  0.35488  0.63443  Biso   1.000  N
  N30      1.0000 0.31934  0.23989  0.63933  Biso   1.000  N
  H49      1.0000 0.43632  0.29131  0.48241  Biso   1.000  H
  C66      1.0000 0.53121  0.23968  0.55121  Biso   1.000  C
  C67      1.0000 0.56095  0.24852  0.73221  Biso   1.000  C
  H50      1.0000 0.48404  0.30261  0.78540  Biso   1.000  H
  C68      1.0000 0.20041  0.31742  0.64099  Biso   1.000  C
  C69      1.0000 0.25372  0.21410  0.64431  Biso   1.000  C
  H51      1.0000 0.54225  0.22321  0.49244  Biso   1.000  H
  C70      1.0000 0.57895  0.22417  0.64356  Biso   1.000  C
  N31      1.0000 0.61094  0.23318  0.82886  Biso   1.000  N
  Cl7      1.0000 0.12238  0.37012  0.64446  Biso   1.000  Cl
  N32      1.0000 0.19051  0.24889  0.64673  Biso   1.000  N
  O4       1.0000 0.24433  0.14302  0.64605  Biso   1.000  O
  H52      1.0000 0.62243  0.19811  0.64711  Biso   1.000  H
  C71      1.0000 0.59764  0.17531  0.88091  Biso   1.000  C
  C72      1.0000 0.67645  0.27761  0.86273  Biso   1.000  C
  C73      1.0000 0.30762  0.09852  0.66182  Biso   1.000  C
  N33      1.0000 0.64923  0.16337  0.97092  Biso   1.000  N
  N34      1.0000 0.53634  0.13732  0.84131  Biso   1.000  N
  H53      1.0000 0.70424  0.26190  0.92807  Biso   1.000  H
  H54      1.0000 0.66123  0.32621  0.86696  Biso   1.000  H
  H55      1.0000 0.70733  0.27420  0.81573  Biso   1.000  H
  C74      1.0000 0.35996  0.09709  0.75235  Biso   1.000  C
  C75      1.0000 0.30785  0.04908  0.58630  Biso   1.000  C
  C76      1.0000 0.62637  0.10998  0.01755  Biso   1.000  C
  C77      1.0000 0.52456  0.08398  0.89963  Biso   1.000  C
  C78      1.0000 0.41512  0.04588  0.77084  Biso   1.000  C
  H56      1.0000 0.35826  0.13092  0.80147  Biso   1.000  H
  H57      1.0000 0.27193  0.04998  0.52511  Biso   1.000  H
  C79      1.0000 0.36415  0.99819  0.60629  Biso   1.000  C
  N35      1.0000 0.56736  0.06820  0.99461  Biso   1.000  N
  Cl8      1.0000 0.68656  0.09005  0.13615  Biso   1.000  Cl
  N36      1.0000 0.46666  0.04060  0.86733  Biso   1.000  N
  C80      1.0000 0.41775  0.99590  0.69630  Biso   1.000  C
  H58      1.0000 0.36572  0.96441  0.55710  Biso   1.000  H
  H59      1.0000 0.45982  0.00709  0.90702  Biso   1.000  H
  H60      1.0000 0.45516  0.96147  0.70724  Biso   1.000  H
  O5       1.0000 0.75815  0.62077  0.61074  Biso   1.000  O
  C81      1.0000 0.82152  0.57660  0.63436  Biso   1.000  C
  C82      1.0000 0.76854  0.69180  0.61059  Biso   1.000  C
  C83      1.0000 0.83186  0.52907  0.56374  Biso   1.000  C
  C84      1.0000 0.86982  0.57766  0.73153  Biso   1.000  C
  N37      1.0000 0.70484  0.72686  0.61006  Biso   1.000  N
  N38      1.0000 0.83372  0.71748  0.60561  Biso   1.000  N
  C85      1.0000 0.89416  0.48058  0.58984  Biso   1.000  C
  H61      1.0000 0.79935  0.52800  0.49983  Biso   1.000  H
  H62      1.0000 0.86284  0.61081  0.77906  Biso   1.000  H
  C86      1.0000 0.92616  0.53061  0.75499  Biso   1.000  C
  C87      1.0000 0.71715  0.79640  0.60621  Biso   1.000  C
  C88      1.0000 0.83554  0.78857  0.60221  Biso   1.000  C
  C89      1.0000 0.93984  0.48159  0.68724  Biso   1.000  C
  H63      1.0000 0.90353  0.44898  0.54208  Biso   1.000  H
  N39      1.0000 0.97255  0.53040  0.85655  Biso   1.000  N
  Cl9      1.0000 0.63958  0.84958  0.60810  Biso   1.000  Cl
  N40      1.0000 0.77724  0.83247  0.60010  Biso   1.000  N
  N41      1.0000 0.90001  0.81910  0.59542  Biso   1.000  N
  H64      1.0000 0.97927  0.44941  0.70626  Biso   1.000  H
  H65      1.0000 0.96218  0.50019  0.89827  Biso   1.000  H
  C90      1.0000 0.03033  0.57367  0.89027  Biso   1.000  C
  C91      1.0000 0.96764  0.77796  0.60621  Biso   1.000  C
  C92      1.0000 0.90265  0.89577  0.57785  Biso   1.000  C
  N42      1.0000 0.06877  0.56338  0.98895  Biso   1.000  N
  N43      1.0000 0.04712  0.62061  0.82674  Biso   1.000  N
  C93      1.0000 0.98752  0.75766  0.51719  Biso   1.000  C
  C94      1.0000 0.01145  0.76278  0.69931  Biso   1.000  C
  H66      1.0000 0.85390  0.91586  0.57249  Biso   1.000  H
  H67      1.0000 0.91755  0.90419  0.51643  Biso   1.000  H
  H68      1.0000 0.93803  0.91767  0.63315  Biso   1.000  H
  C95      1.0000 0.12759  0.60628  0.01234  Biso   1.000  C
  C96      1.0000 0.10796  0.66057  0.86530  Biso   1.000  C
  H69      1.0000 0.95772  0.76848  0.45358  Biso   1.000  H
  C97      1.0000 0.05535  0.72009  0.53024  Biso   1.000  C
  H70      1.0000 0.99684  0.77738  0.75665  Biso   1.000  H
  C98      1.0000 0.07711  0.72606  0.70882  Biso   1.000  C
  N44      1.0000 0.15387  0.65317  0.95983  Biso   1.000  N
  Cl10     1.0000 0.18023  0.59471  0.13743  Biso   1.000  Cl
  N45      1.0000 0.12564  0.71199  0.80811  Biso   1.000  N
  C99      1.0000 0.10003  0.70390  0.62455  Biso   1.000  C
  H71      1.0000 0.07053  0.70560  0.47335  Biso   1.000  H
  C100     1.0000 0.19172  0.75841  0.84334  Biso   1.000  C
  H72      1.0000 0.14443  0.67880  0.63134  Biso   1.000  H
  H73      1.0000 0.21865  0.74386  0.90966  Biso   1.000  H
  H74      1.0000 0.17573  0.80690  0.84545  Biso   1.000  H
  H75      1.0000 0.22374  0.75446  0.79785  Biso   1.000  H
  O6       1.0000 0.24194  0.37918  0.38930  Biso   1.000  O
  C101     1.0000 0.23149  0.30820  0.38938  Biso   1.000  C
  C102     1.0000 0.17852  0.42340  0.36569  Biso   1.000  C
  N46      1.0000 0.29520  0.27309  0.38998  Biso   1.000  N
  N47      1.0000 0.16632  0.28252  0.39443  Biso   1.000  N
  C103     1.0000 0.13022  0.42228  0.26851  Biso   1.000  C
  C104     1.0000 0.16823  0.47088  0.43631  Biso   1.000  C
  C105     1.0000 0.28294  0.20360  0.39383  Biso   1.000  C
  C106     1.0000 0.16450  0.21138  0.39783  Biso   1.000  C
  H76      1.0000 0.13720  0.38919  0.22098  Biso   1.000  H
  C107     1.0000 0.07392  0.46939  0.24498  Biso   1.000  C
  C108     1.0000 0.10593  0.51937  0.41020  Biso   1.000  C
  H77      1.0000 0.20074  0.47200  0.50021  Biso   1.000  H
  Cl11     1.0000 0.36051  0.15042  0.39195  Biso   1.000  Cl
  N48      1.0000 0.22285  0.16747  0.39994  Biso   1.000  N
  N49      1.0000 0.10003  0.18090  0.40462  Biso   1.000  N
  N50      1.0000 0.02749  0.46960  0.14350  Biso   1.000  N
  C109     1.0000 0.06020  0.51841  0.31280  Biso   1.000  C
  H78      1.0000 0.09649  0.55097  0.45789  Biso   1.000  H
  C110     1.0000 0.03240  0.22199  0.39383  Biso   1.000  C
  C111     1.0000 0.09739  0.10417  0.42220  Biso   1.000  C
  H79      1.0000 0.03792  0.49981  0.10178  Biso   1.000  H
  C112     1.0000 0.96971  0.42628  0.10977  Biso   1.000  C
  H80      1.0000 0.02083  0.55059  0.29379  Biso   1.000  H
  C113     1.0000 0.01251  0.24229  0.48278  Biso   1.000  C
  C114     1.0000 0.98864  0.23717  0.30073  Biso   1.000  C
  H81      1.0000 0.14613  0.08408  0.42748  Biso   1.000  H
  H82      1.0000 0.08255  0.09581  0.48361  Biso   1.000  H
  H83      1.0000 0.06201  0.08227  0.36690  Biso   1.000  H
  N51      1.0000 0.93127  0.43656  0.01109  Biso   1.000  N
  N52      1.0000 0.95292  0.37939  0.17330  Biso   1.000  N
  H84      1.0000 0.04230  0.23147  0.54638  Biso   1.000  H
  C115     1.0000 0.94475  0.27991  0.46981  Biso   1.000  C
  H85      1.0000 0.00320  0.22257  0.24339  Biso   1.000  H
  C116     1.0000 0.92293  0.27389  0.29122  Biso   1.000  C
  C117     1.0000 0.87251  0.39367  0.98770  Biso   1.000  C
  C118     1.0000 0.89212  0.33937  0.13467  Biso   1.000  C
  C119     1.0000 0.90001  0.29610  0.37550  Biso   1.000  C
  H86      1.0000 0.92951  0.29440  0.52669  Biso   1.000  H
  N53      1.0000 0.87440  0.28801  0.19194  Biso   1.000  N
  N54      1.0000 0.84622  0.34678  0.04021  Biso   1.000  N
  Cl12     1.0000 0.81981  0.40529  0.86261  Biso   1.000  Cl
  H87      1.0000 0.85561  0.32120  0.36871  Biso   1.000  H
  C120     1.0000 0.80832  0.24159  0.15670  Biso   1.000  C
  H88      1.0000 0.78139  0.25609  0.09039  Biso   1.000  H
  H89      1.0000 0.82431  0.19310  0.15459  Biso   1.000  H
  H90      1.0000 0.77630  0.24548  0.20220  Biso   1.000  H
  C121     1.0000 0.71711  0.70358  0.10623  Biso   1.000  C
  Cl13     1.0000 0.63953  0.65040  0.10804  Biso   1.000  Cl
  N55      1.0000 0.70479  0.77306  0.11000  Biso   1.000  N
  N56      1.0000 0.77720  0.66750  0.10012  Biso   1.000  N
  C122     1.0000 0.76850  0.80817  0.11060  Biso   1.000  C
  C123     1.0000 0.83550  0.71141  0.10223  Biso   1.000  C
  O7       1.0000 0.75810  0.87920  0.11068  Biso   1.000  O
  N57      1.0000 0.83373  0.78249  0.10563  Biso   1.000  N
  N58      1.0000 0.90002  0.68088  0.09544  Biso   1.000  N
  C124     1.0000 0.82152  0.92338  0.13429  Biso   1.000  C
  C125     1.0000 0.96760  0.72196  0.10623  Biso   1.000  C
  C126     1.0000 0.90259  0.60420  0.07779  Biso   1.000  C
  C127     1.0000 0.86983  0.92226  0.23155  Biso   1.000  C
  C128     1.0000 0.83181  0.97085  0.06368  Biso   1.000  C
  C129     1.0000 0.98748  0.74226  0.01720  Biso   1.000  C
  C130     1.0000 0.01141  0.73720  0.19933  Biso   1.000  C
  H91      1.0000 0.85391  0.58411  0.07250  Biso   1.000  H
  H92      1.0000 0.91749  0.59578  0.01637  Biso   1.000  H
  H93      1.0000 0.93803  0.58230  0.13309  Biso   1.000  H
  H94      1.0000 0.86279  0.88917  0.27900  Biso   1.000  H
  C131     1.0000 0.92612  0.96936  0.25501  Biso   1.000  C
  H95      1.0000 0.79937  0.97197  0.99985  Biso   1.000  H
  C132     1.0000 0.89411  0.01940  0.08978  Biso   1.000  C
  H96      1.0000 0.95780  0.73150  0.95368  Biso   1.000  H
  C133     1.0000 0.05529  0.77988  0.03018  Biso   1.000  C
  H97      1.0000 0.99684  0.72260  0.25659  Biso   1.000  H
  C134     1.0000 0.07713  0.77386  0.20884  Biso   1.000  C
  N59      1.0000 0.97249  0.96957  0.35649  Biso   1.000  N
  C135     1.0000 0.93979  0.01838  0.18718  Biso   1.000  C
  H98      1.0000 0.90349  0.05099  0.04210  Biso   1.000  H
  H99      1.0000 0.07060  0.79437  0.97337  Biso   1.000  H
  C136     1.0000 0.09998  0.79608  0.12449  Biso   1.000  C
  N60      1.0000 0.12560  0.78798  0.30812  Biso   1.000  N
  H100     1.0000 0.96212  0.99979  0.39821  Biso   1.000  H
  C137     1.0000 0.03033  0.92631  0.39021  Biso   1.000  C
  H101     1.0000 0.97921  0.05062  0.20620  Biso   1.000  H
  H102     1.0000 0.14438  0.82118  0.13128  Biso   1.000  H
  C138     1.0000 0.10792  0.83940  0.36531  Biso   1.000  C
  C139     1.0000 0.19172  0.74157  0.34328  Biso   1.000  C
  N61      1.0000 0.06871  0.93659  0.48889  Biso   1.000  N
  N62      1.0000 0.04712  0.87936  0.32668  Biso   1.000  N
  N63      1.0000 0.15383  0.84681  0.45985  Biso   1.000  N
  H103     1.0000 0.21860  0.75606  0.40960  Biso   1.000  H
  H104     1.0000 0.17573  0.69308  0.34539  Biso   1.000  H
  H105     1.0000 0.22374  0.74551  0.29779  Biso   1.000  H
  C140     1.0000 0.12762  0.89370  0.51243  Biso   1.000  C
  Cl14     1.0000 0.18032  0.90526  0.63752  Biso   1.000  Cl
  C141     1.0000 0.28293  0.29637  0.89382  Biso   1.000  C
  N64      1.0000 0.29525  0.22689  0.89004  Biso   1.000  N
  Cl15     1.0000 0.36051  0.34960  0.89201  Biso   1.000  Cl
  N65      1.0000 0.22284  0.33250  0.89993  Biso   1.000  N
  C142     1.0000 0.23154  0.19177  0.88944  Biso   1.000  C
  C143     1.0000 0.16454  0.28859  0.89781  Biso   1.000  C
  O8       1.0000 0.24194  0.12080  0.88936  Biso   1.000  O
  N66      1.0000 0.16636  0.21751  0.89442  Biso   1.000  N
  N67      1.0000 0.10002  0.31907  0.90460  Biso   1.000  N
  C144     1.0000 0.17852  0.07662  0.86575  Biso   1.000  C
  C145     1.0000 0.03244  0.27799  0.89382  Biso   1.000  C
  C146     1.0000 0.09745  0.39580  0.92226  Biso   1.000  C
  C147     1.0000 0.13021  0.07769  0.76850  Biso   1.000  C
  C148     1.0000 0.16823  0.02909  0.93637  Biso   1.000  C
  C149     1.0000 0.01256  0.25769  0.98284  Biso   1.000  C
  C150     1.0000 0.98863  0.26280  0.80071  Biso   1.000  C
  H106     1.0000 0.14613  0.41589  0.92754  Biso   1.000  H
  H107     1.0000 0.08255  0.40417  0.98367  Biso   1.000  H
  H108     1.0000 0.06207  0.41770  0.86696  Biso   1.000  H
  H109     1.0000 0.13725  0.11078  0.72104  Biso   1.000  H
  C151     1.0000 0.07392  0.03059  0.74504  Biso   1.000  C
  C152     1.0000 0.10593  0.98060  0.91026  Biso   1.000  C
  H110     1.0000 0.20067  0.02797  0.00020  Biso   1.000  H
  C153     1.0000 0.94475  0.22012  0.96987  Biso   1.000  C
  H111     1.0000 0.04229  0.26850  0.04637  Biso   1.000  H
  H112     1.0000 0.00326  0.27740  0.74345  Biso   1.000  H
  C154     1.0000 0.92291  0.22609  0.79121  Biso   1.000  C
  N68      1.0000 0.02755  0.03043  0.64356  Biso   1.000  N
  C155     1.0000 0.06025  0.98156  0.81286  Biso   1.000  C
  H113     1.0000 0.09655  0.94901  0.95795  Biso   1.000  H
  C156     1.0000 0.90006  0.20392  0.87556  Biso   1.000  C
  H114     1.0000 0.92949  0.20557  0.02668  Biso   1.000  H
  N69      1.0000 0.87444  0.21202  0.69192  Biso   1.000  N
  H115     1.0000 0.03792  0.00021  0.60184  Biso   1.000  H
  C157     1.0000 0.96971  0.07369  0.60983  Biso   1.000  C
  H116     1.0000 0.02083  0.94938  0.79385  Biso   1.000  H
  H117     1.0000 0.85566  0.17877  0.86877  Biso   1.000  H
  C158     1.0000 0.89212  0.16060  0.63473  Biso   1.000  C
  C159     1.0000 0.80832  0.25838  0.65676  Biso   1.000  C
  N70      1.0000 0.93133  0.06341  0.51115  Biso   1.000  N
  N71      1.0000 0.95292  0.12058  0.67336  Biso   1.000  N
  N72      1.0000 0.84620  0.15319  0.54020  Biso   1.000  N
  H118     1.0000 0.78144  0.24389  0.59045  Biso   1.000  H
  H119     1.0000 0.82436  0.30687  0.65465  Biso   1.000  H
  H120     1.0000 0.77636  0.25449  0.70226  Biso   1.000  H
  C160     1.0000 0.87242  0.10630  0.48761  Biso   1.000  C
  Cl16     1.0000 0.81978  0.09474  0.36252  Biso   1.000  Cl
