data_image0
_cell_length_a       15.95
_cell_length_b       9.169
_cell_length_c       20.89
_cell_angle_alpha    90
_cell_angle_beta     90
_cell_angle_gamma    90

_symmetry_space_group_name_H-M    "P 1"
_symmetry_int_tables_number       1

loop_
  _symmetry_equiv_pos_as_xyz
  'x, y, z'

loop_
  _atom_site_label
  _atom_site_occupancy
  _atom_site_fract_x
  _atom_site_fract_y
  _atom_site_fract_z
  _atom_site_thermal_displace_type
  _atom_site_B_iso_or_equiv
  _atom_site_type_symbol
  C1       1.0000 0.47699  0.52852  0.54950  Biso   1.000  C
  C2       1.0000 0.40013  0.48348  0.52848  Biso   1.000  C
  C3       1.0000 0.49561  0.67477  0.55639  Biso   1.000  C
  H1       1.0000 0.51762  0.45926  0.55931  Biso   1.000  H
  C4       1.0000 0.33962  0.58578  0.51230  Biso   1.000  C
  H2       1.0000 0.38828  0.38445  0.52508  Biso   1.000  H
  C5       1.0000 0.43549  0.78013  0.54069  Biso   1.000  C
  N1       1.0000 0.57868  0.71044  0.57271  Biso   1.000  N
  H3       1.0000 0.28702  0.55600  0.49799  Biso   1.000  H
  C6       1.0000 0.35850  0.73323  0.51762  Biso   1.000  C
  H4       1.0000 0.44690  0.87894  0.54562  Biso   1.000  H
  H5       1.0000 0.61592  0.65831  0.55361  Biso   1.000  H
  C7       1.0000 0.61091  0.81274  0.61321  Biso   1.000  C
  N2       1.0000 0.29599  0.83052  0.49100  Biso   1.000  N
  N3       1.0000 0.56069  0.89835  0.64739  Biso   1.000  N
  N4       1.0000 0.69693  0.81296  0.61489  Biso   1.000  N
  H6       1.0000 0.26828  0.79605  0.45912  Biso   1.000  H
  C8       1.0000 0.27498  0.96455  0.50852  Biso   1.000  C
  C9       1.0000 0.60251  0.98408  0.68990  Biso   1.000  C
  C10      1.0000 0.72671  0.90206  0.65931  Biso   1.000  C
  N5       1.0000 0.21887  0.03097  0.46620  Biso   1.000  N
  N6       1.0000 0.30357  0.02639  0.56295  Biso   1.000  N
  N7       1.0000 0.68708  0.98931  0.69789  Biso   1.000  N
  N8       1.0000 0.55592  0.07307  0.72872  Biso   1.000  N
  Cl1      1.0000 0.83586  0.90064  0.66649  Biso   1.000  Cl
  C11      1.0000 0.20169  0.16643  0.48272  Biso   1.000  C
  C12      1.0000 0.27172  0.15923  0.57559  Biso   1.000  C
  C13      1.0000 0.46702  0.07318  0.72872  Biso   1.000  C
  C14      1.0000 0.59812  0.15901  0.77970  Biso   1.000  C
  Cl2      1.0000 0.14163  0.26502  0.42767  Biso   1.000  Cl
  N9       1.0000 0.22357  0.24005  0.53518  Biso   1.000  N
  N10      1.0000 0.28828  0.22129  0.63260  Biso   1.000  N
  C15      1.0000 0.42270  0.13655  0.67822  Biso   1.000  C
  C16      1.0000 0.42558  0.01810  0.78152  Biso   1.000  C
  H7       1.0000 0.64727  0.20460  0.76252  Biso   1.000  H
  H8       1.0000 0.61373  0.09532  0.81422  Biso   1.000  H
  H9       1.0000 0.56038  0.23252  0.79531  Biso   1.000  H
  C17      1.0000 0.33498  0.14320  0.68229  Biso   1.000  C
  C18      1.0000 0.24803  0.35849  0.65108  Biso   1.000  C
  H10      1.0000 0.45072  0.17330  0.64270  Biso   1.000  H
  C19      1.0000 0.33718  0.02792  0.78511  Biso   1.000  C
  H11      1.0000 0.45567  0.97481  0.81450  Biso   1.000  H
  C20      1.0000 0.29342  0.09314  0.73542  Biso   1.000  C
  H12      1.0000 0.18997  0.34082  0.66079  Biso   1.000  H
  H13      1.0000 0.25197  0.42698  0.61652  Biso   1.000  H
  H14      1.0000 0.27549  0.39764  0.68818  Biso   1.000  H
  H15      1.0000 0.30871  0.99095  0.82039  Biso   1.000  H
  H16      1.0000 0.23542  0.10296  0.73820  Biso   1.000  H
  N11      1.0000 0.71887  0.46897  0.53380  Biso   1.000  N
  C21      1.0000 0.70169  0.33362  0.51728  Biso   1.000  C
  C22      1.0000 0.77498  0.53539  0.49148  Biso   1.000  C
  N12      1.0000 0.72357  0.25990  0.46482  Biso   1.000  N
  Cl3      1.0000 0.64163  0.23492  0.57233  Biso   1.000  Cl
  N13      1.0000 0.80357  0.47355  0.43705  Biso   1.000  N
  N14      1.0000 0.79599  0.66954  0.50900  Biso   1.000  N
  C23      1.0000 0.77172  0.34082  0.42441  Biso   1.000  C
  H17      1.0000 0.76828  0.70389  0.54088  Biso   1.000  H
  C24      1.0000 0.85850  0.76682  0.48238  Biso   1.000  C
  N15      1.0000 0.78828  0.27866  0.36740  Biso   1.000  N
  C25      1.0000 0.83962  0.91417  0.48770  Biso   1.000  C
  C26      1.0000 0.93549  0.71993  0.45931  Biso   1.000  C
  C27      1.0000 0.74803  0.14145  0.34892  Biso   1.000  C
  C28      1.0000 0.83498  0.35675  0.31771  Biso   1.000  C
  H18      1.0000 0.78702  0.94405  0.50201  Biso   1.000  H
  C29      1.0000 0.90013  0.01647  0.47152  Biso   1.000  C
  C30      1.0000 0.99561  0.82517  0.44361  Biso   1.000  C
  H19      1.0000 0.94690  0.62111  0.45438  Biso   1.000  H
  H20      1.0000 0.68997  0.15923  0.33921  Biso   1.000  H
  H21      1.0000 0.75197  0.07296  0.38348  Biso   1.000  H
  H22      1.0000 0.77549  0.10241  0.31182  Biso   1.000  H
  C31      1.0000 0.79342  0.40691  0.26458  Biso   1.000  C
  C32      1.0000 0.92270  0.36351  0.32178  Biso   1.000  C
  C33      1.0000 0.97699  0.97153  0.45050  Biso   1.000  C
  H23      1.0000 0.88828  0.11550  0.47492  Biso   1.000  H
  N16      1.0000 0.07868  0.78962  0.42729  Biso   1.000  N
  H24      1.0000 0.73542  0.39699  0.26180  Biso   1.000  H
  C34      1.0000 0.83718  0.47213  0.21489  Biso   1.000  C
  C35      1.0000 0.96702  0.42676  0.27128  Biso   1.000  C
  H25      1.0000 0.95072  0.32675  0.35730  Biso   1.000  H
  H26      1.0000 0.01762  0.04068  0.44069  Biso   1.000  H
  C36      1.0000 0.11091  0.68732  0.38679  Biso   1.000  C
  H27      1.0000 0.11592  0.84175  0.44639  Biso   1.000  H
  H28      1.0000 0.80871  0.50900  0.17961  Biso   1.000  H
  C37      1.0000 0.92558  0.48195  0.21848  Biso   1.000  C
  N17      1.0000 0.05592  0.42687  0.27128  Biso   1.000  N
  N18      1.0000 0.06069  0.60170  0.35261  Biso   1.000  N
  N19      1.0000 0.19693  0.68699  0.38511  Biso   1.000  N
  H29      1.0000 0.95567  0.52525  0.18550  Biso   1.000  H
  C38      1.0000 0.10251  0.51587  0.31010  Biso   1.000  C
  C39      1.0000 0.09812  0.34104  0.22030  Biso   1.000  C
  C40      1.0000 0.22671  0.59788  0.34069  Biso   1.000  C
  N20      1.0000 0.18708  0.51074  0.30211  Biso   1.000  N
  H30      1.0000 0.14727  0.29545  0.23748  Biso   1.000  H
  H31      1.0000 0.11373  0.40473  0.18578  Biso   1.000  H
  H32      1.0000 0.06038  0.26753  0.20469  Biso   1.000  H
  Cl4      1.0000 0.33586  0.59941  0.33351  Biso   1.000  Cl
  C41      1.0000 0.57442  0.51805  0.71848  Biso   1.000  C
  C42      1.0000 0.53298  0.57324  0.77128  Biso   1.000  C
  C43      1.0000 0.66282  0.52787  0.71489  Biso   1.000  C
  H33      1.0000 0.54433  0.47475  0.68550  Biso   1.000  H
  N21      1.0000 0.44408  0.57313  0.77128  Biso   1.000  N
  C44      1.0000 0.57730  0.63649  0.82178  Biso   1.000  C
  C45      1.0000 0.70658  0.59309  0.76458  Biso   1.000  C
  H34      1.0000 0.69129  0.49100  0.67961  Biso   1.000  H
  C46      1.0000 0.40188  0.65896  0.72030  Biso   1.000  C
  C47      1.0000 0.39749  0.48413  0.81010  Biso   1.000  C
  C48      1.0000 0.66502  0.64325  0.81771  Biso   1.000  C
  H35      1.0000 0.54928  0.67325  0.85730  Biso   1.000  H
  H36      1.0000 0.76458  0.60301  0.76180  Biso   1.000  H
  H37      1.0000 0.35273  0.70455  0.73748  Biso   1.000  H
  H38      1.0000 0.38627  0.59527  0.68578  Biso   1.000  H
  H39      1.0000 0.43962  0.73247  0.70469  Biso   1.000  H
  N22      1.0000 0.43931  0.39830  0.85261  Biso   1.000  N
  N23      1.0000 0.31292  0.48926  0.80211  Biso   1.000  N
  N24      1.0000 0.71172  0.72134  0.86740  Biso   1.000  N
  C49      1.0000 0.38909  0.31268  0.88679  Biso   1.000  C
  C50      1.0000 0.27329  0.40212  0.84069  Biso   1.000  C
  C51      1.0000 0.72828  0.65918  0.92441  Biso   1.000  C
  C52      1.0000 0.75197  0.85855  0.84892  Biso   1.000  C
  N25      1.0000 0.30307  0.31301  0.88511  Biso   1.000  N
  N26      1.0000 0.42132  0.21038  0.92729  Biso   1.000  N
  Cl5      1.0000 0.16414  0.40059  0.83351  Biso   1.000  Cl
  N27      1.0000 0.77643  0.74010  0.96482  Biso   1.000  N
  N28      1.0000 0.69643  0.52645  0.93705  Biso   1.000  N
  H40      1.0000 0.81003  0.84077  0.83921  Biso   1.000  H
  H41      1.0000 0.74803  0.92704  0.88348  Biso   1.000  H
  H42      1.0000 0.72451  0.89759  0.81182  Biso   1.000  H
  H43      1.0000 0.38408  0.15825  0.94639  Biso   1.000  H
  C53      1.0000 0.50439  0.17483  0.94361  Biso   1.000  C
  C54      1.0000 0.79831  0.66638  0.01728  Biso   1.000  C
  C55      1.0000 0.72502  0.46461  0.99148  Biso   1.000  C
  C56      1.0000 0.52301  0.02847  0.95050  Biso   1.000  C
  C57      1.0000 0.56451  0.28007  0.95931  Biso   1.000  C
  Cl6      1.0000 0.85837  0.76508  0.07233  Biso   1.000  Cl
  N29      1.0000 0.78113  0.53103  0.03380  Biso   1.000  N
  N30      1.0000 0.70401  0.33046  0.00900  Biso   1.000  N
  H44      1.0000 0.48238  0.95932  0.94069  Biso   1.000  H
  C58      1.0000 0.59987  0.98353  0.97152  Biso   1.000  C
  C59      1.0000 0.64150  0.23318  0.98238  Biso   1.000  C
  H45      1.0000 0.55310  0.37889  0.95438  Biso   1.000  H
  H46      1.0000 0.73172  0.29611  0.04088  Biso   1.000  H
  C60      1.0000 0.66038  0.08583  0.98770  Biso   1.000  C
  H47      1.0000 0.61172  0.88450  0.97492  Biso   1.000  H
  H48      1.0000 0.71298  0.05595  0.00201  Biso   1.000  H
  C61      1.0000 0.16282  0.97208  0.28511  Biso   1.000  C
  C62      1.0000 0.20658  0.90686  0.23542  Biso   1.000  C
  C63      1.0000 0.07442  0.98190  0.28152  Biso   1.000  C
  H49      1.0000 0.19129  0.00905  0.32039  Biso   1.000  H
  C64      1.0000 0.16502  0.85680  0.18229  Biso   1.000  C
  H50      1.0000 0.26458  0.89704  0.23820  Biso   1.000  H
  C65      1.0000 0.03298  0.92682  0.22872  Biso   1.000  C
  H51      1.0000 0.04433  0.02519  0.31450  Biso   1.000  H
  N31      1.0000 0.21172  0.77871  0.13260  Biso   1.000  N
  C66      1.0000 0.07730  0.86345  0.17822  Biso   1.000  C
  N32      1.0000 0.94408  0.92693  0.22872  Biso   1.000  N
  C67      1.0000 0.22828  0.84077  0.07559  Biso   1.000  C
  C68      1.0000 0.25197  0.64151  0.15108  Biso   1.000  C
  H52      1.0000 0.04928  0.82670  0.14270  Biso   1.000  H
  C69      1.0000 0.89749  0.01592  0.18990  Biso   1.000  C
  C70      1.0000 0.90188  0.84099  0.27970  Biso   1.000  C
  N33      1.0000 0.19643  0.97361  0.06295  Biso   1.000  N
  N34      1.0000 0.27643  0.75995  0.03518  Biso   1.000  N
  H53      1.0000 0.31003  0.65918  0.16079  Biso   1.000  H
  H54      1.0000 0.24803  0.57302  0.11652  Biso   1.000  H
  H55      1.0000 0.22451  0.60236  0.18818  Biso   1.000  H
  N35      1.0000 0.93931  0.10165  0.14739  Biso   1.000  N
  N36      1.0000 0.81292  0.01069  0.19789  Biso   1.000  N
  H56      1.0000 0.85273  0.79540  0.26252  Biso   1.000  H
  H57      1.0000 0.88627  0.90468  0.31422  Biso   1.000  H
  H58      1.0000 0.93962  0.76748  0.29531  Biso   1.000  H
  C71      1.0000 0.22502  0.03545  0.00852  Biso   1.000  C
  C72      1.0000 0.29831  0.83357  0.98272  Biso   1.000  C
  C73      1.0000 0.88909  0.18726  0.11321  Biso   1.000  C
  C74      1.0000 0.77329  0.09794  0.15931  Biso   1.000  C
  N37      1.0000 0.20401  0.16948  0.99100  Biso   1.000  N
  N38      1.0000 0.28113  0.96903  0.96620  Biso   1.000  N
  Cl7      1.0000 0.35837  0.73498  0.92767  Biso   1.000  Cl
  N39      1.0000 0.92132  0.28956  0.07271  Biso   1.000  N
  N40      1.0000 0.80307  0.18704  0.11489  Biso   1.000  N
  Cl8      1.0000 0.66414  0.09936  0.16649  Biso   1.000  Cl
  C75      1.0000 0.14150  0.26677  0.01762  Biso   1.000  C
  H59      1.0000 0.23172  0.20395  0.95912  Biso   1.000  H
  C76      1.0000 0.00439  0.32523  0.05639  Biso   1.000  C
  H60      1.0000 0.88408  0.34169  0.05361  Biso   1.000  H
  C77      1.0000 0.16038  0.41422  0.01230  Biso   1.000  C
  C78      1.0000 0.06451  0.21987  0.04069  Biso   1.000  C
  C79      1.0000 0.02301  0.47148  0.04950  Biso   1.000  C
  C80      1.0000 0.09987  0.51652  0.02848  Biso   1.000  C
  H61      1.0000 0.21298  0.44400  0.99799  Biso   1.000  H
  H62      1.0000 0.05310  0.12106  0.04562  Biso   1.000  H
  H63      1.0000 0.98238  0.54074  0.05931  Biso   1.000  H
  H64      1.0000 0.11172  0.61555  0.02508  Biso   1.000  H
