data_image0
_cell_length_a       20.305
_cell_length_b       9.995
_cell_length_c       12.001
_cell_angle_alpha    90
_cell_angle_beta     107.29
_cell_angle_gamma    90

_symmetry_space_group_name_H-M    "P 1"
_symmetry_int_tables_number       1

loop_
  _symmetry_equiv_pos_as_xyz
  'x, y, z'

loop_
  _atom_site_label
  _atom_site_occupancy
  _atom_site_fract_x
  _atom_site_fract_y
  _atom_site_fract_z
  _atom_site_thermal_displace_type
  _atom_site_B_iso_or_equiv
  _atom_site_type_symbol
  C1       1.0000 0.15024  0.44832  0.38538  Biso   1.000  C
  C2       1.0000 0.13609  0.31786  0.34917  Biso   1.000  C
  H1       1.0000 0.17838  0.50065  0.35440  Biso   1.000  H
  C3       1.0000 0.12237  0.50115  0.46759  Biso   1.000  C
  N1       1.0000 0.17210  0.25933  0.27490  Biso   1.000  N
  C4       1.0000 0.09297  0.24002  0.39359  Biso   1.000  C
  H2       1.0000 0.13202  0.58909  0.49220  Biso   1.000  H
  C5       1.0000 0.08033  0.42421  0.51367  Biso   1.000  C
  C6       1.0000 0.24768  0.25443  0.32019  Biso   1.000  C
  C7       1.0000 0.13877  0.21541  0.16616  Biso   1.000  C
  C8       1.0000 0.06581  0.29385  0.47641  Biso   1.000  C
  H3       1.0000 0.08251  0.15258  0.36793  Biso   1.000  H
  H4       1.0000 0.06181  0.46003  0.56944  Biso   1.000  H
  H5       1.0000 0.26353  0.16738  0.30614  Biso   1.000  H
  H6       1.0000 0.26169  0.27194  0.40249  Biso   1.000  H
  H7       1.0000 0.26718  0.32086  0.28153  Biso   1.000  H
  N2       1.0000 0.17845  0.15698  0.10638  Biso   1.000  N
  N3       1.0000 0.07062  0.23602  0.12532  Biso   1.000  N
  N4       1.0000 0.02657  0.21141  0.53200  Biso   1.000  N
  C9       1.0000 0.14222  0.12166  0.00105  Biso   1.000  C
  C10      1.0000 0.04162  0.19170  0.01658  Biso   1.000  C
  C11      1.0000 0.06242  0.16368  0.64999  Biso   1.000  C
  C12      1.0000 0.95841  0.19170  0.48348  Biso   1.000  C
  Cl1      1.0000 0.19069  0.05553  0.91561  Biso   1.000  Cl
  N5       1.0000 0.07580  0.13087  0.94816  Biso   1.000  N
  N6       1.0000 0.97346  0.21141  0.96806  Biso   1.000  N
  H8       1.0000 0.06880  0.23682  0.70401  Biso   1.000  H
  H9       1.0000 0.10649  0.12776  0.65164  Biso   1.000  H
  H10      1.0000 0.03539  0.09525  0.67163  Biso   1.000  H
  N7       1.0000 0.92421  0.13087  0.55181  Biso   1.000  N
  N8       1.0000 0.92934  0.23602  0.37465  Biso   1.000  N
  C13      1.0000 0.93760  0.16368  0.84998  Biso   1.000  C
  C14      1.0000 0.93421  0.29385  0.02356  Biso   1.000  C
  C15      1.0000 0.85775  0.12166  0.49892  Biso   1.000  C
  C16      1.0000 0.86126  0.21541  0.33389  Biso   1.000  C
  H11      1.0000 0.93121  0.23682  0.79596  Biso   1.000  H
  H12      1.0000 0.89354  0.12776  0.84841  Biso   1.000  H
  H13      1.0000 0.96463  0.09525  0.82834  Biso   1.000  H
  C17      1.0000 0.91973  0.42421  0.98630  Biso   1.000  C
  C18      1.0000 0.90704  0.24002  0.10638  Biso   1.000  C
  Cl2      1.0000 0.80932  0.05553  0.58436  Biso   1.000  Cl
  N9       1.0000 0.82153  0.15698  0.39367  Biso   1.000  N
  N10      1.0000 0.82788  0.25933  0.22516  Biso   1.000  N
  H14      1.0000 0.93822  0.46003  0.93062  Biso   1.000  H
  C19      1.0000 0.87764  0.50115  0.03238  Biso   1.000  C
  C20      1.0000 0.86392  0.31786  0.15080  Biso   1.000  C
  H15      1.0000 0.91752  0.15258  0.13213  Biso   1.000  H
  C21      1.0000 0.75230  0.25443  0.17986  Biso   1.000  C
  C22      1.0000 0.84979  0.44832  0.11467  Biso   1.000  C
  H16      1.0000 0.86800  0.58909  0.00777  Biso   1.000  H
  H17      1.0000 0.73650  0.16738  0.19391  Biso   1.000  H
  H18      1.0000 0.73828  0.27194  0.09748  Biso   1.000  H
  H19      1.0000 0.73280  0.32086  0.21852  Biso   1.000  H
  H20      1.0000 0.82158  0.50065  0.14557  Biso   1.000  H
  C23      1.0000 0.35777  0.62171  0.49892  Biso   1.000  C
  N11      1.0000 0.32155  0.65703  0.39367  Biso   1.000  N
  Cl3      1.0000 0.30935  0.55548  0.58436  Biso   1.000  Cl
  N12      1.0000 0.42419  0.63082  0.55181  Biso   1.000  N
  C24      1.0000 0.36124  0.71546  0.33389  Biso   1.000  C
  C25      1.0000 0.45838  0.69165  0.48348  Biso   1.000  C
  N13      1.0000 0.42937  0.73597  0.37465  Biso   1.000  N
  N14      1.0000 0.32790  0.75938  0.22516  Biso   1.000  N
  N15      1.0000 0.52660  0.71146  0.53200  Biso   1.000  N
  C26      1.0000 0.36389  0.81791  0.15080  Biso   1.000  C
  C27      1.0000 0.25233  0.75448  0.17986  Biso   1.000  C
  C28      1.0000 0.56578  0.79390  0.47641  Biso   1.000  C
  C29      1.0000 0.56239  0.66373  0.64999  Biso   1.000  C
  C30      1.0000 0.34977  0.94837  0.11467  Biso   1.000  C
  C31      1.0000 0.40706  0.73997  0.10638  Biso   1.000  C
  H21      1.0000 0.23653  0.66743  0.19391  Biso   1.000  H
  H22      1.0000 0.23830  0.77189  0.09748  Biso   1.000  H
  H23      1.0000 0.23282  0.82091  0.21852  Biso   1.000  H
  C32      1.0000 0.58031  0.92426  0.51367  Biso   1.000  C
  C33      1.0000 0.59295  0.73997  0.39359  Biso   1.000  C
  H24      1.0000 0.56883  0.73677  0.70401  Biso   1.000  H
  H25      1.0000 0.60651  0.62781  0.65164  Biso   1.000  H
  H26      1.0000 0.53541  0.59520  0.67163  Biso   1.000  H
  H27      1.0000 0.32161  0.00070  0.14557  Biso   1.000  H
  C34      1.0000 0.37762  0.00110  0.03238  Biso   1.000  C
  C35      1.0000 0.43418  0.79390  0.02356  Biso   1.000  C
  H28      1.0000 0.41750  0.65263  0.13213  Biso   1.000  H
  H29      1.0000 0.56184  0.95998  0.56944  Biso   1.000  H
  C36      1.0000 0.62240  0.00110  0.46759  Biso   1.000  C
  C37      1.0000 0.63612  0.81791  0.34917  Biso   1.000  C
  H30      1.0000 0.58253  0.65263  0.36793  Biso   1.000  H
  C38      1.0000 0.41971  0.92426  0.98630  Biso   1.000  C
  H31      1.0000 0.36797  0.08914  0.00777  Biso   1.000  H
  N16      1.0000 0.47343  0.71146  0.96806  Biso   1.000  N
  C39      1.0000 0.65026  0.94837  0.38538  Biso   1.000  C
  H32      1.0000 0.63199  0.08914  0.49220  Biso   1.000  H
  N17      1.0000 0.67213  0.75938  0.27490  Biso   1.000  N
  H33      1.0000 0.43824  0.95998  0.93062  Biso   1.000  H
  C40      1.0000 0.54160  0.69165  0.01658  Biso   1.000  C
  C41      1.0000 0.43762  0.66373  0.84998  Biso   1.000  C
  H34      1.0000 0.67841  0.00070  0.35440  Biso   1.000  H
  C42      1.0000 0.63879  0.71546  0.16616  Biso   1.000  C
  C43      1.0000 0.74770  0.75448  0.32019  Biso   1.000  C
  N18      1.0000 0.57065  0.73597  0.12532  Biso   1.000  N
  N19      1.0000 0.57582  0.63082  0.94816  Biso   1.000  N
  H35      1.0000 0.43124  0.73677  0.79596  Biso   1.000  H
  H36      1.0000 0.39351  0.62781  0.84841  Biso   1.000  H
  H37      1.0000 0.46460  0.59520  0.82834  Biso   1.000  H
  N20      1.0000 0.67848  0.65703  0.10638  Biso   1.000  N
  H38      1.0000 0.76350  0.66743  0.30614  Biso   1.000  H
  H39      1.0000 0.76171  0.77189  0.40249  Biso   1.000  H
  H40      1.0000 0.76721  0.82091  0.28153  Biso   1.000  H
  C44      1.0000 0.64224  0.62171  0.00105  Biso   1.000  C
  Cl4      1.0000 0.69067  0.55548  0.91561  Biso   1.000  Cl
  C45      1.0000 0.25229  0.24552  0.67983  Biso   1.000  C
  N21      1.0000 0.32792  0.24062  0.72513  Biso   1.000  N
  H41      1.0000 0.23649  0.33257  0.69388  Biso   1.000  H
  H42      1.0000 0.23833  0.22811  0.59754  Biso   1.000  H
  H43      1.0000 0.23279  0.17909  0.71849  Biso   1.000  H
  C46      1.0000 0.36392  0.18209  0.65086  Biso   1.000  C
  C47      1.0000 0.36125  0.28454  0.83386  Biso   1.000  C
  C48      1.0000 0.40703  0.26003  0.60635  Biso   1.000  C
  C49      1.0000 0.34978  0.05163  0.61464  Biso   1.000  C
  N22      1.0000 0.32157  0.34297  0.89364  Biso   1.000  N
  N23      1.0000 0.42940  0.26403  0.87471  Biso   1.000  N
  C50      1.0000 0.43421  0.20610  0.52362  Biso   1.000  C
  H44      1.0000 0.41751  0.34737  0.63210  Biso   1.000  H
  C51      1.0000 0.37763  0.99890  0.53235  Biso   1.000  C
  H45      1.0000 0.32159  0.99930  0.64562  Biso   1.000  H
  C52      1.0000 0.35775  0.37829  0.99898  Biso   1.000  C
  C53      1.0000 0.45840  0.30835  0.98344  Biso   1.000  C
  N24      1.0000 0.47340  0.28854  0.46803  Biso   1.000  N
  C54      1.0000 0.41969  0.07574  0.48636  Biso   1.000  C
  H46      1.0000 0.36800  0.91086  0.50782  Biso   1.000  H
  Cl5      1.0000 0.30933  0.44452  0.08442  Biso   1.000  Cl
  N25      1.0000 0.42416  0.36918  0.05178  Biso   1.000  N
  N26      1.0000 0.52656  0.28854  0.03197  Biso   1.000  N
  C55      1.0000 0.43760  0.33627  0.35004  Biso   1.000  C
  C56      1.0000 0.54161  0.30835  0.51655  Biso   1.000  C
  H47      1.0000 0.43821  0.04002  0.43059  Biso   1.000  H
  C57      1.0000 0.56580  0.20610  0.97638  Biso   1.000  C
  C58      1.0000 0.56241  0.33627  0.14996  Biso   1.000  C
  H48      1.0000 0.43122  0.26323  0.29602  Biso   1.000  H
  H49      1.0000 0.39348  0.37219  0.34838  Biso   1.000  H
  H50      1.0000 0.46458  0.40480  0.32840  Biso   1.000  H
  N27      1.0000 0.57580  0.36918  0.44822  Biso   1.000  N
  N28      1.0000 0.57068  0.26403  0.62538  Biso   1.000  N
  C59      1.0000 0.59298  0.26003  0.89364  Biso   1.000  C
  C60      1.0000 0.58027  0.07574  0.01364  Biso   1.000  C
  H51      1.0000 0.56881  0.26323  0.20406  Biso   1.000  H
  H52      1.0000 0.60648  0.37219  0.15161  Biso   1.000  H
  H53      1.0000 0.53538  0.40480  0.17160  Biso   1.000  H
  C61      1.0000 0.64226  0.37829  0.50102  Biso   1.000  C
  C62      1.0000 0.63876  0.28454  0.66613  Biso   1.000  C
  C63      1.0000 0.63610  0.18209  0.84922  Biso   1.000  C
  H54      1.0000 0.58250  0.34737  0.86790  Biso   1.000  H
  C64      1.0000 0.62238  0.99890  0.96765  Biso   1.000  C
  H55      1.0000 0.56180  0.04002  0.06941  Biso   1.000  H
  Cl6      1.0000 0.69070  0.44452  0.41567  Biso   1.000  Cl
  N29      1.0000 0.67844  0.34297  0.60635  Biso   1.000  N
  N30      1.0000 0.67214  0.24062  0.77487  Biso   1.000  N
  C65      1.0000 0.65023  0.05163  0.88535  Biso   1.000  C
  H56      1.0000 0.63201  0.91086  0.99217  Biso   1.000  H
  C66      1.0000 0.74771  0.24552  0.82016  Biso   1.000  C
  H57      1.0000 0.67842  0.99930  0.85437  Biso   1.000  H
  H58      1.0000 0.76352  0.33257  0.80611  Biso   1.000  H
  H59      1.0000 0.76169  0.22811  0.90255  Biso   1.000  H
  H60      1.0000 0.76722  0.17909  0.78150  Biso   1.000  H
  N31      1.0000 0.17846  0.84302  0.60635  Biso   1.000  N
  C67      1.0000 0.14223  0.87834  0.50102  Biso   1.000  C
  C68      1.0000 0.13878  0.78459  0.66613  Biso   1.000  C
  Cl7      1.0000 0.19067  0.94447  0.41567  Biso   1.000  Cl
  N32      1.0000 0.07583  0.86913  0.44822  Biso   1.000  N
  N33      1.0000 0.07065  0.76398  0.62538  Biso   1.000  N
  N34      1.0000 0.17212  0.74067  0.77487  Biso   1.000  N
  C69      1.0000 0.04164  0.80830  0.51655  Biso   1.000  C
  C70      1.0000 0.13612  0.68214  0.84922  Biso   1.000  C
  C71      1.0000 0.24769  0.74557  0.82016  Biso   1.000  C
  N35      1.0000 0.97342  0.78859  0.46803  Biso   1.000  N
  C72      1.0000 0.15025  0.55168  0.88535  Biso   1.000  C
  C73      1.0000 0.09295  0.75998  0.89364  Biso   1.000  C
  H61      1.0000 0.26349  0.83262  0.80611  Biso   1.000  H
  H62      1.0000 0.26172  0.72806  0.90255  Biso   1.000  H
  H63      1.0000 0.26720  0.67914  0.78150  Biso   1.000  H
  C74      1.0000 0.93419  0.70615  0.52362  Biso   1.000  C
  C75      1.0000 0.93763  0.83632  0.35004  Biso   1.000  C
  H64      1.0000 0.17840  0.49935  0.85437  Biso   1.000  H
  C76      1.0000 0.12240  0.49885  0.96765  Biso   1.000  C
  C77      1.0000 0.06582  0.70615  0.97638  Biso   1.000  C
  H65      1.0000 0.08252  0.84742  0.86790  Biso   1.000  H
  C78      1.0000 0.91971  0.57579  0.48636  Biso   1.000  C
  C79      1.0000 0.90705  0.75998  0.60635  Biso   1.000  C
  H66      1.0000 0.93119  0.76318  0.29602  Biso   1.000  H
  H67      1.0000 0.89350  0.87224  0.34838  Biso   1.000  H
  H68      1.0000 0.96461  0.90475  0.32840  Biso   1.000  H
  H69      1.0000 0.13198  0.41091  0.99217  Biso   1.000  H
  C80      1.0000 0.08030  0.57579  0.01364  Biso   1.000  C
  N36      1.0000 0.02659  0.78859  0.03197  Biso   1.000  N
  C81      1.0000 0.87761  0.49885  0.53235  Biso   1.000  C
  H70      1.0000 0.93818  0.53997  0.43059  Biso   1.000  H
  C82      1.0000 0.86390  0.68214  0.65086  Biso   1.000  C
  H71      1.0000 0.91749  0.84742  0.63210  Biso   1.000  H
  H72      1.0000 0.06178  0.53997  0.06941  Biso   1.000  H
  C83      1.0000 0.95842  0.80830  0.98344  Biso   1.000  C
  C84      1.0000 0.06238  0.83632  0.14996  Biso   1.000  C
  C85      1.0000 0.84976  0.55168  0.61464  Biso   1.000  C
  H73      1.0000 0.86803  0.41091  0.50782  Biso   1.000  H
  N37      1.0000 0.82789  0.74067  0.72513  Biso   1.000  N
  N38      1.0000 0.92937  0.76398  0.87471  Biso   1.000  N
  N39      1.0000 0.92418  0.86913  0.05178  Biso   1.000  N
  H74      1.0000 0.06878  0.76318  0.20406  Biso   1.000  H
  H75      1.0000 0.10650  0.87224  0.15161  Biso   1.000  H
  H76      1.0000 0.03540  0.90475  0.17160  Biso   1.000  H
  H77      1.0000 0.82161  0.49935  0.64562  Biso   1.000  H
  C86      1.0000 0.86123  0.78459  0.83386  Biso   1.000  C
  C87      1.0000 0.75232  0.74557  0.67983  Biso   1.000  C
  C88      1.0000 0.85778  0.87834  0.99898  Biso   1.000  C
  N40      1.0000 0.82154  0.84302  0.89364  Biso   1.000  N
  H78      1.0000 0.73652  0.83262  0.69388  Biso   1.000  H
  H79      1.0000 0.73831  0.72806  0.59754  Biso   1.000  H
  H80      1.0000 0.73281  0.67914  0.71849  Biso   1.000  H
  Cl8      1.0000 0.80935  0.94447  0.08442  Biso   1.000  Cl
