data_image0
_cell_length_a       19.644
_cell_length_b       12.712
_cell_length_c       22.115
_cell_angle_alpha    90
_cell_angle_beta     90
_cell_angle_gamma    90

_symmetry_space_group_name_H-M    "P 1"
_symmetry_int_tables_number       1

loop_
  _symmetry_equiv_pos_as_xyz
  'x, y, z'

loop_
  _atom_site_label
  _atom_site_occupancy
  _atom_site_fract_x
  _atom_site_fract_y
  _atom_site_fract_z
  _atom_site_thermal_displace_type
  _atom_site_B_iso_or_equiv
  _atom_site_type_symbol
  C1       1.0000 0.27779  0.41803  0.56179  Biso   1.000  C
  C2       1.0000 0.20261  0.39404  0.56771  Biso   1.000  C
  H1       1.0000 0.29948  0.36186  0.54072  Biso   1.000  H
  H2       1.0000 0.28350  0.48143  0.53950  Biso   1.000  H
  H3       1.0000 0.29709  0.42542  0.60059  Biso   1.000  H
  C3       1.0000 0.17858  0.37303  0.50812  Biso   1.000  C
  C4       1.0000 0.16840  0.48419  0.60068  Biso   1.000  C
  C5       1.0000 0.20200  0.29696  0.60882  Biso   1.000  C
  H4       1.0000 0.20312  0.31592  0.49139  Biso   1.000  H
  H5       1.0000 0.13139  0.35620  0.50961  Biso   1.000  H
  H6       1.0000 0.18479  0.43376  0.48361  Biso   1.000  H
  C6       1.0000 0.19090  0.51723  0.65901  Biso   1.000  C
  C7       1.0000 0.11210  0.53178  0.57811  Biso   1.000  C
  H7       1.0000 0.22333  0.24009  0.58820  Biso   1.000  H
  H8       1.0000 0.22613  0.31238  0.64472  Biso   1.000  H
  H9       1.0000 0.15638  0.27903  0.61800  Biso   1.000  H
  C8       1.0000 0.16041  0.59747  0.69012  Biso   1.000  C
  H10      1.0000 0.22831  0.48206  0.67710  Biso   1.000  H
  C9       1.0000 0.07539  0.61233  0.60882  Biso   1.000  C
  H11      1.0000 0.09662  0.50999  0.53918  Biso   1.000  H
  C10      1.0000 0.10410  0.64372  0.66448  Biso   1.000  C
  C11      1.0000 0.18092  0.62649  0.75311  Biso   1.000  C
  C12      1.0000 0.00580  0.64608  0.58729  Biso   1.000  C
  O1       1.0000 0.06969  0.72026  0.69898  Biso   1.000  O
  C13      1.0000 0.13648  0.57717  0.80018  Biso   1.000  C
  H12      1.0000 0.17838  0.70068  0.75709  Biso   1.000  H
  H13      1.0000 0.22648  0.60392  0.75293  Biso   1.000  H
  H14      1.0000 0.00102  0.63153  0.54551  Biso   1.000  H
  H15      1.0000 0.00020  0.71979  0.59390  Biso   1.000  H
  C14      1.0000 0.95291  0.58543  0.62338  Biso   1.000  C
  C15      1.0000 0.06348  0.82402  0.67809  Biso   1.000  C
  C16      1.0000 0.09239  0.63538  0.83690  Biso   1.000  C
  C17      1.0000 0.13622  0.46877  0.80651  Biso   1.000  C
  C18      1.0000 0.90761  0.63538  0.66308  Biso   1.000  C
  C19      1.0000 0.94869  0.47727  0.61899  Biso   1.000  C
  C20      1.0000 0.11459  0.90120  0.70531  Biso   1.000  C
  H16      1.0000 0.01919  0.84841  0.68741  Biso   1.000  H
  H17      1.0000 0.06979  0.82379  0.63541  Biso   1.000  H
  O2       1.0000 0.09102  0.74520  0.83400  Biso   1.000  O
  C21      1.0000 0.04709  0.58543  0.87660  Biso   1.000  C
  C22      1.0000 0.09642  0.41874  0.84680  Biso   1.000  C
  H18      1.0000 0.16519  0.42818  0.78151  Biso   1.000  H
  O3       1.0000 0.90898  0.74520  0.66602  Biso   1.000  O
  C23      1.0000 0.86352  0.57717  0.69980  Biso   1.000  C
  C24      1.0000 0.90358  0.41874  0.65322  Biso   1.000  C
  H19      1.0000 0.97821  0.44202  0.59159  Biso   1.000  H
  O4       1.0000 0.16539  0.87752  0.72950  Biso   1.000  O
  C25      1.0000 0.09540  0.01503  0.69301  Biso   1.000  C
  C26      1.0000 0.14361  0.79358  0.86539  Biso   1.000  C
  C27      1.0000 0.05131  0.47727  0.88099  Biso   1.000  C
  C28      1.0000 0.99420  0.64608  0.91268  Biso   1.000  C
  C29      1.0000 0.09458  0.29508  0.85408  Biso   1.000  C
  C30      1.0000 0.85639  0.79358  0.63459  Biso   1.000  C
  C31      1.0000 0.81908  0.62649  0.74691  Biso   1.000  C
  C32      1.0000 0.86378  0.46877  0.69351  Biso   1.000  C
  C33      1.0000 0.90542  0.29508  0.64590  Biso   1.000  C
  H20      1.0000 0.05279  0.01739  0.67262  Biso   1.000  H
  H21      1.0000 0.09250  0.05223  0.72991  Biso   1.000  H
  H22      1.0000 0.12930  0.04649  0.66792  Biso   1.000  H
  C34      1.0000 0.13668  0.91001  0.86842  Biso   1.000  C
  H23      1.0000 0.18530  0.77698  0.84572  Biso   1.000  H
  H24      1.0000 0.14442  0.76652  0.90540  Biso   1.000  H
  H25      1.0000 0.02179  0.44202  0.90839  Biso   1.000  H
  C35      1.0000 0.92461  0.61233  0.89121  Biso   1.000  C
  H26      1.0000 0.99898  0.63153  0.95451  Biso   1.000  H
  H27      1.0000 0.99980  0.71979  0.90608  Biso   1.000  H
  C36      1.0000 0.13979  0.24087  0.80850  Biso   1.000  C
  C37      1.0000 0.12599  0.26801  0.91662  Biso   1.000  C
  C38      1.0000 0.02362  0.25197  0.85051  Biso   1.000  C
  C39      1.0000 0.86332  0.91001  0.63161  Biso   1.000  C
  H28      1.0000 0.81470  0.77698  0.65431  Biso   1.000  H
  H29      1.0000 0.85558  0.76652  0.59462  Biso   1.000  H
  C40      1.0000 0.83959  0.59747  0.80990  Biso   1.000  C
  H30      1.0000 0.82162  0.70068  0.74289  Biso   1.000  H
  H31      1.0000 0.77352  0.60392  0.74705  Biso   1.000  H
  H32      1.0000 0.83481  0.42818  0.71852  Biso   1.000  H
  C41      1.0000 0.86021  0.24087  0.69152  Biso   1.000  C
  C42      1.0000 0.87401  0.26801  0.58340  Biso   1.000  C
  C43      1.0000 0.97638  0.25197  0.64951  Biso   1.000  C
  O5       1.0000 0.08369  0.95209  0.85331  Biso   1.000  O
  C44      1.0000 0.19568  0.96602  0.89030  Biso   1.000  C
  C45      1.0000 0.89590  0.64372  0.83550  Biso   1.000  C
  C46      1.0000 0.88790  0.53178  0.92191  Biso   1.000  C
  H33      1.0000 0.13729  0.16709  0.81420  Biso   1.000  H
  H34      1.0000 0.12472  0.25802  0.76889  Biso   1.000  H
  H35      1.0000 0.18530  0.26400  0.81370  Biso   1.000  H
  H36      1.0000 0.12518  0.19320  0.92182  Biso   1.000  H
  H37      1.0000 0.17120  0.29216  0.91829  Biso   1.000  H
  H38      1.0000 0.09962  0.29964  0.94750  Biso   1.000  H
  H39      1.0000 0.02499  0.17723  0.85521  Biso   1.000  H
  H40      1.0000 0.00423  0.26857  0.81262  Biso   1.000  H
  H41      1.0000 0.99669  0.28107  0.88212  Biso   1.000  H
  O6       1.0000 0.91631  0.95209  0.64671  Biso   1.000  O
  C47      1.0000 0.80432  0.96602  0.60972  Biso   1.000  C
  C48      1.0000 0.80910  0.51723  0.84101  Biso   1.000  C
  H42      1.0000 0.86271  0.16709  0.68578  Biso   1.000  H
  H43      1.0000 0.87528  0.25802  0.73109  Biso   1.000  H
  H44      1.0000 0.81470  0.26400  0.68632  Biso   1.000  H
  H45      1.0000 0.87482  0.19320  0.57820  Biso   1.000  H
  H46      1.0000 0.82880  0.29216  0.58169  Biso   1.000  H
  H47      1.0000 0.90038  0.29964  0.55252  Biso   1.000  H
  H48      1.0000 0.00331  0.28107  0.61791  Biso   1.000  H
  H49      1.0000 0.97501  0.17723  0.64481  Biso   1.000  H
  H50      1.0000 0.99577  0.26857  0.68741  Biso   1.000  H
  H51      1.0000 0.23101  0.91748  0.89939  Biso   1.000  H
  H52      1.0000 0.21080  0.01392  0.86019  Biso   1.000  H
  H53      1.0000 0.18382  0.00393  0.92589  Biso   1.000  H
  O7       1.0000 0.93031  0.72026  0.80099  Biso   1.000  O
  C49      1.0000 0.83160  0.48419  0.89930  Biso   1.000  C
  H54      1.0000 0.90338  0.50999  0.96080  Biso   1.000  H
  H55      1.0000 0.76899  0.91748  0.60059  Biso   1.000  H
  H56      1.0000 0.78920  0.01392  0.63979  Biso   1.000  H
  H57      1.0000 0.81618  0.00393  0.57409  Biso   1.000  H
  H58      1.0000 0.77169  0.48206  0.82288  Biso   1.000  H
  C50      1.0000 0.93652  0.82402  0.82189  Biso   1.000  C
  C51      1.0000 0.79739  0.39404  0.93231  Biso   1.000  C
  C52      1.0000 0.88541  0.90120  0.79471  Biso   1.000  C
  H59      1.0000 0.98081  0.84841  0.81262  Biso   1.000  H
  H60      1.0000 0.93021  0.82379  0.86462  Biso   1.000  H
  C53      1.0000 0.82142  0.37303  0.99191  Biso   1.000  C
  C54      1.0000 0.79800  0.29696  0.89121  Biso   1.000  C
  C55      1.0000 0.72221  0.41803  0.93819  Biso   1.000  C
  O8       1.0000 0.83461  0.87752  0.77052  Biso   1.000  O
  C56      1.0000 0.90460  0.01503  0.80701  Biso   1.000  C
  H61      1.0000 0.86861  0.35620  0.99041  Biso   1.000  H
  H62      1.0000 0.79688  0.31592  0.00859  Biso   1.000  H
  H63      1.0000 0.81521  0.43376  0.01641  Biso   1.000  H
  H64      1.0000 0.77667  0.24009  0.91178  Biso   1.000  H
  H65      1.0000 0.77387  0.31238  0.85530  Biso   1.000  H
  H66      1.0000 0.84362  0.27903  0.88198  Biso   1.000  H
  H67      1.0000 0.70052  0.36186  0.95930  Biso   1.000  H
  H68      1.0000 0.71650  0.48143  0.96048  Biso   1.000  H
  H69      1.0000 0.70291  0.42542  0.89939  Biso   1.000  H
  H70      1.0000 0.94721  0.01739  0.82740  Biso   1.000  H
  H71      1.0000 0.90750  0.05223  0.77011  Biso   1.000  H
  H72      1.0000 0.87070  0.04649  0.83210  Biso   1.000  H
  C57      1.0000 0.40460  0.51503  0.69301  Biso   1.000  C
  C58      1.0000 0.38541  0.40120  0.70531  Biso   1.000  C
  H73      1.0000 0.44721  0.51739  0.67262  Biso   1.000  H
  H74      1.0000 0.40750  0.55223  0.72991  Biso   1.000  H
  H75      1.0000 0.37070  0.54649  0.66792  Biso   1.000  H
  C59      1.0000 0.43652  0.32402  0.67809  Biso   1.000  C
  O9       1.0000 0.33461  0.37752  0.72950  Biso   1.000  O
  O10      1.0000 0.43031  0.22026  0.69898  Biso   1.000  O
  H76      1.0000 0.48081  0.34841  0.68741  Biso   1.000  H
  H77      1.0000 0.43021  0.32379  0.63541  Biso   1.000  H
  C60      1.0000 0.39590  0.14372  0.66448  Biso   1.000  C
  C61      1.0000 0.42461  0.11233  0.60882  Biso   1.000  C
  C62      1.0000 0.33959  0.09747  0.69012  Biso   1.000  C
  C63      1.0000 0.38790  0.03178  0.57811  Biso   1.000  C
  C64      1.0000 0.49420  0.14608  0.58729  Biso   1.000  C
  C65      1.0000 0.30910  0.01723  0.65901  Biso   1.000  C
  C66      1.0000 0.31908  0.12649  0.75311  Biso   1.000  C
  H78      1.0000 0.40338  0.00999  0.53918  Biso   1.000  H
  C67      1.0000 0.33160  0.98419  0.60068  Biso   1.000  C
  C68      1.0000 0.54709  0.08543  0.62338  Biso   1.000  C
  H79      1.0000 0.49898  0.13153  0.54551  Biso   1.000  H
  H80      1.0000 0.49980  0.21979  0.59390  Biso   1.000  H
  H81      1.0000 0.27169  0.98206  0.67710  Biso   1.000  H
  C69      1.0000 0.36352  0.07717  0.80018  Biso   1.000  C
  H82      1.0000 0.32162  0.20068  0.75709  Biso   1.000  H
  H83      1.0000 0.27352  0.10392  0.75293  Biso   1.000  H
  C70      1.0000 0.29739  0.89404  0.56771  Biso   1.000  C
  C71      1.0000 0.59239  0.13538  0.66308  Biso   1.000  C
  C72      1.0000 0.55131  0.97727  0.61899  Biso   1.000  C
  C73      1.0000 0.40761  0.13538  0.83690  Biso   1.000  C
  C74      1.0000 0.36378  0.96877  0.80651  Biso   1.000  C
  C75      1.0000 0.32142  0.87303  0.50812  Biso   1.000  C
  C76      1.0000 0.29800  0.79696  0.60882  Biso   1.000  C
  C77      1.0000 0.22221  0.91803  0.56179  Biso   1.000  C
  O11      1.0000 0.59102  0.24520  0.66602  Biso   1.000  O
  C78      1.0000 0.63648  0.07717  0.69980  Biso   1.000  C
  C79      1.0000 0.59642  0.91874  0.65322  Biso   1.000  C
  H84      1.0000 0.52179  0.94202  0.59159  Biso   1.000  H
  O12      1.0000 0.40898  0.24520  0.83400  Biso   1.000  O
  C80      1.0000 0.45291  0.08543  0.87660  Biso   1.000  C
  C81      1.0000 0.40358  0.91874  0.84680  Biso   1.000  C
  H85      1.0000 0.33481  0.92818  0.78151  Biso   1.000  H
  H86      1.0000 0.29688  0.81592  0.49139  Biso   1.000  H
  H87      1.0000 0.36861  0.85620  0.50961  Biso   1.000  H
  H88      1.0000 0.31521  0.93376  0.48361  Biso   1.000  H
  H89      1.0000 0.27667  0.74009  0.58820  Biso   1.000  H
  H90      1.0000 0.27387  0.81238  0.64472  Biso   1.000  H
  H91      1.0000 0.34362  0.77903  0.61800  Biso   1.000  H
  H92      1.0000 0.20052  0.86186  0.54072  Biso   1.000  H
  H93      1.0000 0.21650  0.98143  0.53950  Biso   1.000  H
  H94      1.0000 0.20291  0.92542  0.60059  Biso   1.000  H
  C82      1.0000 0.64361  0.29358  0.63459  Biso   1.000  C
  C83      1.0000 0.68092  0.12649  0.74691  Biso   1.000  C
  C84      1.0000 0.63622  0.96877  0.69351  Biso   1.000  C
  C85      1.0000 0.59458  0.79508  0.64590  Biso   1.000  C
  C86      1.0000 0.35639  0.29358  0.86539  Biso   1.000  C
  C87      1.0000 0.50580  0.14608  0.91268  Biso   1.000  C
  C88      1.0000 0.44869  0.97727  0.88099  Biso   1.000  C
  C89      1.0000 0.40542  0.79508  0.85408  Biso   1.000  C
  C90      1.0000 0.63668  0.41001  0.63161  Biso   1.000  C
  H95      1.0000 0.68530  0.27698  0.65431  Biso   1.000  H
  H96      1.0000 0.64442  0.26652  0.59462  Biso   1.000  H
  C91      1.0000 0.66041  0.09747  0.80990  Biso   1.000  C
  H97      1.0000 0.67838  0.20068  0.74289  Biso   1.000  H
  H98      1.0000 0.72648  0.10392  0.74705  Biso   1.000  H
  H99      1.0000 0.66519  0.92818  0.71852  Biso   1.000  H
  C92      1.0000 0.63979  0.74087  0.69152  Biso   1.000  C
  C93      1.0000 0.62599  0.76801  0.58340  Biso   1.000  C
  C94      1.0000 0.52362  0.75197  0.64951  Biso   1.000  C
  C95      1.0000 0.36332  0.41001  0.86842  Biso   1.000  C
  H100     1.0000 0.31470  0.27698  0.84572  Biso   1.000  H
  H101     1.0000 0.35558  0.26652  0.90540  Biso   1.000  H
  C96      1.0000 0.57539  0.11233  0.89121  Biso   1.000  C
  H102     1.0000 0.50102  0.13153  0.95451  Biso   1.000  H
  H103     1.0000 0.50020  0.21979  0.90608  Biso   1.000  H
  H104     1.0000 0.47821  0.94202  0.90839  Biso   1.000  H
  C97      1.0000 0.36021  0.74087  0.80850  Biso   1.000  C
  C98      1.0000 0.37401  0.76801  0.91662  Biso   1.000  C
  C99      1.0000 0.47638  0.75197  0.85051  Biso   1.000  C
  O13      1.0000 0.58369  0.45209  0.64671  Biso   1.000  O
  C100     1.0000 0.69568  0.46602  0.60972  Biso   1.000  C
  C101     1.0000 0.60410  0.14372  0.83550  Biso   1.000  C
  C102     1.0000 0.69090  0.01723  0.84101  Biso   1.000  C
  H105     1.0000 0.63729  0.66709  0.68578  Biso   1.000  H
  H106     1.0000 0.62472  0.75802  0.73109  Biso   1.000  H
  H107     1.0000 0.68530  0.76400  0.68632  Biso   1.000  H
  H108     1.0000 0.62518  0.69320  0.57820  Biso   1.000  H
  H109     1.0000 0.67120  0.79216  0.58169  Biso   1.000  H
  H110     1.0000 0.59962  0.79964  0.55252  Biso   1.000  H
  H111     1.0000 0.52499  0.67723  0.64481  Biso   1.000  H
  H112     1.0000 0.49669  0.78107  0.61791  Biso   1.000  H
  H113     1.0000 0.50423  0.76857  0.68741  Biso   1.000  H
  O14      1.0000 0.41631  0.45209  0.85331  Biso   1.000  O
  C103     1.0000 0.30432  0.46602  0.89030  Biso   1.000  C
  C104     1.0000 0.61210  0.03178  0.92191  Biso   1.000  C
  H114     1.0000 0.36271  0.66709  0.81420  Biso   1.000  H
  H115     1.0000 0.37528  0.75802  0.76889  Biso   1.000  H
  H116     1.0000 0.31470  0.76400  0.81370  Biso   1.000  H
  H117     1.0000 0.37482  0.69320  0.92182  Biso   1.000  H
  H118     1.0000 0.32880  0.79216  0.91829  Biso   1.000  H
  H119     1.0000 0.40038  0.79964  0.94750  Biso   1.000  H
  H120     1.0000 0.47501  0.67723  0.85521  Biso   1.000  H
  H121     1.0000 0.50331  0.78107  0.88212  Biso   1.000  H
  H122     1.0000 0.49577  0.76857  0.81262  Biso   1.000  H
  H123     1.0000 0.73101  0.41748  0.60059  Biso   1.000  H
  H124     1.0000 0.71080  0.51392  0.63979  Biso   1.000  H
  H125     1.0000 0.68382  0.50393  0.57409  Biso   1.000  H
  O15      1.0000 0.56969  0.22026  0.80099  Biso   1.000  O
  C105     1.0000 0.66840  0.98419  0.89930  Biso   1.000  C
  H126     1.0000 0.72831  0.98206  0.82288  Biso   1.000  H
  H127     1.0000 0.26899  0.41748  0.89939  Biso   1.000  H
  H128     1.0000 0.28920  0.51392  0.86019  Biso   1.000  H
  H129     1.0000 0.31618  0.50393  0.92589  Biso   1.000  H
  H130     1.0000 0.59662  0.00999  0.96080  Biso   1.000  H
  C106     1.0000 0.56348  0.32402  0.82189  Biso   1.000  C
  C107     1.0000 0.70261  0.89404  0.93231  Biso   1.000  C
  C108     1.0000 0.61459  0.40120  0.79471  Biso   1.000  C
  H131     1.0000 0.51919  0.34841  0.81262  Biso   1.000  H
  H132     1.0000 0.56979  0.32379  0.86462  Biso   1.000  H
  C109     1.0000 0.67858  0.87303  0.99191  Biso   1.000  C
  C110     1.0000 0.70200  0.79696  0.89121  Biso   1.000  C
  C111     1.0000 0.77779  0.91803  0.93819  Biso   1.000  C
  O16      1.0000 0.66539  0.37752  0.77052  Biso   1.000  O
  C112     1.0000 0.59540  0.51503  0.80701  Biso   1.000  C
  H133     1.0000 0.63139  0.85620  0.99041  Biso   1.000  H
  H134     1.0000 0.70312  0.81592  0.00859  Biso   1.000  H
  H135     1.0000 0.68479  0.93376  0.01641  Biso   1.000  H
  H136     1.0000 0.72333  0.74009  0.91178  Biso   1.000  H
  H137     1.0000 0.72613  0.81238  0.85530  Biso   1.000  H
  H138     1.0000 0.65638  0.77903  0.88198  Biso   1.000  H
  H139     1.0000 0.79948  0.86186  0.95930  Biso   1.000  H
  H140     1.0000 0.78350  0.98143  0.96048  Biso   1.000  H
  H141     1.0000 0.79709  0.92542  0.89939  Biso   1.000  H
  H142     1.0000 0.55279  0.51739  0.82740  Biso   1.000  H
  H143     1.0000 0.59250  0.55223  0.77011  Biso   1.000  H
  H144     1.0000 0.62930  0.54649  0.83210  Biso   1.000  H
