data_image0
_cell_length_a       22.483
_cell_length_b       25.286
_cell_length_c       31.286
_cell_angle_alpha    81.51
_cell_angle_beta     80.23
_cell_angle_gamma    78.34

_symmetry_space_group_name_H-M    "P 1"
_symmetry_int_tables_number       1

loop_
  _symmetry_equiv_pos_as_xyz
  'x, y, z'

loop_
  _atom_site_label
  _atom_site_occupancy
  _atom_site_fract_x
  _atom_site_fract_y
  _atom_site_fract_z
  _atom_site_thermal_displace_type
  _atom_site_B_iso_or_equiv
  _atom_site_type_symbol
  O1       1.0000 0.57325  0.46865  0.51792  Biso   1.000  O
  C1       1.0000 0.62865  0.43656  0.50652  Biso   1.000  C
  C2       1.0000 0.56865  0.52546  0.50720  Biso   1.000  C
  C3       1.0000 0.63963  0.41317  0.46821  Biso   1.000  C
  C4       1.0000 0.67204  0.42444  0.53503  Biso   1.000  C
  O2       1.0000 0.58214  0.54973  0.54143  Biso   1.000  O
  C5       1.0000 0.69342  0.37704  0.45792  Biso   1.000  C
  Br1      1.0000 0.58051  0.42927  0.43013  Biso   1.000  Br
  C6       1.0000 0.72633  0.38863  0.52363  Biso   1.000  C
  C7       1.0000 0.66192  0.45495  0.57543  Biso   1.000  C
  C8       1.0000 0.64244  0.55375  0.54101  Biso   1.000  C
  O3       1.0000 0.70152  0.35116  0.42141  Biso   1.000  O
  C9       1.0000 0.73724  0.36436  0.48552  Biso   1.000  C
  C10      1.0000 0.68114  0.51156  0.56220  Biso   1.000  C
  C11      1.0000 0.69472  0.42143  0.61273  Biso   1.000  C
  C12      1.0000 0.66166  0.60323  0.52572  Biso   1.000  C
  C13      1.0000 0.73605  0.37317  0.38300  Biso   1.000  C
  C14      1.0000 0.79873  0.32577  0.47190  Biso   1.000  C
  C15      1.0000 0.73782  0.52003  0.56752  Biso   1.000  C
  C16      1.0000 0.67593  0.45153  0.65411  Biso   1.000  C
  C17      1.0000 0.71803  0.61083  0.53173  Biso   1.000  C
  O4       1.0000 0.62756  0.64146  0.50152  Biso   1.000  O
  O5       1.0000 0.79841  0.34737  0.37882  Biso   1.000  O
  C18      1.0000 0.84371  0.35835  0.44182  Biso   1.000  C
  C19      1.0000 0.82664  0.29313  0.51171  Biso   1.000  C
  C20      1.0000 0.75725  0.56954  0.55231  Biso   1.000  C
  C21      1.0000 0.71404  0.42001  0.69013  Biso   1.000  C
  O6       1.0000 0.73446  0.66064  0.51893  Biso   1.000  O
  C22      1.0000 0.57707  0.66964  0.51811  Biso   1.000  C
  C23      1.0000 0.83913  0.37054  0.39711  Biso   1.000  C
  C24      1.0000 0.88464  0.38076  0.45841  Biso   1.000  C
  C25      1.0000 0.87912  0.24754  0.49571  Biso   1.000  C
  C26      1.0000 0.82262  0.57595  0.55182  Biso   1.000  C
  C27      1.0000 0.71204  0.45744  0.72472  Biso   1.000  C
  C28      1.0000 0.76965  0.66886  0.47650  Biso   1.000  C
  O7       1.0000 0.55205  0.70554  0.48552  Biso   1.000  O
  C29      1.0000 0.87394  0.40437  0.37121  Biso   1.000  C
  C30      1.0000 0.92041  0.41458  0.43261  Biso   1.000  C
  C31      1.0000 0.90003  0.20994  0.53581  Biso   1.000  C
  C32      1.0000 0.86153  0.56283  0.50763  Biso   1.000  C
  C33      1.0000 0.85105  0.54194  0.59111  Biso   1.000  C
  C34      1.0000 0.75500  0.42734  0.75822  Biso   1.000  C
  O8       1.0000 0.83317  0.65563  0.47830  Biso   1.000  O
  C35      1.0000 0.50775  0.74736  0.49502  Biso   1.000  C
  O9       1.0000 0.86714  0.41785  0.32901  Biso   1.000  O
  C36      1.0000 0.91552  0.42567  0.38822  Biso   1.000  C
  C37      1.0000 0.96255  0.44125  0.45152  Biso   1.000  C
  C38      1.0000 0.89434  0.51025  0.50103  Biso   1.000  C
  C39      1.0000 0.86223  0.60365  0.47232  Biso   1.000  C
  C40      1.0000 0.81854  0.56764  0.63382  Biso   1.000  C
  C41      1.0000 0.44736  0.74063  0.50181  Biso   1.000  C
  C42      1.0000 0.52287  0.79466  0.50371  Biso   1.000  C
  C43      1.0000 0.89316  0.38467  0.29880  Biso   1.000  C
  O10      1.0000 0.95654  0.45316  0.36040  Biso   1.000  O
  C44      1.0000 0.93056  0.49936  0.46060  Biso   1.000  C
  C45      1.0000 0.98624  0.40636  0.49270  Biso   1.000  C
  C46      1.0000 0.89806  0.59324  0.43251  Biso   1.000  C
  C47      1.0000 0.84803  0.53534  0.67302  Biso   1.000  C
  O11      1.0000 0.43304  0.69256  0.49362  Biso   1.000  O
  C48      1.0000 0.40185  0.78194  0.51370  Biso   1.000  C
  O12      1.0000 0.58477  0.79905  0.50051  Biso   1.000  O
  C49      1.0000 0.47755  0.83685  0.51622  Biso   1.000  C
  O13      1.0000 0.86403  0.40097  0.26330  Biso   1.000  O
  C50      1.0000 0.94296  0.51138  0.35602  Biso   1.000  C
  C51      1.0000 0.93144  0.54136  0.42660  Biso   1.000  C
  C52      1.0000 0.02913  0.35387  0.47801  Biso   1.000  C
  O14      1.0000 0.90055  0.63716  0.39890  Biso   1.000  O
  C53      1.0000 0.89302  0.56694  0.68503  Biso   1.000  C
  C54      1.0000 0.41714  0.69107  0.45220  Biso   1.000  C
  C55      1.0000 0.33406  0.77503  0.51811  Biso   1.000  C
  C56      1.0000 0.41726  0.83056  0.52030  Biso   1.000  C
  C57      1.0000 0.61218  0.82406  0.46092  Biso   1.000  C
  C58      1.0000 0.49448  0.89103  0.52102  Biso   1.000  C
  C59      1.0000 0.88393  0.37966  0.22591  Biso   1.000  C
  O15      1.0000 0.96803  0.53225  0.38702  Biso   1.000  O
  C60      1.0000 0.03382  0.30996  0.51733  Biso   1.000  C
  C61      1.0000 0.85397  0.65405  0.37010  Biso   1.000  C
  C62      1.0000 0.91902  0.53693  0.72703  Biso   1.000  C
  O16      1.0000 0.35147  0.70345  0.45282  Biso   1.000  O
  C63      1.0000 0.31014  0.79286  0.47320  Biso   1.000  C
  C64      1.0000 0.29297  0.80503  0.55492  Biso   1.000  C
  O17      1.0000 0.60768  0.88004  0.46190  Biso   1.000  O
  C65      1.0000 0.50119  0.92495  0.47650  Biso   1.000  C
  C66      1.0000 0.44819  0.92226  0.55570  Biso   1.000  C
  C67      1.0000 0.85582  0.34057  0.21572  Biso   1.000  C
  C68      1.0000 0.93073  0.39929  0.19661  Biso   1.000  C
  C69      1.0000 0.07559  0.25836  0.50181  Biso   1.000  C
  C70      1.0000 0.87706  0.69766  0.33861  Biso   1.000  C
  C71      1.0000 0.32467  0.75754  0.44192  Biso   1.000  C
  C72      1.0000 0.27738  0.84467  0.46301  Biso   1.000  C
  C73      1.0000 0.31314  0.78393  0.60002  Biso   1.000  C
  C74      1.0000 0.55659  0.91486  0.44750  Biso   1.000  C
  C75      1.0000 0.45199  0.96054  0.46151  Biso   1.000  C
  C76      1.0000 0.45727  0.89194  0.60201  Biso   1.000  C
  O18      1.0000 0.81522  0.31627  0.24772  Biso   1.000  O
  C77      1.0000 0.87301  0.32087  0.17561  Biso   1.000  C
  C78      1.0000 0.94882  0.38028  0.15621  Biso   1.000  C
  O19      1.0000 0.96254  0.43538  0.20912  Biso   1.000  O
  C79      1.0000 0.08150  0.21405  0.54110  Biso   1.000  C
  C80      1.0000 0.91635  0.68769  0.30050  Biso   1.000  C
  C81      1.0000 0.85895  0.74937  0.34952  Biso   1.000  C
  C82      1.0000 0.30646  0.77434  0.40021  Biso   1.000  C
  C83      1.0000 0.25938  0.86206  0.42170  Biso   1.000  C
  C84      1.0000 0.26106  0.80395  0.63572  Biso   1.000  C
  C85      1.0000 0.56106  0.94056  0.40593  Biso   1.000  C
  C86      1.0000 0.45637  0.98734  0.41961  Biso   1.000  C
  C87      1.0000 0.40225  0.91464  0.63572  Biso   1.000  C
  C88      1.0000 0.75265  0.33626  0.24821  Biso   1.000  C
  C89      1.0000 0.83661  0.28210  0.16271  Biso   1.000  C
  C90      1.0000 0.92021  0.34080  0.14622  Biso   1.000  C
  C91      1.0000 0.99526  0.40800  0.12159  Biso   1.000  C
  C92      1.0000 0.94404  0.49237  0.19550  Biso   1.000  C
  O20      1.0000 0.93374  0.63547  0.28972  Biso   1.000  O
  C93      1.0000 0.93927  0.72995  0.27352  Biso   1.000  C
  C94      1.0000 0.88096  0.79276  0.32232  Biso   1.000  C
  O21      1.0000 0.81449  0.75966  0.38571  Biso   1.000  O
  C95      1.0000 0.27366  0.82576  0.39071  Biso   1.000  C
  Br2      1.0000 0.32635  0.72615  0.35782  Biso   1.000  Br
  C96      1.0000 0.23245  0.92196  0.40802  Biso   1.000  C
  C97      1.0000 0.28403  0.78794  0.68062  Biso   1.000  C
  O22      1.0000 0.61707  0.93158  0.37761  Biso   1.000  O
  C98      1.0000 0.51110  0.97604  0.39142  Biso   1.000  C
  C99      1.0000 0.40289  0.03037  0.40370  Biso   1.000  C
  C100     1.0000 0.41299  0.88622  0.68203  Biso   1.000  C
  O23      1.0000 0.72634  0.30819  0.22091  Biso   1.000  O
  C101     1.0000 0.77693  0.31450  0.14710  Biso   1.000  C
  C102     1.0000 0.87554  0.24548  0.12842  Biso   1.000  C
  C103     1.0000 0.96144  0.46128  0.09880  Biso   1.000  C
  C104     1.0000 0.03185  0.36917  0.08861  Biso   1.000  C
  O24      1.0000 0.97856  0.50910  0.15510  Biso   1.000  O
  C105     1.0000 0.90368  0.62058  0.25791  Biso   1.000  C
  C106     1.0000 0.98125  0.71838  0.23061  Biso   1.000  C
  C107     1.0000 0.92057  0.78188  0.28482  Biso   1.000  C
  C108     1.0000 0.85906  0.85148  0.33440  Biso   1.000  C
  C109     1.0000 0.75275  0.78265  0.37790  Biso   1.000  C
  O25      1.0000 0.24918  0.83916  0.35210  Biso   1.000  O
  C110     1.0000 0.28430  0.95175  0.38241  Biso   1.000  C
  C111     1.0000 0.19706  0.95087  0.44701  Biso   1.000  C
  C112     1.0000 0.23906  0.82093  0.71462  Biso   1.000  C
  C113     1.0000 0.62915  0.89006  0.34812  Biso   1.000  C
  O26      1.0000 0.51727  0.00386  0.35001  Biso   1.000  O
  C114     1.0000 0.36456  0.00367  0.38003  Biso   1.000  C
  C115     1.0000 0.36338  0.06075  0.44120  Biso   1.000  C
  C116     1.0000 0.36119  0.91111  0.71564  Biso   1.000  C
  C117     1.0000 0.72594  0.32918  0.17790  Biso   1.000  C
  C118     1.0000 0.77376  0.33287  0.10350  Biso   1.000  C
  C119     1.0000 0.92801  0.20738  0.14952  Biso   1.000  C
  C120     1.0000 0.93755  0.46298  0.06009  Biso   1.000  C
  C121     1.0000 0.95425  0.50929  0.11731  Biso   1.000  C
  C122     1.0000 0.07412  0.32258  0.11339  Biso   1.000  C
  O27      1.0000 0.93747  0.62578  0.21601  Biso   1.000  O
  C123     1.0000 0.94285  0.72089  0.19550  Biso   1.000  C
  C124     1.0000 0.02948  0.75747  0.21761  Biso   1.000  C
  C125     1.0000 0.79987  0.87746  0.31500  Biso   1.000  C
  C126     1.0000 0.90887  0.88588  0.32091  Biso   1.000  C
  O28      1.0000 0.74018  0.83935  0.37843  Biso   1.000  O
  C127     1.0000 0.28356  0.86618  0.31592  Biso   1.000  C
  C128     1.0000 0.30239  0.94766  0.33780  Biso   1.000  C
  C129     1.0000 0.31486  0.97996  0.40272  Biso   1.000  C
  C130     1.0000 0.15998  0.00556  0.42951  Biso   1.000  C
  C131     1.0000 0.68978  0.89525  0.32202  Biso   1.000  C
  C132     1.0000 0.49057  0.98698  0.31771  Biso   1.000  C
  C133     1.0000 0.38228  0.99836  0.33571  Biso   1.000  C
  C134     1.0000 0.32489  0.11386  0.42121  Biso   1.000  C
  C135     1.0000 0.67343  0.36227  0.16480  Biso   1.000  C
  C136     1.0000 0.72105  0.36548  0.08981  Biso   1.000  C
  C137     1.0000 0.95904  0.16449  0.11891  Biso   1.000  C
  C138     1.0000 0.90785  0.51241  0.03939  Biso   1.000  C
  C139     1.0000 0.92497  0.55747  0.09739  Biso   1.000  C
  C140     1.0000 0.10774  0.28151  0.08139  Biso   1.000  C
  C141     1.0000 0.92266  0.67439  0.18900  Biso   1.000  C
  C142     1.0000 0.92705  0.76788  0.16931  Biso   1.000  C
  C143     1.0000 0.07428  0.74606  0.25171  Biso   1.000  C
  C144     1.0000 0.80167  0.90728  0.27339  Biso   1.000  C
  C145     1.0000 0.74308  0.87148  0.33901  Biso   1.000  C
  C146     1.0000 0.95897  0.86546  0.34952  Biso   1.000  C
  O29      1.0000 0.26876  0.92366  0.31552  Biso   1.000  O
  C147     1.0000 0.35247  0.97048  0.31510  Biso   1.000  C
  C148     1.0000 0.11797  0.03096  0.46791  Biso   1.000  C
  C149     1.0000 0.69288  0.92438  0.27989  Biso   1.000  C
  O30      1.0000 0.43208  0.01856  0.31350  Biso   1.000  O
  C150     1.0000 0.28299  0.14264  0.45831  Biso   1.000  C
  C151     1.0000 0.67054  0.37987  0.12091  Biso   1.000  C
  Br3      1.0000 0.60535  0.38179  0.20641  Biso   1.000  Br
  C152     1.0000 0.71862  0.38830  0.04141  Biso   1.000  C
  C153     1.0000 0.87552  0.51441  0.99922  Biso   1.000  C
  C154     1.0000 0.90106  0.55878  0.05892  Biso   1.000  C
  O31      1.0000 0.92005  0.60667  0.11552  Biso   1.000  O
  C155     1.0000 0.16402  0.30200  0.05500  Biso   1.000  C
  C156     1.0000 0.88896  0.67609  0.15530  Biso   1.000  C
  C157     1.0000 0.89249  0.77076  0.13661  Biso   1.000  C
  C158     1.0000 0.12128  0.78495  0.23841  Biso   1.000  C
  C159     1.0000 0.74917  0.93137  0.25612  Biso   1.000  C
  C160     1.0000 0.01058  0.89996  0.33450  Biso   1.000  C
  O32      1.0000 0.37059  0.96525  0.27241  Biso   1.000  O
  O33      1.0000 0.64009  0.94577  0.26232  Biso   1.000  O
  C161     1.0000 0.24900  0.19795  0.43881  Biso   1.000  C
  O34      1.0000 0.61695  0.40900  0.10810  Biso   1.000  O
  C162     1.0000 0.73456  0.44571  0.03299  Biso   1.000  C
  C163     1.0000 0.75975  0.34988  0.01009  Biso   1.000  C
  C164     1.0000 0.80925  0.50570  0.01401  Biso   1.000  C
  C165     1.0000 0.91151  0.47449  0.96734  Biso   1.000  C
  O35      1.0000 0.87135  0.60639  0.04040  Biso   1.000  O
  C166     1.0000 0.87025  0.62619  0.14749  Biso   1.000  C
  C167     1.0000 0.20104  0.25901  0.02701  Biso   1.000  C
  C168     1.0000 0.87286  0.72357  0.12992  Biso   1.000  C
  C169     1.0000 0.87439  0.82518  0.10719  Biso   1.000  C
  C170     1.0000 0.15197  0.78736  0.27829  Biso   1.000  C
  C171     1.0000 0.75181  0.96035  0.20951  Biso   1.000  C
  C172     1.0000 0.33718  0.94726  0.24962  Biso   1.000  C
  C173     1.0000 0.62330  0.91579  0.23231  Biso   1.000  C
  C174     1.0000 0.61054  0.46638  0.10092  Biso   1.000  C
  C175     1.0000 0.68974  0.49021  0.04510  Biso   1.000  C
  C176     1.0000 0.79346  0.45390  0.01809  Biso   1.000  C
  C177     1.0000 0.74449  0.36901  0.96323  Biso   1.000  C
  C178     1.0000 0.76404  0.54928  0.02580  Biso   1.000  C
  C179     1.0000 0.88341  0.48858  0.92341  Biso   1.000  C
  C180     1.0000 0.80677  0.61810  0.05059  Biso   1.000  C
  O36      1.0000 0.83349  0.72628  0.09870  Biso   1.000  O
  C181     1.0000 0.81197  0.85660  0.12789  Biso   1.000  C
  C182     1.0000 0.92506  0.85990  0.09840  Biso   1.000  C
  C183     1.0000 0.19405  0.73298  0.28789  Biso   1.000  C
  C184     1.0000 0.75429  0.91918  0.17741  Biso   1.000  C
  C185     1.0000 0.80590  0.99258  0.19710  Biso   1.000  C
  O37      1.0000 0.37269  0.91326  0.22391  Biso   1.000  O
  O38      1.0000 0.64388  0.93466  0.18802  Biso   1.000  O
  O39      1.0000 0.62866  0.48400  0.05751  Biso   1.000  O
  C186     1.0000 0.70536  0.54161  0.04210  Biso   1.000  C
  C187     1.0000 0.77931  0.32569  0.93302  Biso   1.000  C
  O40      1.0000 0.77744  0.60201  0.01871  Biso   1.000  O
  C188     1.0000 0.90542  0.44000  0.89582  Biso   1.000  C
  C189     1.0000 0.77109  0.75049  0.10931  Biso   1.000  C
  C190     1.0000 0.75777  0.84567  0.11891  Biso   1.000  C
  C191     1.0000 0.80898  0.89248  0.15781  Biso   1.000  C
  C192     1.0000 0.90609  0.91031  0.06600  Biso   1.000  C
  C193     1.0000 0.70028  0.90819  0.16829  Biso   1.000  C
  C194     1.0000 0.79189  0.04125  0.22352  Biso   1.000  C
  C195     1.0000 0.36376  0.91379  0.18361  Biso   1.000  C
  O41      1.0000 0.66265  0.58347  0.05461  Biso   1.000  O
  C196     1.0000 0.77460  0.34910  0.88504  Biso   1.000  C
  C197     1.0000 0.88452  0.45731  0.85032  Biso   1.000  C
  O42      1.0000 0.75936  0.80667  0.09151  Biso   1.000  O
  C198     1.0000 0.70199  0.87209  0.13851  Biso   1.000  C
  C199     1.0000 0.95809  0.94411  0.05660  Biso   1.000  C
  C200     1.0000 0.84521  0.07338  0.21092  Biso   1.000  C
  C201     1.0000 0.39358  0.94506  0.15059  Biso   1.000  C
  C202     1.0000 0.32160  0.88546  0.17489  Biso   1.000  C
  C203     1.0000 0.63475  0.62010  0.02561  Biso   1.000  C
  C204     1.0000 0.81274  0.30759  0.85522  Biso   1.000  C
  C205     1.0000 0.90964  0.41131  0.82191  Biso   1.000  C
  C206     1.0000 0.64367  0.86210  0.12672  Biso   1.000  C
  C207     1.0000 0.95108  0.98300  0.01401  Biso   1.000  C
  C208     1.0000 0.89599  0.04698  0.23900  Biso   1.000  C
  C209     1.0000 0.38307  0.94717  0.10830  Biso   1.000  C
  O43      1.0000 0.43349  0.97639  0.16029  Biso   1.000  O
  C210     1.0000 0.31020  0.88738  0.13279  Biso   1.000  C
  O44      1.0000 0.29356  0.85249  0.20820  Biso   1.000  O
  O45      1.0000 0.60437  0.66248  0.04510  Biso   1.000  O
  O46      1.0000 0.63357  0.90447  0.08991  Biso   1.000  O
  C211     1.0000 0.41828  0.97947  0.07241  Biso   1.000  C
  C212     1.0000 0.34190  0.91767  0.09991  Biso   1.000  C
  C213     1.0000 0.49790  0.95468  0.15389  Biso   1.000  C
  C214     1.0000 0.26627  0.85159  0.12290  Biso   1.000  C
  C215     1.0000 0.31926  0.79586  0.21301  Biso   1.000  C
  C216     1.0000 0.56259  0.69971  0.02629  Biso   1.000  C
  C217     1.0000 0.58540  0.90531  0.06649  Biso   1.000  C
  C218     1.0000 0.48060  0.94410  0.05611  Biso   1.000  C
  C219     1.0000 0.38077  0.00388  0.03501  Biso   1.000  C
  O47      1.0000 0.52610  0.97218  0.11179  Biso   1.000  O
  C220     1.0000 0.30279  0.79507  0.11401  Biso   1.000  C
  C221     1.0000 0.23000  0.87930  0.08560  Biso   1.000  C
  O48      1.0000 0.28914  0.76579  0.19132  Biso   1.000  O
  C222     1.0000 0.57806  0.74848  0.00591  Biso   1.000  C
  C223     1.0000 0.50395  0.69010  0.02881  Biso   1.000  C
  C224     1.0000 0.59140  0.87458  0.03279  Biso   1.000  C
  C225     1.0000 0.53047  0.93948  0.07861  Biso   1.000  C
  C226     1.0000 0.48729  0.91381  0.02191  Biso   1.000  C
  C227     1.0000 0.32750  0.04890  0.05190  Biso   1.000  C
  C228     1.0000 0.32658  0.78341  0.07250  Biso   1.000  C
  C229     1.0000 0.31476  0.75537  0.14880  Biso   1.000  C
  C230     1.0000 0.18109  0.84497  0.08201  Biso   1.000  C
  O49      1.0000 0.63767  0.75651  0.00209  Biso   1.000  O
  C231     1.0000 0.53444  0.78858  0.98854  Biso   1.000  C
  O50      1.0000 0.49168  0.63899  0.04389  Biso   1.000  O
  C232     1.0000 0.45915  0.72990  0.01091  Biso   1.000  C
  O51      1.0000 0.64728  0.84119  0.02061  Biso   1.000  O
  C233     1.0000 0.54280  0.87908  0.00921  Biso   1.000  C
  C234     1.0000 0.27819  0.06007  0.02129  Biso   1.000  C
  C235     1.0000 0.36087  0.73248  0.06431  Biso   1.000  C
  C236     1.0000 0.35035  0.70540  0.14151  Biso   1.000  C
  C237     1.0000 0.65249  0.78467  0.03429  Biso   1.000  C
  C238     1.0000 0.55044  0.84440  0.97103  Biso   1.000  C
  C239     1.0000 0.47503  0.77871  0.99141  Biso   1.000  C
  C240     1.0000 0.46549  0.62958  0.08779  Biso   1.000  C
  C241     1.0000 0.39167  0.72089  0.01790  Biso   1.000  C
  C242     1.0000 0.22348  0.10218  0.03991  Biso   1.000  C
  C243     1.0000 0.37266  0.69360  0.09961  Biso   1.000  C
  Br4      1.0000 0.36585  0.65258  0.18848  Biso   1.000  Br
  C244     1.0000 0.51346  0.87341  0.93471  Biso   1.000  C
  O52      1.0000 0.40147  0.64117  0.09249  Biso   1.000  O
  C245     1.0000 0.35514  0.75430  0.98243  Biso   1.000  C
  C246     1.0000 0.17438  0.11400  0.00931  Biso   1.000  C
  C247     1.0000 0.53465  0.84301  0.89382  Biso   1.000  C
  C248     1.0000 0.38504  0.73609  0.93791  Biso   1.000  C
  C249     1.0000 0.50604  0.87839  0.85453  Biso   1.000  C
  C250     1.0000 0.34596  0.76782  0.90241  Biso   1.000  C
  C251     1.0000 0.52706  0.84791  0.81391  Biso   1.000  C
  C252     1.0000 0.38147  0.75700  0.85682  Biso   1.000  C
  C253     1.0000 0.34606  0.79321  0.82181  Biso   1.000  C
