data_image0
_cell_length_a       8.73
_cell_length_b       9.56
_cell_length_c       11.32
_cell_angle_alpha    68.43
_cell_angle_beta     89.18
_cell_angle_gamma    86.51

_symmetry_space_group_name_H-M    "P 1"
_symmetry_int_tables_number       1

loop_
  _symmetry_equiv_pos_as_xyz
  'x, y, z'

loop_
  _atom_site_label
  _atom_site_occupancy
  _atom_site_fract_x
  _atom_site_fract_y
  _atom_site_fract_z
  _atom_site_thermal_displace_type
  _atom_site_B_iso_or_equiv
  _atom_site_type_symbol
  C1       1.0000 0.90742  0.88224  0.51098  Biso   1.000  C
  C2       1.0000 0.81244  0.79075  0.58793  Biso   1.000  C
  C3       1.0000 0.85427  0.99622  0.38559  Biso   1.000  C
  C4       1.0000 0.05969  0.88732  0.54670  Biso   1.000  C
  C5       1.0000 0.86152  0.68845  0.70553  Biso   1.000  C
  O1       1.0000 0.65664  0.79723  0.54660  Biso   1.000  O
  O2       1.0000 0.96725  0.08971  0.31918  Biso   1.000  O
  C6       1.0000 0.10676  0.77660  0.67304  Biso   1.000  C
  C7       1.0000 0.74735  0.58133  0.79188  Biso   1.000  C
  C8       1.0000 0.00425  0.69181  0.74277  Biso   1.000  C
  C9       1.0000 0.62681  0.68580  0.49283  Biso   1.000  C
  C10      1.0000 0.90998  0.20926  0.20433  Biso   1.000  C
  C11      1.0000 0.27667  0.78152  0.71512  Biso   1.000  C
  O3       1.0000 0.75202  0.44588  0.77421  Biso   1.000  O
  C12      1.0000 0.04545  0.30135  0.14116  Biso   1.000  C
  C13      1.0000 0.65428  0.34921  0.84498  Biso   1.000  C
  N1       1.0000 0.14791  0.23060  0.07172  Biso   1.000  N
  C14      1.0000 0.67602  0.19899  0.82418  Biso   1.000  C
  C15      1.0000 0.09044  0.24378  0.95469  Biso   1.000  C
  C16      1.0000 0.29926  0.28590  0.06241  Biso   1.000  C
  N2       1.0000 0.60786  0.21452  0.69479  Biso   1.000  N
  C17      1.0000 0.11916  0.10288  0.92524  Biso   1.000  C
  C18      1.0000 0.39255  0.23751  0.18448  Biso   1.000  C
  C19      1.0000 0.45238  0.15599  0.70933  Biso   1.000  C
  C20      1.0000 0.71468  0.14276  0.63438  Biso   1.000  C
  O4       1.0000 0.00001  0.99997  0.00000  Biso   1.000  O
  C21      1.0000 0.40799  0.06333  0.26190  Biso   1.000  C
  C22      1.0000 0.37027  0.20300  0.58251  Biso   1.000  C
  C23      1.0000 0.84134  0.24664  0.57159  Biso   1.000  C
  C24      1.0000 0.01203  0.85994  0.97217  Biso   1.000  C
  C25      1.0000 0.49300  0.99301  0.18667  Biso   1.000  C
  C26      1.0000 0.34714  0.36998  0.51943  Biso   1.000  C
  O5       1.0000 0.78429  0.34982  0.45389  Biso   1.000  O
  C27      1.0000 0.90235  0.76019  0.06203  Biso   1.000  C
  C28      1.0000 0.26498  0.45398  0.60198  Biso   1.000  C
  C29      1.0000 0.90087  0.45733  0.39670  Biso   1.000  C
  C30      1.0000 0.95181  0.65957  0.18420  Biso   1.000  C
  C31      1.0000 0.74462  0.76881  0.01871  Biso   1.000  C
  C32      1.0000 0.83719  0.55858  0.26732  Biso   1.000  C
  O6       1.0000 0.09458  0.64492  0.22238  Biso   1.000  O
  C33      1.0000 0.64178  0.66226  0.11000  Biso   1.000  C
  C34      1.0000 0.69155  0.57253  0.21944  Biso   1.000  C
  C35      1.0000 0.13665  0.75455  0.27093  Biso   1.000  C
  C36      1.0000 0.48405  0.67303  0.05909  Biso   1.000  C
