data_image0
_cell_length_a       12.054
_cell_length_b       12.854
_cell_length_c       15.316
_cell_angle_alpha    85.95
_cell_angle_beta     84.49
_cell_angle_gamma    69.52

_symmetry_space_group_name_H-M    "P 1"
_symmetry_int_tables_number       1

loop_
  _symmetry_equiv_pos_as_xyz
  'x, y, z'

loop_
  _atom_site_label
  _atom_site_occupancy
  _atom_site_fract_x
  _atom_site_fract_y
  _atom_site_fract_z
  _atom_site_thermal_displace_type
  _atom_site_B_iso_or_equiv
  _atom_site_type_symbol
  O1       1.0000 0.75869  0.28657  0.35219  Biso   1.000  O
  C1       1.0000 0.82565  0.34971  0.31878  Biso   1.000  C
  H1       1.0000 0.75500  0.28594  0.40609  Biso   1.000  H
  C2       1.0000 0.81862  0.38480  0.23035  Biso   1.000  C
  C3       1.0000 0.89943  0.37666  0.37077  Biso   1.000  C
  C4       1.0000 0.73931  0.35269  0.17350  Biso   1.000  C
  C5       1.0000 0.88538  0.44955  0.19779  Biso   1.000  C
  C6       1.0000 0.96559  0.44115  0.33506  Biso   1.000  C
  H2       1.0000 0.90476  0.35106  0.43051  Biso   1.000  H
  C7       1.0000 0.61218  0.43455  0.18053  Biso   1.000  C
  H3       1.0000 0.73646  0.27916  0.19740  Biso   1.000  H
  C8       1.0000 0.78746  0.33738  0.07661  Biso   1.000  C
  H4       1.0000 0.88012  0.47498  0.13799  Biso   1.000  H
  C9       1.0000 0.96000  0.47985  0.24755  Biso   1.000  C
  O2       1.0000 0.03556  0.46378  0.39204  Biso   1.000  O
  C10      1.0000 0.52014  0.41126  0.23094  Biso   1.000  C
  C11      1.0000 0.58204  0.53561  0.13280  Biso   1.000  C
  H5       1.0000 0.72873  0.32169  0.04359  Biso   1.000  H
  H6       1.0000 0.79521  0.40805  0.05199  Biso   1.000  H
  C12      1.0000 0.90665  0.24477  0.06217  Biso   1.000  C
  C13      1.0000 0.03158  0.55151  0.20803  Biso   1.000  C
  H7       1.0000 0.05005  0.52123  0.37911  Biso   1.000  H
  O3       1.0000 0.54006  0.31645  0.28484  Biso   1.000  O
  C14      1.0000 0.40348  0.48284  0.22779  Biso   1.000  C
  C15      1.0000 0.46655  0.61040  0.12854  Biso   1.000  C
  H8       1.0000 0.64435  0.55465  0.10103  Biso   1.000  H
  H9       1.0000 0.96790  0.26432  0.08783  Biso   1.000  H
  H10      1.0000 0.90184  0.17550  0.09039  Biso   1.000  H
  H11      1.0000 0.92706  0.23490  0.99915  Biso   1.000  H
  C16      1.0000 0.96591  0.67424  0.22477  Biso   1.000  C
  H12      1.0000 0.10519  0.52888  0.24033  Biso   1.000  H
  C17      1.0000 0.07285  0.53150  0.11048  Biso   1.000  C
  H13      1.0000 0.60772  0.29700  0.30177  Biso   1.000  H
  H14      1.0000 0.34163  0.46441  0.26068  Biso   1.000  H
  C18      1.0000 0.37642  0.58106  0.17705  Biso   1.000  C
  C19      1.0000 0.44138  0.71756  0.07175  Biso   1.000  C
  C20      1.0000 0.87684  0.74229  0.17285  Biso   1.000  C
  C21      1.0000 0.99143  0.72411  0.29495  Biso   1.000  C
  H15      1.0000 0.00239  0.54799  0.07661  Biso   1.000  H
  H16      1.0000 0.11450  0.58334  0.08862  Biso   1.000  H
  C22      1.0000 0.15518  0.41296  0.09466  Biso   1.000  C
  O4       1.0000 0.25853  0.64594  0.17652  Biso   1.000  O
  C23      1.0000 0.46663  0.80599  0.11994  Biso   1.000  C
  H17      1.0000 0.35452  0.74599  0.06302  Biso   1.000  H
  C24      1.0000 0.50783  0.69399  0.98063  Biso   1.000  C
  C25      1.0000 0.81493  0.85434  0.18742  Biso   1.000  C
  H18      1.0000 0.85750  0.71040  0.12499  Biso   1.000  H
  C26      1.0000 0.93256  0.83521  0.31188  Biso   1.000  C
  O5       1.0000 0.07157  0.65574  0.35167  Biso   1.000  O
  H19      1.0000 0.22637  0.39690  0.12670  Biso   1.000  H
  H20      1.0000 0.17830  0.40450  0.03171  Biso   1.000  H
  H21      1.0000 0.11406  0.36118  0.11541  Biso   1.000  H
  H22      1.0000 0.25204  0.71286  0.18013  Biso   1.000  H
  C27      1.0000 0.57230  0.82768  0.10477  Biso   1.000  C
  C28      1.0000 0.38506  0.86495  0.18598  Biso   1.000  C
  H23      1.0000 0.59412  0.67192  0.98681  Biso   1.000  H
  H24      1.0000 0.49368  0.63049  0.95694  Biso   1.000  H
  C29      1.0000 0.47125  0.79238  0.91499  Biso   1.000  C
  C30      1.0000 0.71680  0.92589  0.13031  Biso   1.000  C
  C31      1.0000 0.84421  0.89950  0.25878  Biso   1.000  C
  H25      1.0000 0.95229  0.86728  0.35948  Biso   1.000  H
  H26      1.0000 0.12099  0.68099  0.36644  Biso   1.000  H
  C32      1.0000 0.60157  0.90203  0.15230  Biso   1.000  C
  H27      1.0000 0.62790  0.78961  0.05928  Biso   1.000  H
  O6       1.0000 0.27910  0.84641  0.20134  Biso   1.000  O
  C33      1.0000 0.41122  0.93844  0.23574  Biso   1.000  C
  H28      1.0000 0.38720  0.81164  0.90514  Biso   1.000  H
  H29      1.0000 0.51944  0.77259  0.85932  Biso   1.000  H
  H30      1.0000 0.48374  0.85623  0.93823  Biso   1.000  H
  C34      1.0000 0.75684  0.92088  0.03164  Biso   1.000  C
  H31      1.0000 0.69928  0.00456  0.14619  Biso   1.000  H
  O7       1.0000 0.78117  0.00980  0.27493  Biso   1.000  O
  C35      1.0000 0.51897  0.95568  0.21985  Biso   1.000  C
  H32      1.0000 0.24104  0.87897  0.24578  Biso   1.000  H
  H33      1.0000 0.35518  0.97695  0.28083  Biso   1.000  H
  H34      1.0000 0.79442  0.84229  0.01562  Biso   1.000  H
  C36      1.0000 0.84480  0.98135  0.00834  Biso   1.000  C
  H35      1.0000 0.68660  0.95516  0.99731  Biso   1.000  H
  H36      1.0000 0.78198  0.01499  0.32862  Biso   1.000  H
  O8       1.0000 0.53760  0.02690  0.27499  Biso   1.000  O
  H37      1.0000 0.91245  0.95029  0.04457  Biso   1.000  H
  H38      1.0000 0.87289  0.97218  0.94624  Biso   1.000  H
  H39      1.0000 0.80555  0.06078  0.01917  Biso   1.000  H
  H40      1.0000 0.60608  0.02600  0.26652  Biso   1.000  H
  O9       1.0000 0.24134  0.71334  0.64786  Biso   1.000  O
  C37      1.0000 0.17441  0.65013  0.68121  Biso   1.000  C
  H41      1.0000 0.24503  0.71398  0.59390  Biso   1.000  H
  C38      1.0000 0.18141  0.61512  0.76963  Biso   1.000  C
  C39      1.0000 0.10059  0.62326  0.62928  Biso   1.000  C
  C40      1.0000 0.11465  0.55037  0.80219  Biso   1.000  C
  C41      1.0000 0.26072  0.64723  0.82648  Biso   1.000  C
  C42      1.0000 0.03444  0.55877  0.66493  Biso   1.000  C
  H42      1.0000 0.09526  0.64885  0.56955  Biso   1.000  H
  C43      1.0000 0.04003  0.52007  0.75244  Biso   1.000  C
  H43      1.0000 0.11992  0.52494  0.86200  Biso   1.000  H
  C44      1.0000 0.38789  0.56528  0.81946  Biso   1.000  C
  H44      1.0000 0.26358  0.72076  0.80259  Biso   1.000  H
  C45      1.0000 0.21257  0.66253  0.92344  Biso   1.000  C
  O10      1.0000 0.96446  0.53613  0.60801  Biso   1.000  O
  C46      1.0000 0.96845  0.44841  0.79195  Biso   1.000  C
  C47      1.0000 0.41799  0.46430  0.86725  Biso   1.000  C
  C48      1.0000 0.47988  0.58866  0.76911  Biso   1.000  C
  H45      1.0000 0.27130  0.67823  0.95640  Biso   1.000  H
  H46      1.0000 0.20486  0.59179  0.94799  Biso   1.000  H
  C49      1.0000 0.09338  0.75515  0.93782  Biso   1.000  C
  H47      1.0000 0.94998  0.47868  0.62095  Biso   1.000  H
  C50      1.0000 0.03411  0.32567  0.77528  Biso   1.000  C
  H48      1.0000 0.89483  0.47104  0.75972  Biso   1.000  H
  C51      1.0000 0.92718  0.46842  0.88950  Biso   1.000  C
  C52      1.0000 0.53348  0.38952  0.87145  Biso   1.000  C
  H49      1.0000 0.35568  0.44527  0.89902  Biso   1.000  H
  C53      1.0000 0.59655  0.51708  0.77226  Biso   1.000  C
  O11      1.0000 0.45996  0.68346  0.71521  Biso   1.000  O
  H50      1.0000 0.03212  0.73559  0.91222  Biso   1.000  H
  H51      1.0000 0.09819  0.82442  0.90959  Biso   1.000  H
  H52      1.0000 0.07296  0.76502  0.00091  Biso   1.000  H
  C54      1.0000 0.00860  0.27580  0.70510  Biso   1.000  C
  C55      1.0000 0.12318  0.25762  0.82721  Biso   1.000  C
  H53      1.0000 0.99763  0.45193  0.92344  Biso   1.000  H
  H54      1.0000 0.88556  0.41649  0.91143  Biso   1.000  H
  C56      1.0000 0.84485  0.58696  0.90532  Biso   1.000  C
  C57      1.0000 0.55865  0.28235  0.92830  Biso   1.000  C
  C58      1.0000 0.62360  0.41886  0.82300  Biso   1.000  C
  H55      1.0000 0.65840  0.53551  0.73931  Biso   1.000  H
  H56      1.0000 0.39231  0.70292  0.69821  Biso   1.000  H
  C59      1.0000 0.06747  0.16471  0.68810  Biso   1.000  C
  O12      1.0000 0.92845  0.34418  0.64839  Biso   1.000  O
  C60      1.0000 0.18510  0.14558  0.81263  Biso   1.000  C
  H57      1.0000 0.14254  0.28952  0.87500  Biso   1.000  H
  H58      1.0000 0.77366  0.60302  0.87329  Biso   1.000  H
  H59      1.0000 0.82173  0.59541  0.96835  Biso   1.000  H
  H60      1.0000 0.88596  0.63874  0.88465  Biso   1.000  H
  C61      1.0000 0.53339  0.19392  0.88012  Biso   1.000  C
  H61      1.0000 0.64551  0.25393  0.93703  Biso   1.000  H
  C62      1.0000 0.49220  0.30592  0.01942  Biso   1.000  C
  O13      1.0000 0.74150  0.35398  0.82346  Biso   1.000  O
  C63      1.0000 0.15582  0.10042  0.74128  Biso   1.000  C
  H62      1.0000 0.04774  0.13264  0.64051  Biso   1.000  H
  H63      1.0000 0.87903  0.31893  0.63362  Biso   1.000  H
  C64      1.0000 0.28322  0.07403  0.86974  Biso   1.000  C
  C65      1.0000 0.42772  0.17223  0.89528  Biso   1.000  C
  C66      1.0000 0.61497  0.13496  0.81408  Biso   1.000  C
  H64      1.0000 0.40594  0.32791  0.01318  Biso   1.000  H
  H65      1.0000 0.50635  0.36942  0.04312  Biso   1.000  H
  C67      1.0000 0.52878  0.20754  0.08506  Biso   1.000  C
  H66      1.0000 0.74798  0.28705  0.81992  Biso   1.000  H
  O14      1.0000 0.21886  0.99012  0.72506  Biso   1.000  O
  C68      1.0000 0.39849  0.09781  0.84775  Biso   1.000  C
  C69      1.0000 0.24319  0.07903  0.96841  Biso   1.000  C
  H67      1.0000 0.30075  0.99536  0.85379  Biso   1.000  H
  H68      1.0000 0.37214  0.21031  0.94071  Biso   1.000  H
  C70      1.0000 0.58882  0.06148  0.76425  Biso   1.000  C
  O15      1.0000 0.72092  0.15350  0.79872  Biso   1.000  O
  H69      1.0000 0.61283  0.18827  0.09491  Biso   1.000  H
  H70      1.0000 0.48060  0.22733  0.14067  Biso   1.000  H
  H71      1.0000 0.51629  0.14368  0.06176  Biso   1.000  H
  H72      1.0000 0.21805  0.98493  0.67143  Biso   1.000  H
  C71      1.0000 0.48110  0.04415  0.78014  Biso   1.000  C
  H73      1.0000 0.20561  0.15762  0.98443  Biso   1.000  H
  C72      1.0000 0.15523  0.01857  0.99165  Biso   1.000  C
  H74      1.0000 0.31343  0.04476  0.00268  Biso   1.000  H
  H75      1.0000 0.64485  0.02297  0.71922  Biso   1.000  H
  H76      1.0000 0.75899  0.12095  0.75421  Biso   1.000  H
  O16      1.0000 0.46243  0.97301  0.72506  Biso   1.000  O
  H77      1.0000 0.08759  0.04962  0.95541  Biso   1.000  H
  H78      1.0000 0.19448  0.93914  0.98082  Biso   1.000  H
  H79      1.0000 0.12714  0.02774  0.05382  Biso   1.000  H
  H80      1.0000 0.39394  0.97391  0.73353  Biso   1.000  H
