data_image0
_cell_length_a       12.451
_cell_length_b       13.67
_cell_length_c       19.784
_cell_angle_alpha    71.72
_cell_angle_beta     79.63
_cell_angle_gamma    72.39

_symmetry_space_group_name_H-M    "P 1"
_symmetry_int_tables_number       1

loop_
  _symmetry_equiv_pos_as_xyz
  'x, y, z'

loop_
  _atom_site_label
  _atom_site_occupancy
  _atom_site_fract_x
  _atom_site_fract_y
  _atom_site_fract_z
  _atom_site_thermal_displace_type
  _atom_site_B_iso_or_equiv
  _atom_site_type_symbol
  C1       1.0000 0.60163  0.60010  0.40781  Biso   1.000  C
  C2       1.0000 0.63016  0.52262  0.37166  Biso   1.000  C
  H1       1.0000 0.65751  0.60277  0.43369  Biso   1.000  H
  C3       1.0000 0.49653  0.67438  0.40877  Biso   1.000  C
  C4       1.0000 0.54781  0.52256  0.33220  Biso   1.000  C
  C5       1.0000 0.74447  0.43930  0.37567  Biso   1.000  C
  C6       1.0000 0.41682  0.67049  0.36819  Biso   1.000  C
  C7       1.0000 0.47038  0.75531  0.45198  Biso   1.000  C
  O1       1.0000 0.57625  0.44838  0.29365  Biso   1.000  O
  C8       1.0000 0.44194  0.59424  0.33130  Biso   1.000  C
  C9       1.0000 0.83701  0.48433  0.32499  Biso   1.000  C
  H2       1.0000 0.73588  0.38117  0.35808  Biso   1.000  H
  C10      1.0000 0.77467  0.38760  0.45310  Biso   1.000  C
  O2       1.0000 0.31000  0.73907  0.36380  Biso   1.000  O
  H3       1.0000 0.38622  0.78308  0.45759  Biso   1.000  H
  C11      1.0000 0.51768  0.85092  0.41059  Biso   1.000  C
  C12      1.0000 0.50870  0.70350  0.52726  Biso   1.000  C
  H4       1.0000 0.52999  0.46604  0.26499  Biso   1.000  H
  H5       1.0000 0.38655  0.59115  0.30531  Biso   1.000  H
  C13      1.0000 0.90555  0.53177  0.34616  Biso   1.000  C
  C14      1.0000 0.85517  0.48204  0.25376  Biso   1.000  C
  H6       1.0000 0.79194  0.44089  0.47069  Biso   1.000  H
  H7       1.0000 0.70804  0.36709  0.48325  Biso   1.000  H
  C15      1.0000 0.87535  0.28917  0.46139  Biso   1.000  C
  H8       1.0000 0.31692  0.78809  0.36498  Biso   1.000  H
  C16      1.0000 0.62399  0.85700  0.41797  Biso   1.000  C
  C17      1.0000 0.45271  0.93827  0.36279  Biso   1.000  C
  H9       1.0000 0.48150  0.63847  0.54908  Biso   1.000  H
  H10      1.0000 0.59249  0.68130  0.52378  Biso   1.000  H
  C18      1.0000 0.46600  0.77692  0.57586  Biso   1.000  C
  C19      1.0000 0.98932  0.57407  0.30151  Biso   1.000  C
  H11      1.0000 0.89386  0.53511  0.39439  Biso   1.000  H
  O3       1.0000 0.79284  0.43939  0.22527  Biso   1.000  O
  C20      1.0000 0.93718  0.52488  0.20709  Biso   1.000  C
  H12      1.0000 0.89047  0.26000  0.51175  Biso   1.000  H
  H13      1.0000 0.94206  0.30909  0.43246  Biso   1.000  H
  H14      1.0000 0.85813  0.23518  0.44529  Biso   1.000  H
  H15      1.0000 0.66870  0.79867  0.45069  Biso   1.000  H
  C21      1.0000 0.66965  0.94150  0.38118  Biso   1.000  C
  O4       1.0000 0.34741  0.93252  0.35461  Biso   1.000  O
  C22      1.0000 0.49441  0.02543  0.32440  Biso   1.000  C
  H16      1.0000 0.49283  0.73922  0.62329  Biso   1.000  H
  H17      1.0000 0.38298  0.79841  0.58030  Biso   1.000  H
  H18      1.0000 0.49452  0.84048  0.55538  Biso   1.000  H
  C23      1.0000 0.06435  0.62405  0.32600  Biso   1.000  C
  C24      1.0000 0.00274  0.57103  0.23008  Biso   1.000  C
  H19      1.0000 0.73798  0.44706  0.24500  Biso   1.000  H
  H20      1.0000 0.94830  0.52233  0.15880  Biso   1.000  H
  C25      1.0000 0.78476  0.94669  0.39278  Biso   1.000  C
  C26      1.0000 0.60181  0.02580  0.33317  Biso   1.000  C
  H21      1.0000 0.31191  0.98907  0.32600  Biso   1.000  H
  H22      1.0000 0.44925  0.08436  0.29226  Biso   1.000  H
  C27      1.0000 0.01665  0.74495  0.31108  Biso   1.000  C
  H23      1.0000 0.13811  0.61215  0.29590  Biso   1.000  H
  C28      1.0000 0.09162  0.57078  0.40428  Biso   1.000  C
  O5       1.0000 0.07846  0.61457  0.17928  Biso   1.000  O
  C29      1.0000 0.87962  0.90020  0.34199  Biso   1.000  C
  C30      1.0000 0.81269  0.89719  0.47138  Biso   1.000  C
  H24      1.0000 0.78140  0.02414  0.38086  Biso   1.000  H
  O6       1.0000 0.64920  0.10814  0.29397  Biso   1.000  O
  C31      1.0000 0.92607  0.79054  0.35439  Biso   1.000  C
  C32      1.0000 0.06059  0.81431  0.25296  Biso   1.000  C
  H25      1.0000 0.13666  0.60986  0.41706  Biso   1.000  H
  H26      1.0000 0.02003  0.57630  0.43588  Biso   1.000  H
  C33      1.0000 0.15741  0.45326  0.41770  Biso   1.000  C
  H27      1.0000 0.10792  0.64706  0.19297  Biso   1.000  H
  C34      1.0000 0.92475  0.96600  0.28077  Biso   1.000  C
  H28      1.0000 0.81044  0.82172  0.48577  Biso   1.000  H
  H29      1.0000 0.89154  0.89763  0.47347  Biso   1.000  H
  C35      1.0000 0.74254  0.94631  0.52288  Biso   1.000  C
  H30      1.0000 0.74272  0.91067  0.50379  Biso   1.000  H
  H31      1.0000 0.84440  0.81901  0.48080  Biso   1.000  H
  C36      1.0000 0.89787  0.94624  0.48587  Biso   1.000  C
  H32      1.0000 0.60703  0.14603  0.27301  Biso   1.000  H
  H33      1.0000 0.89444  0.74429  0.39428  Biso   1.000  H
  O7       1.0000 0.15010  0.76961  0.20955  Biso   1.000  O
  C37      1.0000 0.01705  0.92344  0.23831  Biso   1.000  C
  H34      1.0000 0.17218  0.42336  0.46818  Biso   1.000  H
  H35      1.0000 0.22952  0.44722  0.38771  Biso   1.000  H
  H36      1.0000 0.11296  0.41366  0.40599  Biso   1.000  H
  O8       1.0000 0.88201  0.07581  0.26056  Biso   1.000  O
  H37      1.0000 0.76921  0.90819  0.57020  Biso   1.000  H
  H38      1.0000 0.66451  0.94399  0.52346  Biso   1.000  H
  H39      1.0000 0.74542  0.02077  0.51058  Biso   1.000  H
  H40      1.0000 0.88120  0.95352  0.53459  Biso   1.000  H
  H41      1.0000 0.97443  0.89981  0.48047  Biso   1.000  H
  H42      1.0000 0.89310  0.01660  0.45171  Biso   1.000  H
  H43      1.0000 0.15491  0.80808  0.17698  Biso   1.000  H
  H44      1.0000 0.05021  0.96935  0.19907  Biso   1.000  H
  H45      1.0000 0.81703  0.09001  0.27301  Biso   1.000  H
  C38      1.0000 0.39824  0.40009  0.59217  Biso   1.000  C
  C39      1.0000 0.50335  0.32584  0.59116  Biso   1.000  C
  C40      1.0000 0.36972  0.47760  0.62826  Biso   1.000  C
  H46      1.0000 0.34238  0.39735  0.56629  Biso   1.000  H
  C41      1.0000 0.52942  0.24490  0.54795  Biso   1.000  C
  C42      1.0000 0.58305  0.32970  0.63179  Biso   1.000  C
  C43      1.0000 0.45206  0.47763  0.66778  Biso   1.000  C
  C44      1.0000 0.25541  0.56092  0.62425  Biso   1.000  C
  C45      1.0000 0.48219  0.14927  0.58939  Biso   1.000  C
  H47      1.0000 0.61365  0.21711  0.54239  Biso   1.000  H
  C46      1.0000 0.49118  0.29671  0.47267  Biso   1.000  C
  O9       1.0000 0.68987  0.26112  0.63618  Biso   1.000  O
  C47      1.0000 0.55796  0.40588  0.66869  Biso   1.000  C
  O10      1.0000 0.42363  0.55184  0.70627  Biso   1.000  O
  C48      1.0000 0.16289  0.51579  0.67500  Biso   1.000  C
  H48      1.0000 0.26400  0.61902  0.64190  Biso   1.000  H
  C49      1.0000 0.22520  0.61259  0.54688  Biso   1.000  C
  C50      1.0000 0.37589  0.14321  0.58196  Biso   1.000  C
  C51      1.0000 0.54719  0.06184  0.63719  Biso   1.000  C
  H49      1.0000 0.51832  0.36165  0.45091  Biso   1.000  H
  H50      1.0000 0.40730  0.31889  0.47620  Biso   1.000  H
  C52      1.0000 0.53388  0.22330  0.42406  Biso   1.000  C
  H51      1.0000 0.68296  0.21212  0.63495  Biso   1.000  H
  H52      1.0000 0.61332  0.40904  0.69467  Biso   1.000  H
  H53      1.0000 0.46988  0.53415  0.73499  Biso   1.000  H
  C53      1.0000 0.09435  0.46837  0.65377  Biso   1.000  C
  C54      1.0000 0.14473  0.51810  0.74616  Biso   1.000  C
  H54      1.0000 0.20794  0.55930  0.52929  Biso   1.000  H
  H55      1.0000 0.29184  0.63312  0.51667  Biso   1.000  H
  C55      1.0000 0.12452  0.71103  0.53860  Biso   1.000  C
  C56      1.0000 0.33022  0.05869  0.61880  Biso   1.000  C
  H56      1.0000 0.33120  0.20145  0.54929  Biso   1.000  H
  C57      1.0000 0.50546  0.97477  0.67558  Biso   1.000  C
  O11      1.0000 0.65246  0.06767  0.64537  Biso   1.000  O
  H57      1.0000 0.50705  0.26097  0.37669  Biso   1.000  H
  H58      1.0000 0.61689  0.20178  0.41968  Biso   1.000  H
  H59      1.0000 0.50538  0.15964  0.44460  Biso   1.000  H
  C58      1.0000 0.01055  0.42612  0.69847  Biso   1.000  C
  H60      1.0000 0.10601  0.46509  0.60559  Biso   1.000  H
  C59      1.0000 0.06270  0.47534  0.79284  Biso   1.000  C
  O12      1.0000 0.20704  0.56082  0.77466  Biso   1.000  O
  H61      1.0000 0.10941  0.74021  0.48817  Biso   1.000  H
  H62      1.0000 0.05782  0.69112  0.56747  Biso   1.000  H
  H63      1.0000 0.14174  0.76501  0.55469  Biso   1.000  H
  C60      1.0000 0.21511  0.05351  0.60720  Biso   1.000  C
  C61      1.0000 0.39809  0.97434  0.66676  Biso   1.000  C
  H64      1.0000 0.55063  0.91585  0.70767  Biso   1.000  H
  H65      1.0000 0.68796  0.01112  0.67398  Biso   1.000  H
  C62      1.0000 0.93553  0.37614  0.67398  Biso   1.000  C
  C63      1.0000 0.99717  0.42911  0.76985  Biso   1.000  C
  H66      1.0000 0.05157  0.47786  0.84118  Biso   1.000  H
  H67      1.0000 0.26189  0.55314  0.75499  Biso   1.000  H
  C64      1.0000 0.18718  0.10300  0.52860  Biso   1.000  C
  C65      1.0000 0.12025  0.09999  0.65799  Biso   1.000  C
  H68      1.0000 0.21848  0.97608  0.61907  Biso   1.000  H
  O13      1.0000 0.35068  0.89208  0.70595  Biso   1.000  O
  C66      1.0000 0.98325  0.25516  0.68890  Biso   1.000  C
  H69      1.0000 0.86176  0.38804  0.70408  Biso   1.000  H
  C67      1.0000 0.90825  0.42941  0.59570  Biso   1.000  C
  O14      1.0000 0.92142  0.38565  0.82065  Biso   1.000  O
  C68      1.0000 0.25734  0.05388  0.47711  Biso   1.000  C
  H70      1.0000 0.25717  0.08944  0.49619  Biso   1.000  H
  H71      1.0000 0.18944  0.17850  0.51416  Biso   1.000  H
  H72      1.0000 0.10834  0.10258  0.52646  Biso   1.000  H
  H73      1.0000 0.15547  0.18118  0.51919  Biso   1.000  H
  C69      1.0000 0.10201  0.05398  0.51405  Biso   1.000  C
  C70      1.0000 0.07383  0.20957  0.64559  Biso   1.000  C
  C71      1.0000 0.07513  0.03421  0.71916  Biso   1.000  C
  H74      1.0000 0.39284  0.85416  0.72697  Biso   1.000  H
  C72      1.0000 0.93929  0.18590  0.74696  Biso   1.000  C
  H75      1.0000 0.86324  0.39028  0.58287  Biso   1.000  H
  H76      1.0000 0.97985  0.42389  0.56410  Biso   1.000  H
  C73      1.0000 0.84246  0.54693  0.58228  Biso   1.000  C
  H77      1.0000 0.89195  0.35316  0.80696  Biso   1.000  H
  H78      1.0000 0.23066  0.09200  0.42979  Biso   1.000  H
  H79      1.0000 0.33540  0.05614  0.47646  Biso   1.000  H
  H80      1.0000 0.25446  0.97942  0.48940  Biso   1.000  H
  H81      1.0000 0.11867  0.04667  0.46540  Biso   1.000  H
  H82      1.0000 0.02545  0.10041  0.51945  Biso   1.000  H
  H83      1.0000 0.10679  0.98351  0.54827  Biso   1.000  H
  H84      1.0000 0.10543  0.25590  0.60570  Biso   1.000  H
  C74      1.0000 0.98285  0.07668  0.76167  Biso   1.000  C
  O15      1.0000 0.11787  0.92440  0.73937  Biso   1.000  O
  O16      1.0000 0.84972  0.23050  0.79044  Biso   1.000  O
  H85      1.0000 0.82772  0.57678  0.53175  Biso   1.000  H
  H86      1.0000 0.77030  0.55289  0.61228  Biso   1.000  H
  H87      1.0000 0.88691  0.58654  0.59399  Biso   1.000  H
  H88      1.0000 0.94969  0.03079  0.80086  Biso   1.000  H
  H89      1.0000 0.18284  0.91019  0.72697  Biso   1.000  H
  H90      1.0000 0.84497  0.19213  0.82294  Biso   1.000  H
