data_image0
_cell_length_a       15.856
_cell_length_b       17.823
_cell_length_c       20.256
_cell_angle_alpha    85.69
_cell_angle_beta     88.54
_cell_angle_gamma    86.63

_symmetry_space_group_name_H-M    "P 1"
_symmetry_int_tables_number       1

loop_
  _symmetry_equiv_pos_as_xyz
  'x, y, z'

loop_
  _atom_site_label
  _atom_site_occupancy
  _atom_site_fract_x
  _atom_site_fract_y
  _atom_site_fract_z
  _atom_site_thermal_displace_type
  _atom_site_B_iso_or_equiv
  _atom_site_type_symbol
  C1       1.0000 0.36427  0.83877  0.28538  Biso   1.000  C
  C2       1.0000 0.30967  0.83799  0.34079  Biso   1.000  C
  C3       1.0000 0.39885  0.77340  0.26260  Biso   1.000  C
  O1       1.0000 0.38887  0.90527  0.25309  Biso   1.000  O
  C4       1.0000 0.28700  0.76801  0.36768  Biso   1.000  C
  C5       1.0000 0.27756  0.90991  0.37323  Biso   1.000  C
  C6       1.0000 0.37697  0.70410  0.29281  Biso   1.000  C
  H1       1.0000 0.43794  0.77522  0.22630  Biso   1.000  H
  H2       1.0000 0.35599  0.93301  0.24398  Biso   1.000  H
  C7       1.0000 0.31906  0.69947  0.34520  Biso   1.000  C
  H3       1.0000 0.24727  0.76651  0.40358  Biso   1.000  H
  C8       1.0000 0.18538  0.93027  0.35832  Biso   1.000  C
  H4       1.0000 0.31015  0.95159  0.35139  Biso   1.000  H
  C9       1.0000 0.29855  0.90567  0.44642  Biso   1.000  C
  O2       1.0000 0.40719  0.63647  0.26889  Biso   1.000  O
  C10      1.0000 0.29278  0.62450  0.37862  Biso   1.000  C
  C11      1.0000 0.11908  0.90948  0.40101  Biso   1.000  C
  C12      1.0000 0.16274  0.96958  0.29979  Biso   1.000  C
  H5       1.0000 0.27228  0.95077  0.46622  Biso   1.000  H
  H6       1.0000 0.27347  0.86078  0.46900  Biso   1.000  H
  C13      1.0000 0.39279  0.90115  0.45870  Biso   1.000  C
  H7       1.0000 0.44199  0.63797  0.24101  Biso   1.000  H
  C14      1.0000 0.20360  0.60816  0.35961  Biso   1.000  C
  H8       1.0000 0.33110  0.58468  0.35951  Biso   1.000  H
  C15      1.0000 0.30899  0.61848  0.45290  Biso   1.000  C
  C16      1.0000 0.03337  0.92738  0.38798  Biso   1.000  C
  H9       1.0000 0.13267  0.88146  0.44151  Biso   1.000  H
  O3       1.0000 0.22766  0.98601  0.25408  Biso   1.000  O
  C17      1.0000 0.07925  0.99011  0.28488  Biso   1.000  C
  H10      1.0000 0.41934  0.85738  0.43720  Biso   1.000  H
  H11      1.0000 0.41737  0.94715  0.43770  Biso   1.000  H
  C18      1.0000 0.41388  0.89378  0.53109  Biso   1.000  C
  C19      1.0000 0.18677  0.58606  0.29761  Biso   1.000  C
  C20      1.0000 0.13406  0.61668  0.40338  Biso   1.000  C
  H12      1.0000 0.27710  0.66049  0.47340  Biso   1.000  H
  H13      1.0000 0.28747  0.57066  0.47291  Biso   1.000  H
  C21      1.0000 0.40155  0.62066  0.46850  Biso   1.000  C
  C22      1.0000 0.96334  0.90228  0.43592  Biso   1.000  C
  C23      1.0000 0.01615  0.96728  0.32851  Biso   1.000  C
  H14      1.0000 0.22202  0.02199  0.24398  Biso   1.000  H
  H15      1.0000 0.06593  0.01948  0.24502  Biso   1.000  H
  H16      1.0000 0.47535  0.89175  0.53580  Biso   1.000  H
  H17      1.0000 0.39148  0.84740  0.55199  Biso   1.000  H
  H18      1.0000 0.38836  0.93727  0.55268  Biso   1.000  H
  O4       1.0000 0.24828  0.57760  0.24839  Biso   1.000  O
  C24      1.0000 0.10656  0.57047  0.28048  Biso   1.000  C
  H19      1.0000 0.14399  0.63248  0.44622  Biso   1.000  H
  C25      1.0000 0.05109  0.60317  0.38759  Biso   1.000  C
  H20      1.0000 0.42294  0.66848  0.44850  Biso   1.000  H
  H21      1.0000 0.43349  0.57877  0.44790  Biso   1.000  H
  C26      1.0000 0.41766  0.61459  0.54199  Biso   1.000  C
  C27      1.0000 0.92517  0.83110  0.41418  Biso   1.000  C
  H22      1.0000 0.91757  0.94329  0.43349  Biso   1.000  H
  C28      1.0000 0.98934  0.89005  0.50851  Biso   1.000  C
  O5       1.0000 0.93474  0.98821  0.30890  Biso   1.000  O
  H23      1.0000 0.28400  0.58196  0.26003  Biso   1.000  H
  C29      1.0000 0.03918  0.57937  0.32499  Biso   1.000  C
  H24      1.0000 0.09726  0.55351  0.23809  Biso   1.000  H
  C30      1.0000 0.97650  0.61756  0.43513  Biso   1.000  C
  H25      1.0000 0.47846  0.61567  0.54922  Biso   1.000  H
  H26      1.0000 0.39719  0.56705  0.56199  Biso   1.000  H
  H27      1.0000 0.38795  0.65699  0.56249  Biso   1.000  H
  C31      1.0000 0.96650  0.76016  0.42760  Biso   1.000  C
  C32      1.0000 0.84775  0.83385  0.38268  Biso   1.000  C
  H28      1.0000 0.02995  0.84568  0.51351  Biso   1.000  H
  H29      1.0000 0.01856  0.93445  0.52060  Biso   1.000  H
  C33      1.0000 0.91464  0.87769  0.55600  Biso   1.000  C
  H30      1.0000 0.90195  0.96196  0.33500  Biso   1.000  H
  O6       1.0000 0.96127  0.56400  0.30261  Biso   1.000  O
  C34      1.0000 0.93165  0.69287  0.41443  Biso   1.000  C
  H31      1.0000 0.93579  0.57797  0.42928  Biso   1.000  H
  C35      1.0000 0.99919  0.61168  0.50772  Biso   1.000  C
  H32      1.0000 0.02079  0.75767  0.44661  Biso   1.000  H
  C36      1.0000 0.81166  0.76787  0.36590  Biso   1.000  C
  O7       1.0000 0.80856  0.90336  0.36813  Biso   1.000  O
  H33      1.0000 0.88155  0.92617  0.55962  Biso   1.000  H
  H34      1.0000 0.87748  0.84189  0.53788  Biso   1.000  H
  C37      1.0000 0.94206  0.84738  0.62379  Biso   1.000  C
  H35      1.0000 0.92331  0.58245  0.32712  Biso   1.000  H
  C38      1.0000 0.85346  0.69739  0.38338  Biso   1.000  C
  H36      1.0000 0.03287  0.56374  0.51772  Biso   1.000  H
  H37      1.0000 0.03507  0.65349  0.51589  Biso   1.000  H
  C39      1.0000 0.92320  0.61426  0.55461  Biso   1.000  C
  H38      1.0000 0.75986  0.77080  0.34312  Biso   1.000  H
  H39      1.0000 0.76197  0.90300  0.34901  Biso   1.000  H
  H40      1.0000 0.89207  0.83957  0.65251  Biso   1.000  H
  H41      1.0000 0.97715  0.88357  0.64261  Biso   1.000  H
  H42      1.0000 0.97466  0.79937  0.62062  Biso   1.000  H
  O8       1.0000 0.82049  0.63219  0.36798  Biso   1.000  O
  H43      1.0000 0.89030  0.56954  0.54971  Biso   1.000  H
  H44      1.0000 0.88649  0.65969  0.54179  Biso   1.000  H
  C40      1.0000 0.94659  0.61608  0.62671  Biso   1.000  C
  H45      1.0000 0.77701  0.64300  0.34901  Biso   1.000  H
  H46      1.0000 0.89496  0.61837  0.65430  Biso   1.000  H
  H47      1.0000 0.97848  0.66048  0.63201  Biso   1.000  H
  H48      1.0000 0.98121  0.57038  0.64018  Biso   1.000  H
  O9       1.0000 0.31125  0.46961  0.13152  Biso   1.000  O
  C41      1.0000 0.39277  0.46258  0.15430  Biso   1.000  C
  H49      1.0000 0.28001  0.46500  0.15703  Biso   1.000  H
  C42      1.0000 0.41445  0.43410  0.21838  Biso   1.000  C
  C43      1.0000 0.45499  0.48208  0.10761  Biso   1.000  C
  C44      1.0000 0.34547  0.41187  0.26889  Biso   1.000  C
  C45      1.0000 0.49948  0.42636  0.23160  Biso   1.000  C
  C46      1.0000 0.53977  0.47050  0.12301  Biso   1.000  C
  H50      1.0000 0.43939  0.50347  0.06502  Biso   1.000  H
  C47      1.0000 0.30831  0.33950  0.25329  Biso   1.000  C
  H51      1.0000 0.29900  0.45219  0.26399  Biso   1.000  H
  C48      1.0000 0.37387  0.40929  0.34109  Biso   1.000  C
  H52      1.0000 0.51530  0.40799  0.27498  Biso   1.000  H
  C49      1.0000 0.56447  0.44369  0.18590  Biso   1.000  C
  O10      1.0000 0.59564  0.48668  0.07086  Biso   1.000  O
  C50      1.0000 0.35098  0.27099  0.26532  Biso   1.000  C
  C51      1.0000 0.22630  0.33879  0.22828  Biso   1.000  C
  H53      1.0000 0.40117  0.45645  0.34842  Biso   1.000  H
  H54      1.0000 0.41627  0.36679  0.34931  Biso   1.000  H
  C52      1.0000 0.29999  0.39989  0.39011  Biso   1.000  C
  C53      1.0000 0.65755  0.43130  0.20352  Biso   1.000  C
  H55      1.0000 0.64545  0.48038  0.08428  Biso   1.000  H
  C54      1.0000 0.31811  0.20081  0.25700  Biso   1.000  C
  H56      1.0000 0.40719  0.27090  0.28038  Biso   1.000  H
  C55      1.0000 0.19191  0.27110  0.21709  Biso   1.000  C
  O11      1.0000 0.18498  0.40717  0.21382  Biso   1.000  O
  H57      1.0000 0.25956  0.44416  0.38372  Biso   1.000  H
  H58      1.0000 0.27037  0.35467  0.38051  Biso   1.000  H
  C56      1.0000 0.32700  0.39175  0.46231  Biso   1.000  C
  C57      1.0000 0.69525  0.35839  0.17763  Biso   1.000  C
  H59      1.0000 0.68738  0.47299  0.17891  Biso   1.000  H
  C58      1.0000 0.67429  0.43697  0.27652  Biso   1.000  C
  C59      1.0000 0.23689  0.20327  0.23239  Biso   1.000  C
  C60      1.0000 0.36839  0.12830  0.27988  Biso   1.000  C
  H60      1.0000 0.13718  0.27128  0.19892  Biso   1.000  H
  H61      1.0000 0.13801  0.40100  0.19298  Biso   1.000  H
  H62      1.0000 0.36207  0.43330  0.47078  Biso   1.000  H
  H63      1.0000 0.27671  0.39318  0.49138  Biso   1.000  H
  H64      1.0000 0.35936  0.34365  0.47088  Biso   1.000  H
  C61      1.0000 0.67529  0.28871  0.20758  Biso   1.000  C
  C62      1.0000 0.74908  0.35747  0.12231  Biso   1.000  C
  H65      1.0000 0.64438  0.48329  0.29122  Biso   1.000  H
  H66      1.0000 0.65078  0.39339  0.30231  Biso   1.000  H
  C63      1.0000 0.76898  0.43877  0.29132  Biso   1.000  C
  O12      1.0000 0.19997  0.13681  0.22269  Biso   1.000  O
  C64      1.0000 0.44796  0.11478  0.23611  Biso   1.000  C
  H67      1.0000 0.33126  0.08589  0.27419  Biso   1.000  H
  C65      1.0000 0.38798  0.12569  0.35372  Biso   1.000  C
  C66      1.0000 0.70928  0.22079  0.18852  Biso   1.000  C
  H68      1.0000 0.61320  0.28668  0.20501  Biso   1.000  H
  H69      1.0000 0.68792  0.28989  0.25512  Biso   1.000  H
  C67      1.0000 0.78488  0.28968  0.10171  Biso   1.000  C
  O13      1.0000 0.76560  0.42617  0.08928  Biso   1.000  O
  H70      1.0000 0.79167  0.48409  0.26760  Biso   1.000  H
  H71      1.0000 0.79937  0.39397  0.27399  Biso   1.000  H
  C68      1.0000 0.78596  0.43976  0.36441  Biso   1.000  C
  H72      1.0000 0.16701  0.14097  0.20199  Biso   1.000  H
  C69      1.0000 0.52657  0.13567  0.25101  Biso   1.000  C
  C70      1.0000 0.44078  0.07929  0.17812  Biso   1.000  C
  H73      1.0000 0.42201  0.16887  0.36159  Biso   1.000  H
  H74      1.0000 0.42259  0.07886  0.36590  Biso   1.000  H
  C71      1.0000 0.30879  0.12825  0.39818  Biso   1.000  C
  C72      1.0000 0.68867  0.14587  0.22799  Biso   1.000  C
  C73      1.0000 0.76429  0.22198  0.13350  Biso   1.000  C
  H75      1.0000 0.84697  0.29198  0.10379  Biso   1.000  H
  H76      1.0000 0.77127  0.28791  0.05452  Biso   1.000  H
  H77      1.0000 0.79297  0.41599  0.05398  Biso   1.000  H
  H78      1.0000 0.76910  0.39246  0.38759  Biso   1.000  H
  H79      1.0000 0.84640  0.44510  0.37050  Biso   1.000  H
  H80      1.0000 0.75337  0.48226  0.38239  Biso   1.000  H
  C74      1.0000 0.59992  0.12269  0.21150  Biso   1.000  C
  H81      1.0000 0.53217  0.16046  0.29038  Biso   1.000  H
  O14      1.0000 0.36161  0.05890  0.16198  Biso   1.000  O
  C75      1.0000 0.51130  0.06417  0.13662  Biso   1.000  C
  H82      1.0000 0.27508  0.08477  0.39061  Biso   1.000  H
  H83      1.0000 0.27401  0.17488  0.38570  Biso   1.000  H
  C76      1.0000 0.32868  0.12629  0.47103  Biso   1.000  C
  C77      1.0000 0.70076  0.15047  0.30231  Biso   1.000  C
  O15      1.0000 0.80248  0.15901  0.10899  Biso   1.000  O
  C78      1.0000 0.58826  0.08647  0.15490  Biso   1.000  C
  H84      1.0000 0.36000  0.03601  0.13400  Biso   1.000  H
  H85      1.0000 0.50578  0.03938  0.09721  Biso   1.000  H
  H86      1.0000 0.27581  0.12797  0.49722  Biso   1.000  H
  H87      1.0000 0.36218  0.07980  0.48390  Biso   1.000  H
  H88      1.0000 0.36080  0.16985  0.47910  Biso   1.000  H
  H89      1.0000 0.68498  0.10266  0.32618  Biso   1.000  H
  H90      1.0000 0.66259  0.19157  0.31821  Biso   1.000  H
  C79      1.0000 0.79087  0.16488  0.31811  Biso   1.000  C
  H91      1.0000 0.76568  0.12877  0.10161  Biso   1.000  H
  O16      1.0000 0.65976  0.07282  0.11538  Biso   1.000  O
  H92      1.0000 0.82869  0.12257  0.30390  Biso   1.000  H
  H93      1.0000 0.80749  0.21138  0.29251  Biso   1.000  H
  C80      1.0000 0.80322  0.17328  0.39269  Biso   1.000  C
  H94      1.0000 0.65398  0.04398  0.08398  Biso   1.000  H
  H95      1.0000 0.86249  0.18215  0.40021  Biso   1.000  H
  H96      1.0000 0.76709  0.21589  0.40670  Biso   1.000  H
  H97      1.0000 0.78779  0.12697  0.41819  Biso   1.000  H
  C81      1.0000 0.19674  0.82668  0.60730  Biso   1.000  C
  C82      1.0000 0.20908  0.83508  0.68188  Biso   1.000  C
  H98      1.0000 0.13747  0.81775  0.59983  Biso   1.000  H
  H99      1.0000 0.23287  0.78407  0.59329  Biso   1.000  H
  H100     1.0000 0.21217  0.87299  0.58180  Biso   1.000  H
  C83      1.0000 0.29919  0.84943  0.69773  Biso   1.000  C
  H101     1.0000 0.17126  0.87739  0.69609  Biso   1.000  H
  H102     1.0000 0.19246  0.78858  0.70748  Biso   1.000  H
  C84      1.0000 0.31129  0.85404  0.77200  Biso   1.000  C
  H103     1.0000 0.31497  0.89725  0.67381  Biso   1.000  H
  H104     1.0000 0.33736  0.80834  0.68178  Biso   1.000  H
  C85      1.0000 0.29067  0.77917  0.81152  Biso   1.000  C
  C86      1.0000 0.40003  0.87727  0.78849  Biso   1.000  C
  C87      1.0000 0.32466  0.71125  0.79241  Biso   1.000  C
  C88      1.0000 0.23567  0.77793  0.86649  Biso   1.000  C
  C89      1.0000 0.47338  0.86423  0.74903  Biso   1.000  C
  C90      1.0000 0.41170  0.91343  0.84509  Biso   1.000  C
  C91      1.0000 0.30470  0.64157  0.82241  Biso   1.000  C
  H105     1.0000 0.38676  0.71328  0.79498  Biso   1.000  H
  H106     1.0000 0.31204  0.71002  0.74487  Biso   1.000  H
  C92      1.0000 0.21508  0.71022  0.89833  Biso   1.000  C
  O17      1.0000 0.19747  0.84095  0.89100  Biso   1.000  O
  H107     1.0000 0.46779  0.83944  0.70961  Biso   1.000  H
  C93      1.0000 0.55199  0.88518  0.76388  Biso   1.000  C
  C94      1.0000 0.48865  0.93573  0.86342  Biso   1.000  C
  O18      1.0000 0.34019  0.92714  0.88461  Biso   1.000  O
  C95      1.0000 0.34240  0.56865  0.79652  Biso   1.000  C
  C96      1.0000 0.25088  0.64243  0.87773  Biso   1.000  C
  H108     1.0000 0.15299  0.70793  0.89620  Biso   1.000  H
  H109     1.0000 0.22869  0.71200  0.94547  Biso   1.000  H
  H110     1.0000 0.23427  0.87113  0.89843  Biso   1.000  H
  C97      1.0000 0.63157  0.87166  0.72011  Biso   1.000  C
  C98      1.0000 0.55917  0.92066  0.82192  Biso   1.000  C
  H111     1.0000 0.49418  0.96058  0.90278  Biso   1.000  H
  H112     1.0000 0.34597  0.95593  0.91601  Biso   1.000  H
  C99      1.0000 0.32567  0.56298  0.72352  Biso   1.000  C
  C100     1.0000 0.43548  0.55627  0.81410  Biso   1.000  C
  H113     1.0000 0.31257  0.52696  0.82113  Biso   1.000  H
  O19      1.0000 0.23435  0.57373  0.91071  Biso   1.000  O
  C101     1.0000 0.68184  0.79915  0.74299  Biso   1.000  C
  H114     1.0000 0.66863  0.91407  0.72580  Biso   1.000  H
  C102     1.0000 0.61197  0.87426  0.64632  Biso   1.000  C
  O20      1.0000 0.63834  0.94106  0.83801  Biso   1.000  O
  C103     1.0000 0.23097  0.56113  0.70872  Biso   1.000  C
  H115     1.0000 0.35557  0.51667  0.70882  Biso   1.000  H
  H116     1.0000 0.34917  0.60657  0.69773  Biso   1.000  H
  C104     1.0000 0.50047  0.57354  0.76839  Biso   1.000  C
  C105     1.0000 0.46018  0.52946  0.87698  Biso   1.000  C
  H117     1.0000 0.20698  0.58397  0.94601  Biso   1.000  H
  C106     1.0000 0.64897  0.72897  0.73472  Biso   1.000  C
  C107     1.0000 0.76307  0.79663  0.76760  Biso   1.000  C
  H118     1.0000 0.57794  0.83109  0.63840  Biso   1.000  H
  H119     1.0000 0.57737  0.92104  0.63409  Biso   1.000  H
  C108     1.0000 0.69117  0.87165  0.60181  Biso   1.000  C
  H120     1.0000 0.63996  0.96395  0.86599  Biso   1.000  H
  C109     1.0000 0.21400  0.56014  0.63558  Biso   1.000  C
  H121     1.0000 0.20828  0.51587  0.73239  Biso   1.000  H
  H122     1.0000 0.20058  0.60594  0.72600  Biso   1.000  H
  C110     1.0000 0.58550  0.56586  0.78161  Biso   1.000  C
  H123     1.0000 0.48465  0.59197  0.72501  Biso   1.000  H
  O21      1.0000 0.40425  0.51322  0.92913  Biso   1.000  O
  C111     1.0000 0.54496  0.51783  0.89239  Biso   1.000  C
  C112     1.0000 0.69164  0.66046  0.74670  Biso   1.000  C
  H124     1.0000 0.59276  0.72906  0.71961  Biso   1.000  H
  C113     1.0000 0.80804  0.72886  0.78290  Biso   1.000  C
  O22      1.0000 0.79998  0.86315  0.77730  Biso   1.000  O
  H125     1.0000 0.72488  0.91519  0.60938  Biso   1.000  H
  H126     1.0000 0.72594  0.82508  0.61429  Biso   1.000  H
  C114     1.0000 0.67127  0.87366  0.52901  Biso   1.000  C
  H127     1.0000 0.23086  0.60744  0.61240  Biso   1.000  H
  H128     1.0000 0.15356  0.55486  0.62949  Biso   1.000  H
  H129     1.0000 0.24659  0.51764  0.61760  Biso   1.000  H
  C115     1.0000 0.60719  0.53738  0.84569  Biso   1.000  C
  C116     1.0000 0.65449  0.58803  0.73110  Biso   1.000  C
  H130     1.0000 0.35451  0.51952  0.91571  Biso   1.000  H
  H131     1.0000 0.56057  0.49643  0.93502  Biso   1.000  H
  C117     1.0000 0.77365  0.66117  0.77171  Biso   1.000  C
  H132     1.0000 0.86277  0.72867  0.80112  Biso   1.000  H
  H133     1.0000 0.83295  0.85894  0.79800  Biso   1.000  H
  H134     1.0000 0.72414  0.87199  0.50282  Biso   1.000  H
  H135     1.0000 0.63778  0.92016  0.51609  Biso   1.000  H
  H136     1.0000 0.63916  0.83006  0.52089  Biso   1.000  H
  O23      1.0000 0.68864  0.53034  0.86852  Biso   1.000  O
  H137     1.0000 0.70095  0.54777  0.73600  Biso   1.000  H
  C118     1.0000 0.62608  0.59067  0.65890  Biso   1.000  C
  O24      1.0000 0.81497  0.59273  0.78622  Biso   1.000  O
  H138     1.0000 0.71994  0.53496  0.84301  Biso   1.000  H
  H139     1.0000 0.59878  0.54345  0.65162  Biso   1.000  H
  H140     1.0000 0.58368  0.63317  0.65068  Biso   1.000  H
  C119     1.0000 0.69996  0.60007  0.60988  Biso   1.000  C
  H141     1.0000 0.86194  0.59896  0.80701  Biso   1.000  H
  H142     1.0000 0.74039  0.55574  0.61632  Biso   1.000  H
  H143     1.0000 0.72958  0.64529  0.61948  Biso   1.000  H
  C120     1.0000 0.67295  0.60816  0.53768  Biso   1.000  C
  H144     1.0000 0.63788  0.56666  0.52921  Biso   1.000  H
  H145     1.0000 0.72325  0.60678  0.50861  Biso   1.000  H
  H146     1.0000 0.64054  0.65626  0.52911  Biso   1.000  H
  C121     1.0000 0.58230  0.38537  0.45800  Biso   1.000  C
  C122     1.0000 0.59841  0.37925  0.53149  Biso   1.000  C
  H147     1.0000 0.52149  0.38428  0.45082  Biso   1.000  H
  H148     1.0000 0.60277  0.43285  0.43800  Biso   1.000  H
  H149     1.0000 0.61200  0.34297  0.43750  Biso   1.000  H
  C123     1.0000 0.69097  0.38148  0.54709  Biso   1.000  C
  H150     1.0000 0.57701  0.33148  0.55150  Biso   1.000  H
  H151     1.0000 0.56646  0.42119  0.55209  Biso   1.000  H
  C124     1.0000 0.70717  0.37546  0.62142  Biso   1.000  C
  H152     1.0000 0.72285  0.33947  0.52659  Biso   1.000  H
  H153     1.0000 0.71249  0.42925  0.52708  Biso   1.000  H
  C125     1.0000 0.68089  0.30049  0.65479  Biso   1.000  C
  H154     1.0000 0.66885  0.41528  0.64048  Biso   1.000  H
  C126     1.0000 0.79636  0.39174  0.64038  Biso   1.000  C
  C127     1.0000 0.71296  0.23196  0.63231  Biso   1.000  C
  C128     1.0000 0.62298  0.29587  0.70718  Biso   1.000  C
  C129     1.0000 0.86589  0.38328  0.59661  Biso   1.000  C
  C130     1.0000 0.81319  0.41385  0.70238  Biso   1.000  C
  C131     1.0000 0.69028  0.16197  0.65920  Biso   1.000  C
  H155     1.0000 0.75269  0.23345  0.59641  Biso   1.000  H
  C132     1.0000 0.60110  0.22656  0.73739  Biso   1.000  C
  O25      1.0000 0.59277  0.36344  0.73110  Biso   1.000  O
  H156     1.0000 0.85596  0.36748  0.55382  Biso   1.000  H
  C133     1.0000 0.94887  0.39679  0.61240  Biso   1.000  C
  C134     1.0000 0.89340  0.42944  0.71951  Biso   1.000  C
  O26      1.0000 0.75168  0.42236  0.75160  Biso   1.000  O
  C135     1.0000 0.72239  0.09005  0.62681  Biso   1.000  C
  C136     1.0000 0.63568  0.16114  0.71461  Biso   1.000  C
  H157     1.0000 0.56201  0.22474  0.77369  Biso   1.000  H
  H158     1.0000 0.55796  0.36194  0.75898  Biso   1.000  H
  C137     1.0000 0.02345  0.38234  0.56491  Biso   1.000  C
  C138     1.0000 0.96077  0.42059  0.67500  Biso   1.000  C
  H159     1.0000 0.90269  0.44645  0.76190  Biso   1.000  H
  H160     1.0000 0.71596  0.41794  0.74001  Biso   1.000  H
  C139     1.0000 0.70141  0.09429  0.55362  Biso   1.000  C
  C140     1.0000 0.81457  0.06963  0.64172  Biso   1.000  C
  H161     1.0000 0.68981  0.04837  0.64860  Biso   1.000  H
  O27      1.0000 0.61109  0.09463  0.74690  Biso   1.000  O
  C141     1.0000 0.06830  0.30709  0.58561  Biso   1.000  C
  H162     1.0000 0.06416  0.42199  0.57071  Biso   1.000  H
  C142     1.0000 0.00076  0.38827  0.49232  Biso   1.000  C
  O28      1.0000 0.03868  0.43596  0.69738  Biso   1.000  O
  C143     1.0000 0.60716  0.09875  0.54129  Biso   1.000  C
  H163     1.0000 0.72767  0.04919  0.53382  Biso   1.000  H
  H164     1.0000 0.72648  0.13919  0.53099  Biso   1.000  H
  C144     1.0000 0.88087  0.09048  0.59898  Biso   1.000  C
  C145     1.0000 0.83721  0.03038  0.70020  Biso   1.000  C
  H165     1.0000 0.64396  0.06695  0.75601  Biso   1.000  H
  C146     1.0000 0.03345  0.23974  0.57239  Biso   1.000  C
  C147     1.0000 0.14649  0.30257  0.61661  Biso   1.000  C
  H166     1.0000 0.96709  0.43616  0.48232  Biso   1.000  H
  H167     1.0000 0.96488  0.34647  0.48410  Biso   1.000  H
  C148     1.0000 0.07675  0.38569  0.44543  Biso   1.000  C
  H168     1.0000 0.07665  0.41745  0.67292  Biso   1.000  H
  C149     1.0000 0.58607  0.10618  0.46890  Biso   1.000  C
  H169     1.0000 0.58061  0.14258  0.56279  Biso   1.000  H
  H170     1.0000 0.58259  0.05276  0.56229  Biso   1.000  H
  C150     1.0000 0.96658  0.07258  0.61201  Biso   1.000  C
  H171     1.0000 0.86728  0.11844  0.55853  Biso   1.000  H
  O29      1.0000 0.77229  0.01395  0.74591  Biso   1.000  O
  C151     1.0000 0.92070  0.00985  0.71511  Biso   1.000  C
  C152     1.0000 0.07478  0.16887  0.58581  Biso   1.000  C
  H172     1.0000 0.97916  0.24229  0.55343  Biso   1.000  H
  C153     1.0000 0.18829  0.23209  0.63409  Biso   1.000  C
  O30      1.0000 0.17946  0.36777  0.63201  Biso   1.000  O
  H173     1.0000 0.10966  0.43036  0.45028  Biso   1.000  H
  H174     1.0000 0.11346  0.34027  0.45820  Biso   1.000  H
  C154     1.0000 0.05336  0.38388  0.37333  Biso   1.000  C
  H175     1.0000 0.52460  0.10815  0.46419  Biso   1.000  H
  H176     1.0000 0.60847  0.15256  0.44800  Biso   1.000  H
  H177     1.0000 0.61160  0.06270  0.44731  Biso   1.000  H
  C155     1.0000 0.98380  0.03268  0.67148  Biso   1.000  C
  C156     1.0000 0.03661  0.09768  0.56412  Biso   1.000  C
  H178     1.0000 0.77793  0.97797  0.75601  Biso   1.000  H
  H179     1.0000 0.93402  0.98047  0.75502  Biso   1.000  H
  C157     1.0000 0.15221  0.16605  0.61731  Biso   1.000  C
  H180     1.0000 0.24009  0.22916  0.65692  Biso   1.000  H
  H181     1.0000 0.22295  0.35696  0.65098  Biso   1.000  H
  H182     1.0000 0.10499  0.38159  0.34569  Biso   1.000  H
  H183     1.0000 0.02147  0.33948  0.36798  Biso   1.000  H
  H184     1.0000 0.01875  0.42959  0.35981  Biso   1.000  H
  O31      1.0000 0.06521  0.01175  0.69109  Biso   1.000  O
  H185     1.0000 0.08238  0.05667  0.56650  Biso   1.000  H
  C158     1.0000 0.01061  0.10985  0.49148  Biso   1.000  C
  O32      1.0000 0.19139  0.09654  0.63191  Biso   1.000  O
  H186     1.0000 0.09801  0.03795  0.66499  Biso   1.000  H
  H187     1.0000 0.97000  0.15427  0.48653  Biso   1.000  H
  H188     1.0000 0.98140  0.06545  0.47940  Biso   1.000  H
  C159     1.0000 0.08531  0.12227  0.44399  Biso   1.000  C
  H189     1.0000 0.23798  0.09696  0.65098  Biso   1.000  H
  H190     1.0000 0.11840  0.07378  0.44042  Biso   1.000  H
  H191     1.0000 0.12247  0.15807  0.46211  Biso   1.000  H
  C160     1.0000 0.05790  0.15258  0.37620  Biso   1.000  C
  H192     1.0000 0.10788  0.16039  0.34753  Biso   1.000  H
  H193     1.0000 0.02281  0.11639  0.35738  Biso   1.000  H
  H194     1.0000 0.02529  0.20059  0.37942  Biso   1.000  H
