data_image0
_cell_length_a       13.11
_cell_length_b       18.355
_cell_length_c       11.861
_cell_angle_alpha    90
_cell_angle_beta     97.92
_cell_angle_gamma    90

_symmetry_space_group_name_H-M    "P 1"
_symmetry_int_tables_number       1

loop_
  _symmetry_equiv_pos_as_xyz
  'x, y, z'

loop_
  _atom_site_label
  _atom_site_occupancy
  _atom_site_fract_x
  _atom_site_fract_y
  _atom_site_fract_z
  _atom_site_thermal_displace_type
  _atom_site_B_iso_or_equiv
  _atom_site_type_symbol
  C1       1.0000 0.51559  0.81231  0.59739  Biso   1.000  C
  C2       1.0000 0.41989  0.79488  0.63680  Biso   1.000  C
  H1       1.0000 0.50527  0.85377  0.54648  Biso   1.000  H
  H2       1.0000 0.53661  0.77129  0.55431  Biso   1.000  H
  C3       1.0000 0.60018  0.82958  0.69221  Biso   1.000  C
  O1       1.0000 0.45103  0.73092  0.70302  Biso   1.000  O
  C4       1.0000 0.33350  0.77428  0.53976  Biso   1.000  C
  H3       1.0000 0.39798  0.83389  0.68438  Biso   1.000  H
  H4       1.0000 0.60557  0.79052  0.74771  Biso   1.000  H
  H5       1.0000 0.58314  0.87388  0.72992  Biso   1.000  H
  C5       1.0000 0.70421  0.83939  0.64871  Biso   1.000  C
  C6       1.0000 0.38914  0.71762  0.78048  Biso   1.000  C
  O2       1.0000 0.28139  0.83530  0.49132  Biso   1.000  O
  H6       1.0000 0.36320  0.74803  0.48128  Biso   1.000  H
  H7       1.0000 0.28489  0.74230  0.56964  Biso   1.000  H
  H8       1.0000 0.71669  0.79782  0.60198  Biso   1.000  H
  H9       1.0000 0.70150  0.88259  0.60130  Biso   1.000  H
  C7       1.0000 0.78868  0.84642  0.74073  Biso   1.000  C
  C8       1.0000 0.33531  0.65579  0.74150  Biso   1.000  C
  C9       1.0000 0.38342  0.74890  0.88518  Biso   1.000  C
  C10      1.0000 0.19592  0.82108  0.42799  Biso   1.000  C
  H10      1.0000 0.85170  0.85377  0.70966  Biso   1.000  H
  H11      1.0000 0.79383  0.80272  0.78567  Biso   1.000  H
  H12      1.0000 0.77637  0.88722  0.78763  Biso   1.000  H
  H13      1.0000 0.34356  0.63672  0.67068  Biso   1.000  H
  C11      1.0000 0.27088  0.62277  0.80474  Biso   1.000  C
  O3       1.0000 0.45152  0.80512  0.90033  Biso   1.000  O
  C12      1.0000 0.31836  0.71452  0.94579  Biso   1.000  C
  C13      1.0000 0.19159  0.81389  0.30516  Biso   1.000  C
  C14      1.0000 0.10720  0.81090  0.47507  Biso   1.000  C
  H14      1.0000 0.23256  0.58251  0.77640  Biso   1.000  H
  C15      1.0000 0.26258  0.64909  0.91072  Biso   1.000  C
  C16      1.0000 0.47265  0.84467  0.00682  Biso   1.000  C
  H15      1.0000 0.30882  0.73462  0.01550  Biso   1.000  H
  C17      1.0000 0.28529  0.83078  0.26132  Biso   1.000  C
  C18      1.0000 0.09373  0.78633  0.24711  Biso   1.000  C
  C19      1.0000 0.01141  0.78850  0.41769  Biso   1.000  C
  C20      1.0000 0.10068  0.82157  0.60207  Biso   1.000  C
  H16      1.0000 0.22237  0.62572  0.95839  Biso   1.000  H
  H17      1.0000 0.40754  0.86173  0.02725  Biso   1.000  H
  H18      1.0000 0.50145  0.81079  0.06530  Biso   1.000  H
  C21      1.0000 0.54060  0.90602  0.00912  Biso   1.000  C
  C22      1.0000 0.34780  0.90041  0.27639  Biso   1.000  C
  H19      1.0000 0.26991  0.82392  0.17961  Biso   1.000  H
  H20      1.0000 0.33287  0.79221  0.28873  Biso   1.000  H
  H21      1.0000 0.08618  0.77668  0.16939  Biso   1.000  H
  C23      1.0000 0.01432  0.77488  0.30576  Biso   1.000  C
  H22      1.0000 0.95238  0.78360  0.45259  Biso   1.000  H
  H23      1.0000 0.02881  0.81809  0.61288  Biso   1.000  H
  H24      1.0000 0.13671  0.78142  0.64327  Biso   1.000  H
  C24      1.0000 0.14209  0.89000  0.65459  Biso   1.000  C
  O4       1.0000 0.47899  0.96470  0.97567  Biso   1.000  O
  H25      1.0000 0.59081  0.89850  0.95728  Biso   1.000  H
  H26      1.0000 0.57686  0.91338  0.08522  Biso   1.000  H
  C25      1.0000 0.45549  0.90771  0.31418  Biso   1.000  C
  C26      1.0000 0.29261  0.96077  0.25400  Biso   1.000  C
  H27      1.0000 0.95471  0.75549  0.26507  Biso   1.000  H
  C27      1.0000 0.21243  0.89251  0.75077  Biso   1.000  C
  C28      1.0000 0.10024  0.95838  0.61254  Biso   1.000  C
  C29      1.0000 0.51207  0.03688  0.01644  Biso   1.000  C
  C30      1.0000 0.48843  0.97908  0.32448  Biso   1.000  C
  H28      1.0000 0.49931  0.86810  0.33036  Biso   1.000  H
  O5       1.0000 0.18468  0.96208  0.21732  Biso   1.000  O
  C31      1.0000 0.33412  0.03470  0.26941  Biso   1.000  C
  H29      1.0000 0.23923  0.84941  0.78397  Biso   1.000  H
  C32      1.0000 0.24349  0.95761  0.79861  Biso   1.000  C
  O6       1.0000 0.03306  0.96017  0.51056  Biso   1.000  O
  C33      1.0000 0.12886  0.02370  0.65067  Biso   1.000  C
  H30      1.0000 0.56993  0.05061  0.97822  Biso   1.000  H
  H31      1.0000 0.53780  0.03253  0.09680  Biso   1.000  H
  C34      1.0000 0.44169  0.09529  0.00444  Biso   1.000  C
  H32      1.0000 0.55798  0.98431  0.35189  Biso   1.000  H
  C35      1.0000 0.43778  0.04380  0.30184  Biso   1.000  C
  C36      1.0000 0.15729  0.95151  0.09917  Biso   1.000  C
  C37      1.0000 0.28462  0.10640  0.25537  Biso   1.000  C
  H33      1.0000 0.29408  0.95941  0.86177  Biso   1.000  H
  C38      1.0000 0.19782  0.02217  0.75103  Biso   1.000  C
  C39      1.0000 0.93112  0.95598  0.52129  Biso   1.000  C
  C40      1.0000 0.09879  0.09512  0.60828  Biso   1.000  C
  O7       1.0000 0.43837  0.11920  0.89276  Biso   1.000  O
  H34      1.0000 0.37413  0.07932  0.01865  Biso   1.000  H
  H35      1.0000 0.46484  0.13408  0.05738  Biso   1.000  H
  H36      1.0000 0.47023  0.08891  0.30763  Biso   1.000  H
  H37      1.0000 0.18487  0.90591  0.07508  Biso   1.000  H
  H38      1.0000 0.18232  0.99112  0.05644  Biso   1.000  H
  C41      1.0000 0.03908  0.94988  0.08342  Biso   1.000  C
  C42      1.0000 0.19408  0.11457  0.31776  Biso   1.000  C
  H39      1.0000 0.26247  0.11479  0.17501  Biso   1.000  H
  H40      1.0000 0.33492  0.14350  0.28192  Biso   1.000  H
  H41      1.0000 0.21463  0.06598  0.78857  Biso   1.000  H
  H42      1.0000 0.91708  0.91441  0.56717  Biso   1.000  H
  C43      1.0000 0.87867  0.94683  0.39301  Biso   1.000  C
  H43      1.0000 0.90763  0.00000  0.55499  Biso   1.000  H
  C44      1.0000 0.09850  0.10853  0.49217  Biso   1.000  C
  H44      1.0000 0.02999  0.10460  0.62607  Biso   1.000  H
  H45      1.0000 0.14438  0.13032  0.65033  Biso   1.000  H
  C45      1.0000 0.38331  0.18251  0.86901  Biso   1.000  C
  H46      1.0000 0.01407  0.90008  0.07738  Biso   1.000  H
  H47      1.0000 0.01316  0.97320  0.14718  Biso   1.000  H
  C46      1.0000 0.00768  0.98780  0.98332  Biso   1.000  C
  C47      1.0000 0.17613  0.10128  0.43199  Biso   1.000  C
  C48      1.0000 0.11150  0.13462  0.24464  Biso   1.000  C
  H48      1.0000 0.92247  0.96688  0.34117  Biso   1.000  H
  H49      1.0000 0.86657  0.89572  0.37488  Biso   1.000  H
  C49      1.0000 0.79097  0.98251  0.38467  Biso   1.000  C
  C50      1.0000 0.02039  0.13642  0.40033  Biso   1.000  C
  C51      1.0000 0.32890  0.19907  0.95566  Biso   1.000  C
  C52      1.0000 0.37230  0.22642  0.76840  Biso   1.000  C
  H50      1.0000 0.93378  0.98981  0.96995  Biso   1.000  H
  H51      1.0000 0.03255  0.96339  0.92092  Biso   1.000  H
  H52      1.0000 0.03488  0.03639  0.98979  Biso   1.000  H
  O8       1.0000 0.28416  0.08232  0.49890  Biso   1.000  O
  C53      1.0000 0.02119  0.14557  0.28558  Biso   1.000  C
  H53      1.0000 0.11616  0.14078  0.16760  Biso   1.000  H
  H54      1.0000 0.75747  0.98071  0.30746  Biso   1.000  H
  H55      1.0000 0.74730  0.96061  0.43387  Biso   1.000  H
  H56      1.0000 0.80403  0.03231  0.40680  Biso   1.000  H
  H57      1.0000 0.95902  0.15031  0.42510  Biso   1.000  H
  C54      1.0000 0.25803  0.25622  0.94766  Biso   1.000  C
  H58      1.0000 0.33940  0.17162  0.02214  Biso   1.000  H
  O9       1.0000 0.43927  0.19640  0.70106  Biso   1.000  O
  C55      1.0000 0.30480  0.27938  0.76720  Biso   1.000  C
  C56      1.0000 0.33567  0.14437  0.54682  Biso   1.000  C
  H59      1.0000 0.96191  0.15892  0.23783  Biso   1.000  H
  C57      1.0000 0.25153  0.30079  0.85147  Biso   1.000  C
  H60      1.0000 0.21674  0.26429  0.00435  Biso   1.000  H
  C58      1.0000 0.41620  0.13419  0.63901  Biso   1.000  C
  H61      1.0000 0.29188  0.30558  0.69970  Biso   1.000  H
  H62      1.0000 0.28481  0.17641  0.57261  Biso   1.000  H
  H63      1.0000 0.36441  0.16971  0.48673  Biso   1.000  H
  H64      1.0000 0.21227  0.34318  0.84552  Biso   1.000  H
  H65      1.0000 0.38457  0.10281  0.69127  Biso   1.000  H
  C59      1.0000 0.50077  0.08820  0.60581  Biso   1.000  C
  H66      1.0000 0.46588  0.04822  0.56334  Biso   1.000  H
  H67      1.0000 0.53063  0.11730  0.55040  Biso   1.000  H
  C60      1.0000 0.58800  0.05503  0.67408  Biso   1.000  C
  H68      1.0000 0.56663  0.03983  0.74558  Biso   1.000  H
  H69      1.0000 0.60597  0.01128  0.63526  Biso   1.000  H
  C61      1.0000 0.67232  0.09518  0.69757  Biso   1.000  C
  H70      1.0000 0.65350  0.13658  0.74124  Biso   1.000  H
  H71      1.0000 0.68728  0.11441  0.62548  Biso   1.000  H
  C62      1.0000 0.76739  0.06848  0.75597  Biso   1.000  C
  H72      1.0000 0.81992  0.10488  0.75452  Biso   1.000  H
  H73      1.0000 0.78691  0.02512  0.71860  Biso   1.000  H
  H74      1.0000 0.75946  0.05742  0.83309  Biso   1.000  H
  C63      1.0000 0.58383  0.63421  0.36100  Biso   1.000  C
  O10      1.0000 0.56067  0.69638  0.29886  Biso   1.000  O
  C64      1.0000 0.66428  0.64440  0.45319  Biso   1.000  C
  H75      1.0000 0.61538  0.60278  0.30874  Biso   1.000  H
  C65      1.0000 0.49918  0.58818  0.39420  Biso   1.000  C
  C66      1.0000 0.62773  0.72640  0.23162  Biso   1.000  C
  O11      1.0000 0.71579  0.58229  0.50111  Biso   1.000  O
  H76      1.0000 0.71522  0.67638  0.42740  Biso   1.000  H
  H77      1.0000 0.63561  0.66968  0.51328  Biso   1.000  H
  H78      1.0000 0.53407  0.54819  0.43668  Biso   1.000  H
  H79      1.0000 0.46940  0.61732  0.44961  Biso   1.000  H
  C67      1.0000 0.41203  0.55500  0.32593  Biso   1.000  C
  C68      1.0000 0.61671  0.68248  0.13100  Biso   1.000  C
  C69      1.0000 0.69523  0.77941  0.23281  Biso   1.000  C
  C70      1.0000 0.82390  0.60131  0.56802  Biso   1.000  C
  H80      1.0000 0.43340  0.53980  0.25443  Biso   1.000  H
  H81      1.0000 0.39397  0.51130  0.36466  Biso   1.000  H
  C71      1.0000 0.32771  0.59521  0.30244  Biso   1.000  C
  O12      1.0000 0.56157  0.61918  0.10717  Biso   1.000  O
  C72      1.0000 0.67112  0.69910  0.04426  Biso   1.000  C
  C73      1.0000 0.74849  0.80082  0.14854  Biso   1.000  C
  H82      1.0000 0.70807  0.80561  0.30031  Biso   1.000  H
  C74      1.0000 0.80586  0.61460  0.68217  Biso   1.000  C
  C75      1.0000 0.90152  0.60850  0.50784  Biso   1.000  C
  H83      1.0000 0.34652  0.63661  0.25877  Biso   1.000  H
  H84      1.0000 0.31267  0.61438  0.37454  Biso   1.000  H
  C76      1.0000 0.23262  0.56851  0.24396  Biso   1.000  C
  C77      1.0000 0.55826  0.59531  0.99557  Biso   1.000  C
  C78      1.0000 0.74198  0.75620  0.05226  Biso   1.000  C
  H85      1.0000 0.66055  0.67159  0.97787  Biso   1.000  H
  H86      1.0000 0.78768  0.84320  0.15450  Biso   1.000  H
  C79      1.0000 0.71540  0.60637  0.74456  Biso   1.000  C
  C80      1.0000 0.88852  0.63460  0.75537  Biso   1.000  C
  C81      1.0000 0.90124  0.59510  0.39173  Biso   1.000  C
  C82      1.0000 0.97956  0.63639  0.59968  Biso   1.000  C
  H87      1.0000 0.18011  0.60490  0.24549  Biso   1.000  H
  H88      1.0000 0.21311  0.52509  0.28141  Biso   1.000  H
  H89      1.0000 0.24049  0.55740  0.16692  Biso   1.000  H
  C83      1.0000 0.48796  0.53691  0.98357  Biso   1.000  C
  H90      1.0000 0.62590  0.57930  0.98136  Biso   1.000  H
  H91      1.0000 0.53518  0.63411  0.94263  Biso   1.000  H
  H92      1.0000 0.78329  0.76431  0.99566  Biso   1.000  H
  C84      1.0000 0.66591  0.53468  0.73060  Biso   1.000  C
  H93      1.0000 0.73748  0.61482  0.82500  Biso   1.000  H
  H94      1.0000 0.66511  0.64348  0.71809  Biso   1.000  H
  C85      1.0000 0.97884  0.64560  0.71443  Biso   1.000  C
  H95      1.0000 0.88379  0.64081  0.83241  Biso   1.000  H
  C86      1.0000 0.87109  0.52373  0.34934  Biso   1.000  C
  H96      1.0000 0.97003  0.60458  0.37394  Biso   1.000  H
  H97      1.0000 0.85557  0.63029  0.34968  Biso   1.000  H
  H98      1.0000 0.04101  0.65029  0.57491  Biso   1.000  H
  O13      1.0000 0.52103  0.46472  0.02426  Biso   1.000  O
  H99      1.0000 0.43010  0.55059  0.02179  Biso   1.000  H
  H100     1.0000 0.46215  0.53250  0.90322  Biso   1.000  H
  C87      1.0000 0.70742  0.46080  0.74601  Biso   1.000  C
  C88      1.0000 0.56217  0.54378  0.69817  Biso   1.000  C
  H101     1.0000 0.03811  0.65889  0.76218  Biso   1.000  H
  C89      1.0000 0.89979  0.45840  0.38747  Biso   1.000  C
  C90      1.0000 0.80221  0.52220  0.24898  Biso   1.000  C
  C91      1.0000 0.45935  0.40599  0.99089  Biso   1.000  C
  C92      1.0000 0.65222  0.40038  0.72362  Biso   1.000  C
  O14      1.0000 0.81527  0.46211  0.78270  Biso   1.000  O
  C93      1.0000 0.51160  0.47911  0.67553  Biso   1.000  C
  H102     1.0000 0.52979  0.58889  0.69238  Biso   1.000  H
  C94      1.0000 0.85794  0.38998  0.34542  Biso   1.000  C
  O15      1.0000 0.96688  0.46020  0.48937  Biso   1.000  O
  C95      1.0000 0.75653  0.45759  0.20140  Biso   1.000  C
  H103     1.0000 0.78539  0.56600  0.21136  Biso   1.000  H
  C96      1.0000 0.52737  0.34470  0.99319  Biso   1.000  C
  H104     1.0000 0.40922  0.39847  0.04273  Biso   1.000  H
  H105     1.0000 0.42317  0.41340  0.91479  Biso   1.000  H
  C97      1.0000 0.71467  0.33081  0.73869  Biso   1.000  C
  C98      1.0000 0.54454  0.40768  0.68583  Biso   1.000  C
  C99      1.0000 0.84273  0.45148  0.90076  Biso   1.000  C
  H106     1.0000 0.44197  0.48428  0.64812  Biso   1.000  H
  C100     1.0000 0.89933  0.32160  0.39786  Biso   1.000  C
  C101     1.0000 0.78759  0.39248  0.24924  Biso   1.000  C
  C102     1.0000 0.06891  0.45601  0.47873  Biso   1.000  C
  H107     1.0000 0.70587  0.45938  0.13824  Biso   1.000  H
  O16      1.0000 0.54851  0.30509  0.09968  Biso   1.000  O
  H108     1.0000 0.59249  0.36170  0.97276  Biso   1.000  H
  H109     1.0000 0.49857  0.31081  0.93471  Biso   1.000  H
  C103     1.0000 0.80843  0.31392  0.69476  Biso   1.000  C
  H110     1.0000 0.73012  0.32389  0.82040  Biso   1.000  H
  H111     1.0000 0.66708  0.29218  0.71128  Biso   1.000  H
  H112     1.0000 0.50071  0.36807  0.66957  Biso   1.000  H
  H113     1.0000 0.81508  0.40588  0.92493  Biso   1.000  H
  H114     1.0000 0.81771  0.49109  0.94358  Biso   1.000  H
  C104     1.0000 0.96087  0.44990  0.91659  Biso   1.000  C
  C105     1.0000 0.89281  0.31092  0.52486  Biso   1.000  C
  H115     1.0000 0.97122  0.31811  0.38713  Biso   1.000  H
  H116     1.0000 0.86330  0.28139  0.35666  Biso   1.000  H
  H117     1.0000 0.76080  0.34939  0.21604  Biso   1.000  H
  H118     1.0000 0.09240  0.50003  0.44502  Biso   1.000  H
  H119     1.0000 0.08286  0.41438  0.43276  Biso   1.000  H
  C106     1.0000 0.12128  0.44680  0.60700  Biso   1.000  C
  C107     1.0000 0.61660  0.24892  0.11483  Biso   1.000  C
  C108     1.0000 0.80411  0.32111  0.57202  Biso   1.000  C
  C109     1.0000 0.90629  0.28630  0.75290  Biso   1.000  C
  H120     1.0000 0.98588  0.40011  0.92264  Biso   1.000  H
  H121     1.0000 0.98679  0.47322  0.85284  Biso   1.000  H
  C110     1.0000 0.99234  0.48782  0.01670  Biso   1.000  C
  C111     1.0000 0.98861  0.28848  0.58232  Biso   1.000  C
  H122     1.0000 0.07747  0.46690  0.65876  Biso   1.000  H
  H123     1.0000 0.13338  0.39570  0.62513  Biso   1.000  H
  C112     1.0000 0.20897  0.48248  0.61526  Biso   1.000  C
  C113     1.0000 0.61089  0.21760  0.21953  Biso   1.000  C
  C114     1.0000 0.68159  0.21449  0.05422  Biso   1.000  C
  O17      1.0000 0.71856  0.33528  0.50869  Biso   1.000  O
  H124     1.0000 0.91377  0.27671  0.83062  Biso   1.000  H
  C115     1.0000 0.98570  0.27491  0.69417  Biso   1.000  C
  H125     1.0000 0.96740  0.46342  0.07909  Biso   1.000  H
  H126     1.0000 0.96514  0.53642  0.01023  Biso   1.000  H
  H127     1.0000 0.06623  0.48978  0.02997  Biso   1.000  H
  H128     1.0000 0.04757  0.28357  0.54742  Biso   1.000  H
  H129     1.0000 0.24247  0.48069  0.69247  Biso   1.000  H
  H130     1.0000 0.19600  0.53228  0.59321  Biso   1.000  H
  H131     1.0000 0.25272  0.46058  0.56606  Biso   1.000  H
  O18      1.0000 0.54900  0.23089  0.29699  Biso   1.000  O
  C116     1.0000 0.66472  0.15582  0.25852  Biso   1.000  C
  C117     1.0000 0.73737  0.14911  0.08929  Biso   1.000  C
  H132     1.0000 0.69120  0.23460  0.98451  Biso   1.000  H
  C118     1.0000 0.66652  0.27431  0.46017  Biso   1.000  C
  H133     1.0000 0.04532  0.25552  0.73494  Biso   1.000  H
  C119     1.0000 0.58014  0.29491  0.36321  Biso   1.000  C
  H134     1.0000 0.65639  0.13669  0.32934  Biso   1.000  H
  C120     1.0000 0.72907  0.12280  0.19527  Biso   1.000  C
  H135     1.0000 0.77758  0.12569  0.04162  Biso   1.000  H
  H136     1.0000 0.63683  0.24800  0.51873  Biso   1.000  H
  H137     1.0000 0.71513  0.24228  0.43038  Biso   1.000  H
  C121     1.0000 0.48444  0.31229  0.40263  Biso   1.000  C
  H138     1.0000 0.60197  0.33391  0.31563  Biso   1.000  H
  H139     1.0000 0.76739  0.08248  0.22362  Biso   1.000  H
  C122     1.0000 0.39977  0.32961  0.30780  Biso   1.000  C
  H140     1.0000 0.49468  0.35380  0.45353  Biso   1.000  H
  H141     1.0000 0.46342  0.27132  0.44570  Biso   1.000  H
  C123     1.0000 0.29582  0.33942  0.35130  Biso   1.000  C
  H142     1.0000 0.39438  0.29049  0.25230  Biso   1.000  H
  H143     1.0000 0.41689  0.37390  0.27009  Biso   1.000  H
  C124     1.0000 0.21127  0.34639  0.25928  Biso   1.000  C
  H144     1.0000 0.28333  0.29779  0.39803  Biso   1.000  H
  H145     1.0000 0.29852  0.38262  0.39871  Biso   1.000  H
  H146     1.0000 0.14831  0.35380  0.29027  Biso   1.000  H
  H147     1.0000 0.20620  0.30270  0.21434  Biso   1.000  H
  H148     1.0000 0.22358  0.38720  0.21238  Biso   1.000  H
