data_image0
_cell_length_a       20.979
_cell_length_b       12.722
_cell_length_c       17.618
_cell_angle_alpha    90
_cell_angle_beta     98.88
_cell_angle_gamma    90

_symmetry_space_group_name_H-M    "P 1"
_symmetry_int_tables_number       1

loop_
  _symmetry_equiv_pos_as_xyz
  'x, y, z'

loop_
  _atom_site_label
  _atom_site_occupancy
  _atom_site_fract_x
  _atom_site_fract_y
  _atom_site_fract_z
  _atom_site_thermal_displace_type
  _atom_site_B_iso_or_equiv
  _atom_site_type_symbol
  C1       1.0000 0.59090  0.35710  0.44580  Biso   1.000  C
  C2       1.0000 0.60379  0.42281  0.37761  Biso   1.000  C
  H1       1.0000 0.56380  0.29767  0.42759  Biso   1.000  H
  H2       1.0000 0.56810  0.39931  0.47878  Biso   1.000  H
  C3       1.0000 0.65408  0.31740  0.49159  Biso   1.000  C
  C4       1.0000 0.62762  0.37698  0.31689  Biso   1.000  C
  C5       1.0000 0.59802  0.53191  0.37870  Biso   1.000  C
  C6       1.0000 0.67352  0.21530  0.48492  Biso   1.000  C
  C7       1.0000 0.69642  0.38681  0.53542  Biso   1.000  C
  O1       1.0000 0.62891  0.26804  0.31252  Biso   1.000  O
  C8       1.0000 0.65100  0.43704  0.26047  Biso   1.000  C
  C9       1.0000 0.61612  0.59212  0.32051  Biso   1.000  C
  H3       1.0000 0.58170  0.56446  0.41897  Biso   1.000  H
  H4       1.0000 0.64569  0.16798  0.45632  Biso   1.000  H
  C10      1.0000 0.73390  0.18110  0.52008  Biso   1.000  C
  O2       1.0000 0.67656  0.48931  0.54329  Biso   1.000  O
  C11      1.0000 0.75832  0.35702  0.56731  Biso   1.000  C
  C12      1.0000 0.57581  0.22339  0.26248  Biso   1.000  C
  C13      1.0000 0.68860  0.38650  0.20343  Biso   1.000  C
  C14      1.0000 0.64478  0.54504  0.26357  Biso   1.000  C
  H5       1.0000 0.60908  0.66428  0.31947  Biso   1.000  H
  H6       1.0000 0.74579  0.11099  0.51733  Biso   1.000  H
  C15      1.0000 0.77609  0.25358  0.55949  Biso   1.000  C
  C16      1.0000 0.64578  0.50684  0.60850  Biso   1.000  C
  C17      1.0000 0.80762  0.43759  0.60229  Biso   1.000  C
  C18      1.0000 0.56272  0.11728  0.28472  Biso   1.000  C
  H7       1.0000 0.58530  0.22324  0.21032  Biso   1.000  H
  H8       1.0000 0.53770  0.26639  0.26340  Biso   1.000  H
  C19      1.0000 0.75380  0.34782  0.24341  Biso   1.000  C
  H9       1.0000 0.69501  0.43735  0.16419  Biso   1.000  H
  H10      1.0000 0.66430  0.32794  0.17849  Biso   1.000  H
  H11      1.0000 0.66010  0.58654  0.22692  Biso   1.000  H
  H12      1.0000 0.81728  0.23204  0.58121  Biso   1.000  H
  H13      1.0000 0.67642  0.49709  0.65509  Biso   1.000  H
  H14      1.0000 0.61078  0.45693  0.60878  Biso   1.000  H
  C20      1.0000 0.61962  0.61759  0.60522  Biso   1.000  C
  C21      1.0000 0.82790  0.50668  0.54031  Biso   1.000  C
  H15      1.0000 0.78908  0.48082  0.63877  Biso   1.000  H
  H16      1.0000 0.84512  0.40198  0.62981  Biso   1.000  H
  O3       1.0000 0.55491  0.09802  0.35279  Biso   1.000  O
  H17      1.0000 0.52408  0.09393  0.25140  Biso   1.000  H
  H18      1.0000 0.59792  0.07349  0.27351  Biso   1.000  H
  C22      1.0000 0.80192  0.41998  0.27190  Biso   1.000  C
  C23      1.0000 0.76672  0.24218  0.25662  Biso   1.000  C
  H19      1.0000 0.65440  0.66570  0.59959  Biso   1.000  H
  H20      1.0000 0.58731  0.62443  0.55972  Biso   1.000  H
  C24      1.0000 0.59092  0.64974  0.67140  Biso   1.000  C
  C25      1.0000 0.86541  0.46699  0.48849  Biso   1.000  C
  C26      1.0000 0.80591  0.60934  0.52991  Biso   1.000  C
  C27      1.0000 0.54078  0.00000  0.37910  Biso   1.000  C
  O4       1.0000 0.79121  0.52602  0.25622  Biso   1.000  O
  C28      1.0000 0.85848  0.38862  0.31809  Biso   1.000  C
  H21      1.0000 0.73591  0.19258  0.23738  Biso   1.000  H
  C29      1.0000 0.82432  0.20932  0.29758  Biso   1.000  C
  H22      1.0000 0.57651  0.72135  0.66503  Biso   1.000  H
  H23      1.0000 0.62229  0.64408  0.71702  Biso   1.000  H
  H24      1.0000 0.55478  0.60509  0.67611  Biso   1.000  H
  C30      1.0000 0.87591  0.52130  0.42311  Biso   1.000  C
  O5       1.0000 0.89061  0.36582  0.50084  Biso   1.000  O
  C31      1.0000 0.82009  0.66806  0.46941  Biso   1.000  C
  H25      1.0000 0.78139  0.63850  0.56432  Biso   1.000  H
  C32      1.0000 0.47979  0.97846  0.39329  Biso   1.000  C
  C33      1.0000 0.58949  0.92855  0.40042  Biso   1.000  C
  C34      1.0000 0.81332  0.55895  0.18700  Biso   1.000  C
  C35      1.0000 0.90461  0.46903  0.35882  Biso   1.000  C
  C36      1.0000 0.86888  0.28211  0.32918  Biso   1.000  C
  H26      1.0000 0.83290  0.13787  0.30390  Biso   1.000  H
  C37      1.0000 0.85329  0.62396  0.41558  Biso   1.000  C
  C38      1.0000 0.95561  0.36857  0.54002  Biso   1.000  C
  H27      1.0000 0.80731  0.73801  0.46459  Biso   1.000  H
  H28      1.0000 0.44679  0.02680  0.37991  Biso   1.000  H
  C39      1.0000 0.46769  0.88642  0.42679  Biso   1.000  C
  O6       1.0000 0.64740  0.95237  0.38491  Biso   1.000  O
  C40      1.0000 0.57530  0.83619  0.43431  Biso   1.000  C
  H29      1.0000 0.86002  0.55628  0.19429  Biso   1.000  H
  H30      1.0000 0.79701  0.51100  0.14580  Biso   1.000  H
  C41      1.0000 0.79222  0.66342  0.16620  Biso   1.000  C
  H31      1.0000 0.91379  0.52185  0.32229  Biso   1.000  H
  H32      1.0000 0.94478  0.43492  0.37968  Biso   1.000  H
  H33      1.0000 0.90698  0.25924  0.35871  Biso   1.000  H
  H34      1.0000 0.86061  0.66365  0.37347  Biso   1.000  H
  C42      1.0000 0.97658  0.25924  0.56208  Biso   1.000  C
  H35      1.0000 0.95808  0.41212  0.58557  Biso   1.000  H
  H36      1.0000 0.98371  0.39844  0.50681  Biso   1.000  H
  H37      1.0000 0.42609  0.87203  0.43569  Biso   1.000  H
  C43      1.0000 0.51450  0.81552  0.44741  Biso   1.000  C
  C44      1.0000 0.69711  0.91314  0.41828  Biso   1.000  C
  H38      1.0000 0.60779  0.78714  0.44850  Biso   1.000  H
  H39      1.0000 0.81979  0.68849  0.13070  Biso   1.000  H
  H40      1.0000 0.74931  0.65666  0.13673  Biso   1.000  H
  C45      1.0000 0.78858  0.74564  0.21899  Biso   1.000  C
  O7       1.0000 0.94953  0.22669  0.62740  Biso   1.000  O
  H41      1.0000 0.96278  0.21184  0.51962  Biso   1.000  H
  H42      1.0000 0.02329  0.25648  0.57380  Biso   1.000  H
  H43      1.0000 0.50539  0.75271  0.47051  Biso   1.000  H
  H44      1.0000 0.69562  0.83792  0.40938  Biso   1.000  H
  H45      1.0000 0.69909  0.92454  0.47298  Biso   1.000  H
  C46      1.0000 0.75889  0.95763  0.39301  Biso   1.000  C
  H46      1.0000 0.77191  0.80750  0.19188  Biso   1.000  H
  H47      1.0000 0.83101  0.75994  0.24628  Biso   1.000  H
  H48      1.0000 0.76070  0.72520  0.25473  Biso   1.000  H
  C47      1.0000 0.97870  0.13622  0.66118  Biso   1.000  C
  H49      1.0000 0.75411  0.03191  0.38111  Biso   1.000  H
  O8       1.0000 0.80820  0.94113  0.45752  Biso   1.000  O
  H50      1.0000 0.76891  0.92077  0.34820  Biso   1.000  H
  C48      1.0000 0.96469  0.03859  0.62849  Biso   1.000  C
  C49      1.0000 0.02009  0.14581  0.72931  Biso   1.000  C
  C50      1.0000 0.87062  0.96471  0.44408  Biso   1.000  C
  O9       1.0000 0.92171  0.03718  0.56133  Biso   1.000  O
  C51      1.0000 0.99479  0.95040  0.66399  Biso   1.000  C
  C52      1.0000 0.04902  0.05659  0.76459  Biso   1.000  C
  H51      1.0000 0.02870  0.21160  0.75160  Biso   1.000  H
  H52      1.0000 0.87301  0.03773  0.42908  Biso   1.000  H
  H53      1.0000 0.88158  0.92116  0.40289  Biso   1.000  H
  C53      1.0000 0.91678  0.94451  0.51669  Biso   1.000  C
  H54      1.0000 0.98690  0.88445  0.64170  Biso   1.000  H
  C54      1.0000 0.03639  0.96046  0.73190  Biso   1.000  C
  H55      1.0000 0.07708  0.06249  0.81077  Biso   1.000  H
  H56      1.0000 0.90129  0.88705  0.54502  Biso   1.000  H
  H57      1.0000 0.95881  0.92540  0.50440  Biso   1.000  H
  H58      1.0000 0.05611  0.90104  0.75568  Biso   1.000  H
  C55      1.0000 0.40909  0.64290  0.55421  Biso   1.000  C
  C56      1.0000 0.34590  0.68260  0.50842  Biso   1.000  C
  C57      1.0000 0.39619  0.57719  0.62240  Biso   1.000  C
  H59      1.0000 0.43619  0.70233  0.57242  Biso   1.000  H
  H60      1.0000 0.43188  0.60069  0.52117  Biso   1.000  H
  C58      1.0000 0.30361  0.61319  0.46459  Biso   1.000  C
  C59      1.0000 0.32651  0.78470  0.51509  Biso   1.000  C
  C60      1.0000 0.40201  0.46809  0.62131  Biso   1.000  C
  C61      1.0000 0.37241  0.62302  0.68312  Biso   1.000  C
  O10      1.0000 0.32342  0.51069  0.45672  Biso   1.000  O
  C62      1.0000 0.24171  0.64306  0.43270  Biso   1.000  C
  H61      1.0000 0.35429  0.83202  0.54369  Biso   1.000  H
  C63      1.0000 0.26609  0.81890  0.47993  Biso   1.000  C
  C64      1.0000 0.38391  0.40788  0.67950  Biso   1.000  C
  H62      1.0000 0.41828  0.43562  0.58098  Biso   1.000  H
  O11      1.0000 0.37112  0.73204  0.68749  Biso   1.000  O
  C65      1.0000 0.34902  0.56304  0.73948  Biso   1.000  C
  C66      1.0000 0.35420  0.49324  0.39151  Biso   1.000  C
  C67      1.0000 0.22389  0.74642  0.44052  Biso   1.000  C
  C68      1.0000 0.19241  0.56241  0.39772  Biso   1.000  C
  H63      1.0000 0.25419  0.88901  0.48268  Biso   1.000  H
  C69      1.0000 0.35520  0.45504  0.73638  Biso   1.000  C
  H64      1.0000 0.39090  0.33572  0.68048  Biso   1.000  H
  C70      1.0000 0.42422  0.77661  0.73753  Biso   1.000  C
  C71      1.0000 0.31138  0.61350  0.79658  Biso   1.000  C
  C72      1.0000 0.38041  0.38241  0.39479  Biso   1.000  C
  H65      1.0000 0.32361  0.50291  0.34492  Biso   1.000  H
  H66      1.0000 0.38920  0.54315  0.39123  Biso   1.000  H
  H67      1.0000 0.18271  0.76804  0.41880  Biso   1.000  H
  C73      1.0000 0.17209  0.49332  0.45970  Biso   1.000  C
  H68      1.0000 0.21089  0.51918  0.36118  Biso   1.000  H
  H69      1.0000 0.15491  0.59802  0.37020  Biso   1.000  H
  H70      1.0000 0.33989  0.41354  0.77309  Biso   1.000  H
  H71      1.0000 0.41468  0.77684  0.78969  Biso   1.000  H
  H72      1.0000 0.46229  0.73361  0.73661  Biso   1.000  H
  C74      1.0000 0.43731  0.88272  0.71529  Biso   1.000  C
  C75      1.0000 0.24618  0.65226  0.75660  Biso   1.000  C
  H73      1.0000 0.30502  0.56273  0.83582  Biso   1.000  H
  H74      1.0000 0.33568  0.67214  0.82152  Biso   1.000  H
  C76      1.0000 0.40911  0.35034  0.32861  Biso   1.000  C
  H75      1.0000 0.34558  0.33430  0.40042  Biso   1.000  H
  H76      1.0000 0.41272  0.37565  0.44029  Biso   1.000  H
  C77      1.0000 0.13462  0.53301  0.51152  Biso   1.000  C
  C78      1.0000 0.19412  0.39074  0.47010  Biso   1.000  C
  O12      1.0000 0.44512  0.90206  0.64722  Biso   1.000  O
  H77      1.0000 0.47590  0.90615  0.74861  Biso   1.000  H
  H78      1.0000 0.40211  0.92651  0.72650  Biso   1.000  H
  C79      1.0000 0.19811  0.58002  0.72811  Biso   1.000  C
  C80      1.0000 0.23332  0.75782  0.74339  Biso   1.000  C
  H79      1.0000 0.42352  0.27873  0.33498  Biso   1.000  H
  H80      1.0000 0.37769  0.35592  0.28299  Biso   1.000  H
  H81      1.0000 0.44520  0.39491  0.32390  Biso   1.000  H
  O13      1.0000 0.10937  0.63426  0.49917  Biso   1.000  O
  C81      1.0000 0.12412  0.47870  0.57690  Biso   1.000  C
  H82      1.0000 0.21860  0.36150  0.43569  Biso   1.000  H
  C82      1.0000 0.17989  0.33202  0.53060  Biso   1.000  C
  C83      1.0000 0.45920  0.00000  0.62091  Biso   1.000  C
  C84      1.0000 0.14150  0.61138  0.68192  Biso   1.000  C
  O14      1.0000 0.20882  0.47398  0.74379  Biso   1.000  O
  H83      1.0000 0.26412  0.80742  0.76257  Biso   1.000  H
  C85      1.0000 0.17571  0.79076  0.70243  Biso   1.000  C
  C86      1.0000 0.04438  0.63143  0.45999  Biso   1.000  C
  C87      1.0000 0.14669  0.37612  0.58443  Biso   1.000  C
  C88      1.0000 0.09542  0.53105  0.64119  Biso   1.000  C
  H84      1.0000 0.19272  0.26199  0.53542  Biso   1.000  H
  C89      1.0000 0.52019  0.02162  0.60672  Biso   1.000  C
  C90      1.0000 0.41049  0.07153  0.59959  Biso   1.000  C
  C91      1.0000 0.13109  0.71789  0.67077  Biso   1.000  C
  C92      1.0000 0.18671  0.44113  0.81301  Biso   1.000  C
  H85      1.0000 0.16708  0.86213  0.69611  Biso   1.000  H
  C93      1.0000 0.02340  0.74084  0.43787  Biso   1.000  C
  H86      1.0000 0.04190  0.58788  0.41438  Biso   1.000  H
  H87      1.0000 0.01632  0.60163  0.49320  Biso   1.000  H
  H88      1.0000 0.13941  0.33643  0.62648  Biso   1.000  H
  H89      1.0000 0.08619  0.47823  0.67772  Biso   1.000  H
  H90      1.0000 0.05519  0.56508  0.62027  Biso   1.000  H
  H91      1.0000 0.55319  0.97320  0.62010  Biso   1.000  H
  C94      1.0000 0.53229  0.11358  0.57322  Biso   1.000  C
  O15      1.0000 0.35258  0.04771  0.61510  Biso   1.000  O
  C95      1.0000 0.42469  0.16381  0.56570  Biso   1.000  C
  H92      1.0000 0.09300  0.74084  0.64130  Biso   1.000  H
  H93      1.0000 0.14001  0.44372  0.80572  Biso   1.000  H
  H94      1.0000 0.20302  0.48900  0.85421  Biso   1.000  H
  C96      1.0000 0.20781  0.33658  0.83381  Biso   1.000  C
  O16      1.0000 0.05050  0.77331  0.37261  Biso   1.000  O
  H95      1.0000 0.03720  0.78824  0.48039  Biso   1.000  H
  H96      1.0000 0.97670  0.74352  0.42621  Biso   1.000  H
  H97      1.0000 0.57389  0.12797  0.56432  Biso   1.000  H
  C97      1.0000 0.48548  0.18448  0.55260  Biso   1.000  C
  C98      1.0000 0.30293  0.08694  0.58173  Biso   1.000  C
  H98      1.0000 0.39220  0.21294  0.55151  Biso   1.000  H
  H99      1.0000 0.18019  0.31151  0.86931  Biso   1.000  H
  H100     1.0000 0.25072  0.34342  0.86328  Biso   1.000  H
  C99      1.0000 0.21140  0.25444  0.78102  Biso   1.000  C
  C100     1.0000 0.02128  0.86386  0.33878  Biso   1.000  C
  H101     1.0000 0.49459  0.24729  0.52950  Biso   1.000  H
  H102     1.0000 0.30441  0.16208  0.59057  Biso   1.000  H
  H103     1.0000 0.30088  0.07554  0.52698  Biso   1.000  H
  C101     1.0000 0.24109  0.04237  0.60700  Biso   1.000  C
  H104     1.0000 0.22812  0.19250  0.80807  Biso   1.000  H
  H105     1.0000 0.16902  0.24014  0.75373  Biso   1.000  H
  H106     1.0000 0.23928  0.27480  0.74528  Biso   1.000  H
  C102     1.0000 0.03529  0.96141  0.37152  Biso   1.000  C
  C103     1.0000 0.97989  0.85419  0.27070  Biso   1.000  C
  H107     1.0000 0.24592  0.96817  0.61890  Biso   1.000  H
  O17      1.0000 0.19183  0.05887  0.54249  Biso   1.000  O
  H108     1.0000 0.23112  0.07931  0.65181  Biso   1.000  H
  O18      1.0000 0.07827  0.96282  0.43868  Biso   1.000  O
  C104     1.0000 0.00519  0.04960  0.33602  Biso   1.000  C
  C105     1.0000 0.95101  0.94341  0.23542  Biso   1.000  C
  H109     1.0000 0.97128  0.78840  0.24841  Biso   1.000  H
  C106     1.0000 0.12940  0.03529  0.55587  Biso   1.000  C
  C107     1.0000 0.08320  0.05549  0.48332  Biso   1.000  C
  C108     1.0000 0.96359  0.03962  0.26811  Biso   1.000  C
  H110     1.0000 0.01308  0.11563  0.35831  Biso   1.000  H
  H111     1.0000 0.92290  0.93751  0.18918  Biso   1.000  H
  H112     1.0000 0.12702  0.96235  0.57093  Biso   1.000  H
  H113     1.0000 0.11840  0.07892  0.59712  Biso   1.000  H
  H114     1.0000 0.09869  0.11303  0.45499  Biso   1.000  H
  H115     1.0000 0.04118  0.07460  0.49561  Biso   1.000  H
  H116     1.0000 0.94391  0.09904  0.24427  Biso   1.000  H
  C109     1.0000 0.56271  0.38272  0.78469  Biso   1.000  C
  C110     1.0000 0.57580  0.27661  0.76252  Biso   1.000  C
  O19      1.0000 0.55491  0.40198  0.85283  Biso   1.000  O
  H117     1.0000 0.52412  0.40615  0.75137  Biso   1.000  H
  H118     1.0000 0.59791  0.42651  0.77349  Biso   1.000  H
  O20      1.0000 0.62891  0.23204  0.81255  Biso   1.000  O
  H119     1.0000 0.58529  0.27684  0.71030  Biso   1.000  H
  H120     1.0000 0.53768  0.23361  0.76338  Biso   1.000  H
  C111     1.0000 0.54081  0.50000  0.87908  Biso   1.000  C
  C112     1.0000 0.62761  0.12302  0.81692  Biso   1.000  C
  C113     1.0000 0.47979  0.52162  0.89333  Biso   1.000  C
  C114     1.0000 0.58948  0.57153  0.90039  Biso   1.000  C
  C115     1.0000 0.65100  0.06304  0.76051  Biso   1.000  C
  C116     1.0000 0.60378  0.07719  0.87759  Biso   1.000  C
  H121     1.0000 0.44678  0.47320  0.87988  Biso   1.000  H
  C117     1.0000 0.46769  0.61358  0.92682  Biso   1.000  C
  O21      1.0000 0.64739  0.54771  0.88488  Biso   1.000  O
  C118     1.0000 0.57528  0.66381  0.93429  Biso   1.000  C
  C119     1.0000 0.68859  0.11350  0.70340  Biso   1.000  C
  C120     1.0000 0.64482  0.95504  0.76361  Biso   1.000  C
  C121     1.0000 0.59088  0.14290  0.94578  Biso   1.000  C
  C122     1.0000 0.59801  0.96817  0.87868  Biso   1.000  C
  H122     1.0000 0.42608  0.62805  0.93572  Biso   1.000  H
  C123     1.0000 0.51449  0.68448  0.94739  Biso   1.000  C
  C124     1.0000 0.69710  0.58694  0.91832  Biso   1.000  C
  H123     1.0000 0.60777  0.71294  0.94848  Biso   1.000  H
  C125     1.0000 0.75379  0.15218  0.74339  Biso   1.000  C
  H124     1.0000 0.69500  0.06273  0.66422  Biso   1.000  H
  H125     1.0000 0.66430  0.17214  0.67853  Biso   1.000  H
  H126     1.0000 0.66008  0.91354  0.72690  Biso   1.000  H
  C126     1.0000 0.61611  0.90795  0.82048  Biso   1.000  C
  H127     1.0000 0.56379  0.20233  0.92762  Biso   1.000  H
  H128     1.0000 0.56809  0.10069  0.97881  Biso   1.000  H
  C127     1.0000 0.65412  0.18260  0.99162  Biso   1.000  C
  H129     1.0000 0.58169  0.93562  0.91901  Biso   1.000  H
  H130     1.0000 0.50538  0.74729  0.97048  Biso   1.000  H
  H131     1.0000 0.69561  0.66216  0.90941  Biso   1.000  H
  H132     1.0000 0.69909  0.57554  0.97301  Biso   1.000  H
  C128     1.0000 0.75888  0.54245  0.89298  Biso   1.000  C
  C129     1.0000 0.80191  0.08002  0.77188  Biso   1.000  C
  C130     1.0000 0.76670  0.25782  0.75660  Biso   1.000  C
  H133     1.0000 0.60912  0.83572  0.81951  Biso   1.000  H
  C131     1.0000 0.67351  0.28470  0.98490  Biso   1.000  C
  C132     1.0000 0.69641  0.11319  0.03540  Biso   1.000  C
  O22      1.0000 0.80819  0.55895  0.95750  Biso   1.000  O
  H134     1.0000 0.76890  0.57931  0.84817  Biso   1.000  H
  H135     1.0000 0.75410  0.46809  0.88109  Biso   1.000  H
  C133     1.0000 0.85852  0.11138  0.81813  Biso   1.000  C
  O23      1.0000 0.79120  0.97406  0.75620  Biso   1.000  O
  H136     1.0000 0.73590  0.30742  0.73741  Biso   1.000  H
  C134     1.0000 0.82431  0.29068  0.79762  Biso   1.000  C
  H137     1.0000 0.64568  0.33202  0.95629  Biso   1.000  H
  C135     1.0000 0.73389  0.31890  0.02012  Biso   1.000  C
  O24      1.0000 0.67655  0.01069  0.04333  Biso   1.000  O
  C136     1.0000 0.75826  0.14298  0.06728  Biso   1.000  C
  C137     1.0000 0.87061  0.53529  0.94411  Biso   1.000  C
  C138     1.0000 0.90460  0.03097  0.85880  Biso   1.000  C
  C139     1.0000 0.86892  0.21789  0.82921  Biso   1.000  C
  C140     1.0000 0.81330  0.94113  0.68697  Biso   1.000  C
  H138     1.0000 0.83289  0.36213  0.80388  Biso   1.000  H
  H139     1.0000 0.74578  0.38901  0.01730  Biso   1.000  H
  C141     1.0000 0.77609  0.24642  0.05953  Biso   1.000  C
  C142     1.0000 0.64578  0.99324  0.10853  Biso   1.000  C
  C143     1.0000 0.80756  0.06241  0.10233  Biso   1.000  C
  H140     1.0000 0.87301  0.46235  0.92912  Biso   1.000  H
  H141     1.0000 0.88162  0.57892  0.90292  Biso   1.000  H
  C144     1.0000 0.91678  0.55549  0.01673  Biso   1.000  C
  H142     1.0000 0.94482  0.06508  0.87971  Biso   1.000  H
  C145     1.0000 0.87590  0.97870  0.92309  Biso   1.000  C
  H143     1.0000 0.91379  0.97823  0.82232  Biso   1.000  H
  H144     1.0000 0.90702  0.24084  0.85869  Biso   1.000  H
  H145     1.0000 0.86002  0.94372  0.69433  Biso   1.000  H
  H146     1.0000 0.79700  0.98900  0.64578  Biso   1.000  H
  C146     1.0000 0.79221  0.83666  0.66618  Biso   1.000  C
  H147     1.0000 0.81727  0.26804  0.08118  Biso   1.000  H
  C147     1.0000 0.61956  0.88241  0.10520  Biso   1.000  C
  H148     1.0000 0.67637  0.00291  0.15512  Biso   1.000  H
  H149     1.0000 0.61078  0.04307  0.10882  Biso   1.000  H
  C148     1.0000 0.82788  0.99332  0.04028  Biso   1.000  C
  H150     1.0000 0.78908  0.01918  0.13881  Biso   1.000  H
  H151     1.0000 0.84506  0.09802  0.12979  Biso   1.000  H
  O25      1.0000 0.92171  0.46282  0.06137  Biso   1.000  O
  H152     1.0000 0.90128  0.61303  0.04499  Biso   1.000  H
  H153     1.0000 0.95880  0.57460  0.00443  Biso   1.000  H
  C149     1.0000 0.86541  0.03301  0.98852  Biso   1.000  C
  C150     1.0000 0.85329  0.87612  0.91562  Biso   1.000  C
  H154     1.0000 0.81978  0.81151  0.63067  Biso   1.000  H
  H155     1.0000 0.74930  0.84342  0.63670  Biso   1.000  H
  C151     1.0000 0.78862  0.75444  0.71903  Biso   1.000  C
  H156     1.0000 0.65440  0.83430  0.09963  Biso   1.000  H
  H157     1.0000 0.58730  0.87565  0.05970  Biso   1.000  H
  C152     1.0000 0.59087  0.85034  0.17144  Biso   1.000  C
  C153     1.0000 0.80590  0.89074  0.02988  Biso   1.000  C
  C154     1.0000 0.96469  0.46141  0.12852  Biso   1.000  C
  O26      1.0000 0.89060  0.13418  0.00087  Biso   1.000  O
  C155     1.0000 0.82008  0.83202  0.96939  Biso   1.000  C
  H158     1.0000 0.86060  0.83643  0.87351  Biso   1.000  H
  H159     1.0000 0.77190  0.69250  0.69191  Biso   1.000  H
  H160     1.0000 0.83101  0.74014  0.74632  Biso   1.000  H
  H161     1.0000 0.76069  0.77480  0.75470  Biso   1.000  H
  H162     1.0000 0.57650  0.77873  0.16500  Biso   1.000  H
  H163     1.0000 0.62228  0.85592  0.21699  Biso   1.000  H
  H164     1.0000 0.55477  0.89491  0.17609  Biso   1.000  H
  H165     1.0000 0.78138  0.86150  0.06430  Biso   1.000  H
  C156     1.0000 0.99479  0.54960  0.16403  Biso   1.000  C
  C157     1.0000 0.97870  0.36378  0.16121  Biso   1.000  C
  C158     1.0000 0.95559  0.13143  0.03999  Biso   1.000  C
  H166     1.0000 0.80730  0.76199  0.96462  Biso   1.000  H
  H167     1.0000 0.98690  0.61563  0.14174  Biso   1.000  H
  C159     1.0000 0.03639  0.53962  0.23193  Biso   1.000  C
  O27      1.0000 0.94952  0.27331  0.12737  Biso   1.000  O
  C160     1.0000 0.02008  0.35419  0.22929  Biso   1.000  C
  C161     1.0000 0.97657  0.24084  0.06211  Biso   1.000  C
  H168     1.0000 0.95807  0.08788  0.08561  Biso   1.000  H
  H169     1.0000 0.98370  0.10163  0.00679  Biso   1.000  H
  H170     1.0000 0.05611  0.59904  0.25571  Biso   1.000  H
  C162     1.0000 0.04897  0.44341  0.26462  Biso   1.000  C
  H171     1.0000 0.02869  0.28840  0.25164  Biso   1.000  H
  H172     1.0000 0.96277  0.28824  0.01960  Biso   1.000  H
  H173     1.0000 0.02328  0.24352  0.07383  Biso   1.000  H
  H174     1.0000 0.07707  0.43751  0.31081  Biso   1.000  H
  C163     1.0000 0.43732  0.61736  0.21532  Biso   1.000  C
  O28      1.0000 0.44508  0.59802  0.14718  Biso   1.000  O
  C164     1.0000 0.42418  0.72339  0.23749  Biso   1.000  C
  H175     1.0000 0.47591  0.59393  0.24858  Biso   1.000  H
  H176     1.0000 0.40212  0.57349  0.22652  Biso   1.000  H
  C165     1.0000 0.45921  0.50000  0.12087  Biso   1.000  C
  O29      1.0000 0.37112  0.76804  0.18746  Biso   1.000  O
  H177     1.0000 0.41470  0.72324  0.28971  Biso   1.000  H
  H178     1.0000 0.46229  0.76639  0.23657  Biso   1.000  H
  C166     1.0000 0.41050  0.42855  0.09962  Biso   1.000  C
  C167     1.0000 0.52019  0.47838  0.10668  Biso   1.000  C
  C168     1.0000 0.37242  0.87706  0.18309  Biso   1.000  C
  O30      1.0000 0.35260  0.45229  0.11513  Biso   1.000  O
  C169     1.0000 0.42470  0.33619  0.06572  Biso   1.000  C
  H179     1.0000 0.55321  0.52680  0.12013  Biso   1.000  H
  C170     1.0000 0.53230  0.38642  0.07319  Biso   1.000  C
  C171     1.0000 0.34899  0.93704  0.23950  Biso   1.000  C
  C172     1.0000 0.39620  0.92281  0.12242  Biso   1.000  C
  C173     1.0000 0.30288  0.41314  0.08169  Biso   1.000  C
  C174     1.0000 0.48549  0.31552  0.05262  Biso   1.000  C
  H180     1.0000 0.39220  0.28714  0.05147  Biso   1.000  H
  H181     1.0000 0.57390  0.37203  0.06429  Biso   1.000  H
  C175     1.0000 0.31139  0.88650  0.29661  Biso   1.000  C
  C176     1.0000 0.35521  0.04504  0.23640  Biso   1.000  C
  C177     1.0000 0.40909  0.85710  0.05417  Biso   1.000  C
  C178     1.0000 0.40201  0.03191  0.12127  Biso   1.000  C
  C179     1.0000 0.24110  0.45763  0.10703  Biso   1.000  C
  H182     1.0000 0.30442  0.33792  0.09060  Biso   1.000  H
  H183     1.0000 0.30089  0.42454  0.02700  Biso   1.000  H
  H184     1.0000 0.49460  0.25271  0.02953  Biso   1.000  H
  C180     1.0000 0.24619  0.84782  0.25662  Biso   1.000  C
  H185     1.0000 0.30498  0.93735  0.33579  Biso   1.000  H
  H186     1.0000 0.33568  0.82794  0.32148  Biso   1.000  H
  H187     1.0000 0.33990  0.08646  0.27311  Biso   1.000  H
  C181     1.0000 0.38392  0.09212  0.17953  Biso   1.000  C
  H188     1.0000 0.43619  0.79775  0.07239  Biso   1.000  H
  H189     1.0000 0.43189  0.89931  0.02120  Biso   1.000  H
  C182     1.0000 0.34591  0.81740  0.00839  Biso   1.000  C
  H190     1.0000 0.41829  0.06438  0.08100  Biso   1.000  H
  O31      1.0000 0.19179  0.44113  0.04251  Biso   1.000  O
  H191     1.0000 0.23108  0.42069  0.15178  Biso   1.000  H
  H192     1.0000 0.24588  0.53191  0.11892  Biso   1.000  H
  C183     1.0000 0.19812  0.92006  0.22807  Biso   1.000  C
  C184     1.0000 0.23328  0.74226  0.24341  Biso   1.000  C
  H193     1.0000 0.39091  0.16428  0.18050  Biso   1.000  H
  C185     1.0000 0.32652  0.71530  0.01511  Biso   1.000  C
  C186     1.0000 0.30363  0.88681  0.96461  Biso   1.000  C
  C187     1.0000 0.12942  0.46471  0.05590  Biso   1.000  C
  C188     1.0000 0.14151  0.88862  0.18188  Biso   1.000  C
  O32      1.0000 0.20878  0.02602  0.24375  Biso   1.000  O
  H194     1.0000 0.26408  0.69266  0.26260  Biso   1.000  H
  C189     1.0000 0.17572  0.70932  0.20239  Biso   1.000  C
  H195     1.0000 0.35430  0.66806  0.04372  Biso   1.000  H
  C190     1.0000 0.26614  0.68110  0.97989  Biso   1.000  C
  C191     1.0000 0.24171  0.85702  0.93267  Biso   1.000  C
  O33      1.0000 0.32343  0.98931  0.95668  Biso   1.000  O
  H196     1.0000 0.12702  0.53773  0.07089  Biso   1.000  H
  H197     1.0000 0.11841  0.42108  0.09709  Biso   1.000  H
  C192     1.0000 0.08320  0.44451  0.98328  Biso   1.000  C
  C193     1.0000 0.09538  0.96903  0.14121  Biso   1.000  C
  C194     1.0000 0.13111  0.78211  0.17080  Biso   1.000  C
  C195     1.0000 0.18672  0.05887  0.31298  Biso   1.000  C
  H198     1.0000 0.16708  0.63795  0.19607  Biso   1.000  H
  C196     1.0000 0.22390  0.75366  0.94048  Biso   1.000  C
  H199     1.0000 0.25421  0.61099  0.98271  Biso   1.000  H
  C197     1.0000 0.19242  0.93767  0.89768  Biso   1.000  C
  C198     1.0000 0.35420  0.00684  0.89148  Biso   1.000  C
  O34      1.0000 0.07828  0.53718  0.93864  Biso   1.000  O
  H200     1.0000 0.09870  0.38705  0.95502  Biso   1.000  H
  H201     1.0000 0.04123  0.42540  0.99558  Biso   1.000  H
  C199     1.0000 0.12409  0.02130  0.07692  Biso   1.000  C
  H202     1.0000 0.05521  0.93492  0.12030  Biso   1.000  H
  H203     1.0000 0.08619  0.02177  0.17769  Biso   1.000  H
  H204     1.0000 0.09301  0.75924  0.14132  Biso   1.000  H
  H205     1.0000 0.14001  0.05628  0.30568  Biso   1.000  H
  H206     1.0000 0.20297  0.01100  0.35417  Biso   1.000  H
  C200     1.0000 0.20781  0.16342  0.33378  Biso   1.000  C
  H207     1.0000 0.18271  0.73204  0.91877  Biso   1.000  H
  C201     1.0000 0.17209  0.00668  0.95967  Biso   1.000  C
  H208     1.0000 0.21090  0.98082  0.86120  Biso   1.000  H
  H209     1.0000 0.15491  0.90206  0.87017  Biso   1.000  H
  H210     1.0000 0.32362  0.99717  0.84489  Biso   1.000  H
  H211     1.0000 0.38920  0.95693  0.89119  Biso   1.000  H
  C202     1.0000 0.38042  0.11759  0.89481  Biso   1.000  C
  C203     1.0000 0.03530  0.53859  0.87149  Biso   1.000  C
  C204     1.0000 0.13457  0.96706  0.01149  Biso   1.000  C
  C205     1.0000 0.14669  0.12388  0.08439  Biso   1.000  C
  H212     1.0000 0.18019  0.18849  0.36928  Biso   1.000  H
  H213     1.0000 0.25068  0.15658  0.36331  Biso   1.000  H
  C206     1.0000 0.21141  0.24564  0.28098  Biso   1.000  C
  C207     1.0000 0.19413  0.10934  0.97007  Biso   1.000  C
  H214     1.0000 0.34564  0.16570  0.90038  Biso   1.000  H
  H215     1.0000 0.41273  0.12443  0.94031  Biso   1.000  H
  C208     1.0000 0.40911  0.14974  0.82857  Biso   1.000  C
  C209     1.0000 0.00519  0.45040  0.83598  Biso   1.000  C
  C210     1.0000 0.02134  0.63622  0.83880  Biso   1.000  C
  O35      1.0000 0.10943  0.86582  0.99914  Biso   1.000  O
  C211     1.0000 0.17991  0.16798  0.03062  Biso   1.000  C
  H216     1.0000 0.13938  0.16357  0.12650  Biso   1.000  H
  H217     1.0000 0.22808  0.30750  0.30810  Biso   1.000  H
  H218     1.0000 0.16898  0.25994  0.25369  Biso   1.000  H
  H219     1.0000 0.23929  0.22520  0.24531  Biso   1.000  H
  H220     1.0000 0.21861  0.13850  0.93571  Biso   1.000  H
  H221     1.0000 0.42353  0.22127  0.83501  Biso   1.000  H
  H222     1.0000 0.37771  0.14408  0.78302  Biso   1.000  H
  H223     1.0000 0.44521  0.10509  0.82386  Biso   1.000  H
  C212     1.0000 0.96360  0.46038  0.76808  Biso   1.000  C
  H224     1.0000 0.01314  0.38437  0.85827  Biso   1.000  H
  C213     1.0000 0.97990  0.64581  0.77066  Biso   1.000  C
  O36      1.0000 0.05051  0.72669  0.87264  Biso   1.000  O
  C214     1.0000 0.04444  0.86865  0.96002  Biso   1.000  C
  H225     1.0000 0.19268  0.23801  0.03539  Biso   1.000  H
  H226     1.0000 0.94392  0.40104  0.74430  Biso   1.000  H
  C215     1.0000 0.95102  0.55659  0.73539  Biso   1.000  C
  H227     1.0000 0.97134  0.71160  0.74837  Biso   1.000  H
  C216     1.0000 0.02341  0.75924  0.93790  Biso   1.000  C
  H228     1.0000 0.04191  0.91212  0.91440  Biso   1.000  H
  H229     1.0000 0.01632  0.89844  0.99316  Biso   1.000  H
  H230     1.0000 0.92291  0.56249  0.68920  Biso   1.000  H
  H231     1.0000 0.97670  0.75648  0.92618  Biso   1.000  H
  H232     1.0000 0.03721  0.71184  0.98041  Biso   1.000  H
