data_image0
_cell_length_a       10.845
_cell_length_b       20.805
_cell_length_c       12.881
_cell_angle_alpha    90
_cell_angle_beta     103.88
_cell_angle_gamma    90

_symmetry_space_group_name_H-M    "P 1"
_symmetry_int_tables_number       1

loop_
  _symmetry_equiv_pos_as_xyz
  'x, y, z'

loop_
  _atom_site_label
  _atom_site_occupancy
  _atom_site_fract_x
  _atom_site_fract_y
  _atom_site_fract_z
  _atom_site_thermal_displace_type
  _atom_site_B_iso_or_equiv
  _atom_site_type_symbol
  C1       1.0000 0.60361  0.47690  0.36802  Biso   1.000  C
  C2       1.0000 0.50215  0.45148  0.28797  Biso   1.000  C
  C3       1.0000 0.72429  0.45138  0.38313  Biso   1.000  C
  H1       1.0000 0.58886  0.51089  0.41040  Biso   1.000  H
  C4       1.0000 0.52221  0.40000  0.22503  Biso   1.000  C
  O1       1.0000 0.38029  0.47503  0.26902  Biso   1.000  O
  C5       1.0000 0.74818  0.39971  0.32299  Biso   1.000  C
  O2       1.0000 0.82532  0.47493  0.46070  Biso   1.000  O
  C6       1.0000 0.41451  0.37198  0.13411  Biso   1.000  C
  C7       1.0000 0.64508  0.37448  0.24558  Biso   1.000  C
  H2       1.0000 0.37792  0.50522  0.30956  Biso   1.000  H
  C8       1.0000 0.88320  0.37212  0.33603  Biso   1.000  C
  H3       1.0000 0.80138  0.50522  0.49157  Biso   1.000  H
  C9       1.0000 0.36886  0.30872  0.17097  Biso   1.000  C
  H4       1.0000 0.34294  0.40202  0.12499  Biso   1.000  H
  C10      1.0000 0.44952  0.36890  0.02751  Biso   1.000  C
  H5       1.0000 0.65945  0.33910  0.20608  Biso   1.000  H
  C11      1.0000 0.89814  0.30901  0.39912  Biso   1.000  C
  H6       1.0000 0.94101  0.40298  0.38001  Biso   1.000  H
  C12      1.0000 0.92233  0.36818  0.22967  Biso   1.000  C
  C13      1.0000 0.29245  0.30738  0.24518  Biso   1.000  C
  C14      1.0000 0.40542  0.24999  0.13779  Biso   1.000  C
  H7       1.0000 0.51611  0.33689  0.03503  Biso   1.000  H
  H8       1.0000 0.48816  0.40990  0.01847  Biso   1.000  H
  C15      1.0000 0.35326  0.35448  0.92011  Biso   1.000  C
  C16      1.0000 0.92557  0.30738  0.50900  Biso   1.000  C
  C17      1.0000 0.88508  0.24999  0.34587  Biso   1.000  C
  H9       1.0000 0.86700  0.33780  0.18369  Biso   1.000  H
  C18      1.0000 0.91829  0.43211  0.16921  Biso   1.000  C
  H10      1.0000 0.00813  0.35131  0.24342  Biso   1.000  H
  C19      1.0000 0.25459  0.24999  0.28253  Biso   1.000  C
  O3       1.0000 0.25464  0.36222  0.28917  Biso   1.000  O
  C20      1.0000 0.36886  0.19130  0.17097  Biso   1.000  C
  H11      1.0000 0.45779  0.24999  0.09020  Biso   1.000  H
  H12      1.0000 0.31188  0.31300  0.92795  Biso   1.000  H
  C21      1.0000 0.25494  0.40298  0.89508  Biso   1.000  C
  C22      1.0000 0.41791  0.34761  0.82695  Biso   1.000  C
  O4       1.0000 0.93887  0.36203  0.57186  Biso   1.000  O
  C23      1.0000 0.94049  0.24999  0.56426  Biso   1.000  C
  C24      1.0000 0.89814  0.19096  0.39912  Biso   1.000  C
  H13      1.0000 0.86687  0.24999  0.27157  Biso   1.000  H
  H14      1.0000 0.83201  0.44898  0.15602  Biso   1.000  H
  C25      1.0000 0.94856  0.41980  0.06509  Biso   1.000  C
  C26      1.0000 0.00585  0.48142  0.22959  Biso   1.000  C
  C27      1.0000 0.29245  0.19260  0.24518  Biso   1.000  C
  H15      1.0000 0.20456  0.24999  0.33187  Biso   1.000  H
  H16      1.0000 0.28063  0.39399  0.26326  Biso   1.000  H
  C28      1.0000 0.41451  0.12800  0.13411  Biso   1.000  C
  H17      1.0000 0.29221  0.44489  0.90876  Biso   1.000  H
  H18      1.0000 0.19550  0.39659  0.93890  Biso   1.000  H
  H19      1.0000 0.21099  0.39981  0.82111  Biso   1.000  H
  H20      1.0000 0.35595  0.33449  0.76385  Biso   1.000  H
  H21      1.0000 0.48369  0.31598  0.84454  Biso   1.000  H
  H22      1.0000 0.45353  0.38822  0.81407  Biso   1.000  H
  H23      1.0000 0.92766  0.39399  0.53347  Biso   1.000  H
  C29      1.0000 0.92557  0.19260  0.50900  Biso   1.000  C
  H24      1.0000 0.96041  0.24999  0.63871  Biso   1.000  H
  C30      1.0000 0.88320  0.12790  0.33603  Biso   1.000  C
  H25      1.0000 0.93598  0.45840  0.02319  Biso   1.000  H
  H26      1.0000 0.89387  0.38659  0.02783  Biso   1.000  H
  H27      1.0000 0.03550  0.40630  0.07669  Biso   1.000  H
  H28      1.0000 0.97862  0.49329  0.29261  Biso   1.000  H
  H29      1.0000 0.09038  0.46422  0.24990  Biso   1.000  H
  H30      1.0000 0.00514  0.51858  0.18537  Biso   1.000  H
  O5       1.0000 0.25464  0.13776  0.28917  Biso   1.000  O
  C31      1.0000 0.52221  0.09998  0.22503  Biso   1.000  C
  H31      1.0000 0.34294  0.09801  0.12499  Biso   1.000  H
  C32      1.0000 0.44952  0.13112  0.02751  Biso   1.000  C
  O6       1.0000 0.93887  0.13795  0.57186  Biso   1.000  O
  C33      1.0000 0.74818  0.10031  0.32299  Biso   1.000  C
  H32      1.0000 0.94101  0.09700  0.38001  Biso   1.000  H
  C34      1.0000 0.92233  0.13180  0.22967  Biso   1.000  C
  H33      1.0000 0.28063  0.10598  0.26326  Biso   1.000  H
  C35      1.0000 0.64508  0.12550  0.24558  Biso   1.000  C
  C36      1.0000 0.50215  0.04850  0.28797  Biso   1.000  C
  H34      1.0000 0.51611  0.16309  0.03503  Biso   1.000  H
  H35      1.0000 0.48816  0.09012  0.01847  Biso   1.000  H
  C37      1.0000 0.35326  0.14549  0.92011  Biso   1.000  C
  H36      1.0000 0.92766  0.10598  0.53347  Biso   1.000  H
  C38      1.0000 0.72429  0.04859  0.38313  Biso   1.000  C
  H37      1.0000 0.86700  0.16222  0.18369  Biso   1.000  H
  C39      1.0000 0.91829  0.06792  0.16921  Biso   1.000  C
  H38      1.0000 0.00813  0.14871  0.24342  Biso   1.000  H
  H39      1.0000 0.65945  0.16092  0.20608  Biso   1.000  H
  O7       1.0000 0.38029  0.02495  0.26902  Biso   1.000  O
  C40      1.0000 0.60361  0.02312  0.36802  Biso   1.000  C
  H40      1.0000 0.31188  0.18702  0.92795  Biso   1.000  H
  C41      1.0000 0.25494  0.09700  0.89508  Biso   1.000  C
  C42      1.0000 0.41791  0.15242  0.82695  Biso   1.000  C
  O8       1.0000 0.82532  0.02509  0.46070  Biso   1.000  O
  H41      1.0000 0.83201  0.05100  0.15602  Biso   1.000  H
  C43      1.0000 0.94856  0.08022  0.06509  Biso   1.000  C
  C44      1.0000 0.00585  0.01860  0.22959  Biso   1.000  C
  H42      1.0000 0.37792  0.99481  0.30956  Biso   1.000  H
  H43      1.0000 0.58886  0.98909  0.41040  Biso   1.000  H
  H44      1.0000 0.29221  0.05508  0.90876  Biso   1.000  H
  H45      1.0000 0.19550  0.10339  0.93890  Biso   1.000  H
  H46      1.0000 0.21099  0.10022  0.82111  Biso   1.000  H
  H47      1.0000 0.35595  0.16549  0.76385  Biso   1.000  H
  H48      1.0000 0.48369  0.18399  0.84454  Biso   1.000  H
  H49      1.0000 0.45353  0.11180  0.81407  Biso   1.000  H
  H50      1.0000 0.80138  0.99481  0.49157  Biso   1.000  H
  H51      1.0000 0.93598  0.04158  0.02319  Biso   1.000  H
  H52      1.0000 0.89387  0.11339  0.02783  Biso   1.000  H
  H53      1.0000 0.03550  0.09368  0.07669  Biso   1.000  H
  H54      1.0000 0.97862  0.00668  0.29261  Biso   1.000  H
  H55      1.0000 0.00514  0.98140  0.18537  Biso   1.000  H
  H56      1.0000 0.09038  0.03581  0.24990  Biso   1.000  H
  C45      1.0000 0.39639  0.52310  0.63199  Biso   1.000  C
  C46      1.0000 0.27563  0.54862  0.61688  Biso   1.000  C
  H57      1.0000 0.41106  0.48911  0.58961  Biso   1.000  H
  C47      1.0000 0.49774  0.54852  0.71196  Biso   1.000  C
  O9       1.0000 0.17459  0.52507  0.53931  Biso   1.000  O
  C48      1.0000 0.25173  0.60029  0.67702  Biso   1.000  C
  O10      1.0000 0.61962  0.52497  0.73099  Biso   1.000  O
  C49      1.0000 0.47770  0.60000  0.77498  Biso   1.000  C
  H58      1.0000 0.19851  0.49478  0.50836  Biso   1.000  H
  C50      1.0000 0.35483  0.62552  0.75443  Biso   1.000  C
  C51      1.0000 0.11671  0.62788  0.66398  Biso   1.000  C
  H59      1.0000 0.62197  0.49478  0.69037  Biso   1.000  H
  C52      1.0000 0.58540  0.62802  0.86590  Biso   1.000  C
  H60      1.0000 0.34043  0.66090  0.79385  Biso   1.000  H
  C53      1.0000 0.10177  0.69099  0.60089  Biso   1.000  C
  H61      1.0000 0.05900  0.59702  0.62000  Biso   1.000  H
  C54      1.0000 0.07756  0.63182  0.77026  Biso   1.000  C
  H62      1.0000 0.65697  0.59798  0.87502  Biso   1.000  H
  C55      1.0000 0.55040  0.63110  0.97250  Biso   1.000  C
  C56      1.0000 0.63103  0.69128  0.82896  Biso   1.000  C
  C57      1.0000 0.07434  0.69262  0.49101  Biso   1.000  C
  C58      1.0000 0.11481  0.75001  0.65406  Biso   1.000  C
  H63      1.0000 0.13291  0.66220  0.81632  Biso   1.000  H
  C59      1.0000 0.08162  0.56789  0.83080  Biso   1.000  C
  H64      1.0000 0.99187  0.64869  0.75658  Biso   1.000  H
  H65      1.0000 0.48380  0.66311  0.96498  Biso   1.000  H
  H66      1.0000 0.51173  0.59010  0.98146  Biso   1.000  H
  C60      1.0000 0.64665  0.64552  0.07990  Biso   1.000  C
  C61      1.0000 0.70746  0.69262  0.75483  Biso   1.000  C
  C62      1.0000 0.59449  0.75001  0.86222  Biso   1.000  C
  O11      1.0000 0.06102  0.63797  0.42807  Biso   1.000  O
  C63      1.0000 0.05950  0.75001  0.43567  Biso   1.000  C
  C64      1.0000 0.10177  0.80904  0.60089  Biso   1.000  C
  H67      1.0000 0.13302  0.75001  0.72836  Biso   1.000  H
  H68      1.0000 0.16791  0.55102  0.84399  Biso   1.000  H
  C65      1.0000 0.05135  0.58020  0.93492  Biso   1.000  C
  C66      1.0000 0.99406  0.51858  0.77042  Biso   1.000  C
  H69      1.0000 0.68801  0.68700  0.07198  Biso   1.000  H
  C67      1.0000 0.74497  0.59702  0.10493  Biso   1.000  C
  C68      1.0000 0.58198  0.65239  0.17298  Biso   1.000  C
  O12      1.0000 0.74525  0.63778  0.71076  Biso   1.000  O
  C69      1.0000 0.74532  0.75001  0.71748  Biso   1.000  C
  C70      1.0000 0.63103  0.80870  0.82896  Biso   1.000  C
  H70      1.0000 0.54212  0.75001  0.90980  Biso   1.000  H
  H71      1.0000 0.07223  0.60601  0.46646  Biso   1.000  H
  C71      1.0000 0.07434  0.80740  0.49101  Biso   1.000  C
  H72      1.0000 0.03950  0.75001  0.36130  Biso   1.000  H
  C72      1.0000 0.11671  0.87210  0.66398  Biso   1.000  C
  H73      1.0000 0.06394  0.54160  0.97682  Biso   1.000  H
  H74      1.0000 0.10604  0.61341  0.97218  Biso   1.000  H
  H75      1.0000 0.96441  0.59370  0.92332  Biso   1.000  H
  H76      1.0000 0.02138  0.50671  0.70740  Biso   1.000  H
  H77      1.0000 0.90953  0.53578  0.75011  Biso   1.000  H
  H78      1.0000 0.99474  0.48142  0.81456  Biso   1.000  H
  H79      1.0000 0.70768  0.55511  0.09117  Biso   1.000  H
  H80      1.0000 0.80441  0.60341  0.06111  Biso   1.000  H
  H81      1.0000 0.78892  0.60019  0.17890  Biso   1.000  H
  H82      1.0000 0.64394  0.66551  0.23608  Biso   1.000  H
  H83      1.0000 0.51620  0.68402  0.15539  Biso   1.000  H
  H84      1.0000 0.54639  0.61178  0.18594  Biso   1.000  H
  H85      1.0000 0.71926  0.60601  0.73667  Biso   1.000  H
  C73      1.0000 0.70746  0.80740  0.75483  Biso   1.000  C
  H86      1.0000 0.79533  0.75001  0.66806  Biso   1.000  H
  C74      1.0000 0.58540  0.87200  0.86590  Biso   1.000  C
  O13      1.0000 0.06102  0.86205  0.42807  Biso   1.000  O
  C75      1.0000 0.25173  0.89969  0.67702  Biso   1.000  C
  H87      1.0000 0.05900  0.90300  0.62000  Biso   1.000  H
  C76      1.0000 0.07756  0.86820  0.77026  Biso   1.000  C
  O14      1.0000 0.74525  0.86224  0.71076  Biso   1.000  O
  C77      1.0000 0.47770  0.89998  0.77498  Biso   1.000  C
  H88      1.0000 0.65697  0.90199  0.87502  Biso   1.000  H
  C78      1.0000 0.55040  0.86888  0.97250  Biso   1.000  C
  H89      1.0000 0.07223  0.89402  0.46646  Biso   1.000  H
  C79      1.0000 0.27563  0.95141  0.61688  Biso   1.000  C
  C80      1.0000 0.35483  0.87450  0.75443  Biso   1.000  C
  H90      1.0000 0.13291  0.83778  0.81632  Biso   1.000  H
  C81      1.0000 0.08162  0.93208  0.83080  Biso   1.000  C
  H91      1.0000 0.99187  0.85129  0.75658  Biso   1.000  H
  H92      1.0000 0.71926  0.89402  0.73667  Biso   1.000  H
  C82      1.0000 0.49774  0.95150  0.71196  Biso   1.000  C
  H93      1.0000 0.48380  0.83691  0.96498  Biso   1.000  H
  H94      1.0000 0.51173  0.90988  0.98146  Biso   1.000  H
  C83      1.0000 0.64665  0.85451  0.07990  Biso   1.000  C
  O15      1.0000 0.17459  0.97491  0.53931  Biso   1.000  O
  C84      1.0000 0.39639  0.97688  0.63199  Biso   1.000  C
  H95      1.0000 0.34043  0.83908  0.79385  Biso   1.000  H
  H96      1.0000 0.16791  0.94900  0.84399  Biso   1.000  H
  C85      1.0000 0.05135  0.91978  0.93492  Biso   1.000  C
  C86      1.0000 0.99406  0.98140  0.77042  Biso   1.000  C
  O16      1.0000 0.61962  0.97505  0.73099  Biso   1.000  O
  H97      1.0000 0.68801  0.81298  0.07198  Biso   1.000  H
  C87      1.0000 0.74497  0.90300  0.10493  Biso   1.000  C
  C88      1.0000 0.58198  0.84758  0.17298  Biso   1.000  C
  H98      1.0000 0.19851  0.00519  0.50836  Biso   1.000  H
  H99      1.0000 0.41106  0.01091  0.58961  Biso   1.000  H
  H100     1.0000 0.06394  0.95842  0.97682  Biso   1.000  H
  H101     1.0000 0.10604  0.88661  0.97218  Biso   1.000  H
  H102     1.0000 0.96441  0.90632  0.92332  Biso   1.000  H
  H103     1.0000 0.02138  0.99332  0.70740  Biso   1.000  H
  H104     1.0000 0.90953  0.96419  0.75011  Biso   1.000  H
  H105     1.0000 0.99474  0.01860  0.81456  Biso   1.000  H
  H106     1.0000 0.62197  0.00519  0.69037  Biso   1.000  H
  H107     1.0000 0.70768  0.94492  0.09117  Biso   1.000  H
  H108     1.0000 0.80441  0.89661  0.06111  Biso   1.000  H
  H109     1.0000 0.78892  0.89978  0.17890  Biso   1.000  H
  H110     1.0000 0.64394  0.83451  0.23608  Biso   1.000  H
  H111     1.0000 0.51620  0.81601  0.15539  Biso   1.000  H
  H112     1.0000 0.54639  0.88820  0.18594  Biso   1.000  H
