data_image0
_cell_length_a       29.399
_cell_length_b       11.476
_cell_length_c       20.644
_cell_angle_alpha    90
_cell_angle_beta     109.29
_cell_angle_gamma    90

_symmetry_space_group_name_H-M    "P 1"
_symmetry_int_tables_number       1

loop_
  _symmetry_equiv_pos_as_xyz
  'x, y, z'

loop_
  _atom_site_label
  _atom_site_occupancy
  _atom_site_fract_x
  _atom_site_fract_y
  _atom_site_fract_z
  _atom_site_thermal_displace_type
  _atom_site_B_iso_or_equiv
  _atom_site_type_symbol
  C1       1.0000 0.46511  0.57529  0.65938  Biso   1.000  C
  O1       1.0000 0.43451  0.51464  0.64491  Biso   1.000  O
  C2       1.0000 0.47761  0.67724  0.62982  Biso   1.000  C
  H1       1.0000 0.46588  0.59890  0.70480  Biso   1.000  H
  H2       1.0000 0.49260  0.52693  0.66821  Biso   1.000  H
  C3       1.0000 0.42580  0.40850  0.66718  Biso   1.000  C
  H3       1.0000 0.48421  0.65946  0.58789  Biso   1.000  H
  H4       1.0000 0.50760  0.72220  0.66348  Biso   1.000  H
  O2       1.0000 0.43800  0.76786  0.61540  Biso   1.000  O
  C4       1.0000 0.38351  0.39204  0.63182  Biso   1.000  C
  H5       1.0000 0.42851  0.42506  0.71450  Biso   1.000  H
  H6       1.0000 0.45482  0.36476  0.67380  Biso   1.000  H
  C5       1.0000 0.44130  0.87687  0.59338  Biso   1.000  C
  O3       1.0000 0.35059  0.41914  0.65122  Biso   1.000  O
  H7       1.0000 0.38560  0.32398  0.66092  Biso   1.000  H
  H8       1.0000 0.38150  0.31422  0.59969  Biso   1.000  H
  C6       1.0000 0.39490  0.94972  0.57182  Biso   1.000  C
  H9       1.0000 0.45780  0.92001  0.63490  Biso   1.000  H
  H10      1.0000 0.46321  0.89230  0.57039  Biso   1.000  H
  C7       1.0000 0.30910  0.34812  0.63818  Biso   1.000  C
  H11      1.0000 0.37500  0.89770  0.53693  Biso   1.000  H
  O4       1.0000 0.37444  0.95173  0.61868  Biso   1.000  O
  H12      1.0000 0.39311  0.01586  0.54401  Biso   1.000  H
  C8       1.0000 0.26999  0.39953  0.58409  Biso   1.000  C
  H13      1.0000 0.30082  0.33932  0.67960  Biso   1.000  H
  H14      1.0000 0.31579  0.27144  0.62289  Biso   1.000  H
  C9       1.0000 0.32960  0.99582  0.60749  Biso   1.000  C
  O5       1.0000 0.28070  0.39918  0.52220  Biso   1.000  O
  H15      1.0000 0.26469  0.47848  0.59661  Biso   1.000  H
  H16      1.0000 0.24072  0.35352  0.57932  Biso   1.000  H
  C10      1.0000 0.29909  0.02928  0.54329  Biso   1.000  C
  C11      1.0000 0.31421  0.00227  0.66389  Biso   1.000  C
  C12      1.0000 0.24618  0.43508  0.46328  Biso   1.000  C
  C13      1.0000 0.25379  0.06492  0.53672  Biso   1.000  C
  H17      1.0000 0.30981  0.02788  0.50562  Biso   1.000  H
  H18      1.0000 0.33581  0.98266  0.70670  Biso   1.000  H
  C14      1.0000 0.26915  0.03756  0.65748  Biso   1.000  C
  C15      1.0000 0.26139  0.43229  0.40570  Biso   1.000  C
  C16      1.0000 0.20091  0.47072  0.45671  Biso   1.000  C
  O6       1.0000 0.21928  0.10082  0.47780  Biso   1.000  O
  C17      1.0000 0.23861  0.06771  0.59430  Biso   1.000  C
  C18      1.0000 0.25180  0.03886  0.71830  Biso   1.000  C
  C19      1.0000 0.23082  0.46244  0.34252  Biso   1.000  C
  H19      1.0000 0.29282  0.40981  0.41052  Biso   1.000  H
  C20      1.0000 0.17041  0.50418  0.39251  Biso   1.000  C
  H20      1.0000 0.19019  0.47212  0.49438  Biso   1.000  H
  C21      1.0000 0.22999  0.10047  0.41591  Biso   1.000  C
  H21      1.0000 0.20719  0.09019  0.58948  Biso   1.000  H
  H22      1.0000 0.23259  0.96968  0.71701  Biso   1.000  H
  H23      1.0000 0.23031  0.10788  0.71291  Biso   1.000  H
  N1       1.0000 0.28838  0.04636  0.78450  Biso   1.000  N
  C22      1.0000 0.24821  0.46114  0.28170  Biso   1.000  C
  C23      1.0000 0.18579  0.49773  0.33610  Biso   1.000  C
  O7       1.0000 0.12553  0.54827  0.38132  Biso   1.000  O
  C24      1.0000 0.19091  0.15188  0.36182  Biso   1.000  C
  H24      1.0000 0.23531  0.02152  0.40339  Biso   1.000  H
  H25      1.0000 0.25929  0.14648  0.42068  Biso   1.000  H
  C25      1.0000 0.30909  0.95129  0.81719  Biso   1.000  C
  H26      1.0000 0.29711  0.11337  0.80308  Biso   1.000  H
  H27      1.0000 0.26739  0.53032  0.28299  Biso   1.000  H
  H28      1.0000 0.26970  0.39212  0.28709  Biso   1.000  H
  N2       1.0000 0.21163  0.45364  0.21550  Biso   1.000  N
  H29      1.0000 0.16420  0.51734  0.29330  Biso   1.000  H
  C26      1.0000 0.10511  0.55028  0.42818  Biso   1.000  C
  O8       1.0000 0.14938  0.08086  0.34878  Biso   1.000  O
  H30      1.0000 0.19919  0.16068  0.32040  Biso   1.000  H
  H31      1.0000 0.18422  0.22856  0.37711  Biso   1.000  H
  N3       1.0000 0.34786  0.97264  0.87462  Biso   1.000  N
  O9       1.0000 0.29567  0.85021  0.79979  Biso   1.000  O
  C27      1.0000 0.19091  0.54871  0.18281  Biso   1.000  C
  H32      1.0000 0.20290  0.38663  0.19692  Biso   1.000  H
  H33      1.0000 0.12502  0.60230  0.46313  Biso   1.000  H
  H34      1.0000 0.10690  0.48414  0.45599  Biso   1.000  H
  C28      1.0000 0.05871  0.62313  0.40662  Biso   1.000  C
  C29      1.0000 0.11650  0.10796  0.36818  Biso   1.000  C
  C30      1.0000 0.38000  0.89038  0.91481  Biso   1.000  C
  H35      1.0000 0.35482  0.04758  0.87252  Biso   1.000  H
  N4       1.0000 0.15215  0.52736  0.12538  Biso   1.000  N
  O10      1.0000 0.20434  0.64979  0.20021  Biso   1.000  O
  H36      1.0000 0.04221  0.57999  0.36510  Biso   1.000  H
  H37      1.0000 0.03680  0.60770  0.42961  Biso   1.000  H
  O11      1.0000 0.06201  0.73214  0.38460  Biso   1.000  O
  C31      1.0000 0.07421  0.09150  0.33282  Biso   1.000  C
  H38      1.0000 0.11441  0.17602  0.33908  Biso   1.000  H
  H39      1.0000 0.11851  0.18578  0.40031  Biso   1.000  H
  C32      1.0000 0.36821  0.78276  0.92758  Biso   1.000  C
  C33      1.0000 0.42791  0.92053  0.94668  Biso   1.000  C
  C34      1.0000 0.12000  0.60962  0.08519  Biso   1.000  C
  H40      1.0000 0.14519  0.45242  0.12748  Biso   1.000  H
  C35      1.0000 0.02240  0.82276  0.37018  Biso   1.000  C
  O12      1.0000 0.06550  0.98536  0.35509  Biso   1.000  O
  H41      1.0000 0.07150  0.07494  0.28550  Biso   1.000  H
  H42      1.0000 0.04519  0.13524  0.32620  Biso   1.000  H
  C36      1.0000 0.40060  0.70739  0.96972  Biso   1.000  C
  H43      1.0000 0.34348  0.75209  0.90049  Biso   1.000  H
  C37      1.0000 0.45899  0.84751  0.99020  Biso   1.000  C
  H44      1.0000 0.43850  0.99320  0.93780  Biso   1.000  H
  C38      1.0000 0.13180  0.71724  0.07241  Biso   1.000  C
  C39      1.0000 0.07210  0.57947  0.05332  Biso   1.000  C
  H45      1.0000 0.01580  0.84054  0.41211  Biso   1.000  H
  C40      1.0000 0.03490  0.92471  0.34062  Biso   1.000  C
  H46      1.0000 0.99241  0.77780  0.33651  Biso   1.000  H
  H47      1.0000 0.39071  0.63289  0.97680  Biso   1.000  H
  C41      1.0000 0.44648  0.74277  0.00180  Biso   1.000  C
  H48      1.0000 0.49051  0.87234  0.01242  Biso   1.000  H
  C42      1.0000 0.09941  0.79261  0.03028  Biso   1.000  C
  H49      1.0000 0.15649  0.74791  0.09951  Biso   1.000  H
  C43      1.0000 0.04102  0.65249  0.00980  Biso   1.000  C
  H50      1.0000 0.06151  0.50680  0.06220  Biso   1.000  H
  H51      1.0000 0.03409  0.90110  0.29520  Biso   1.000  H
  H52      1.0000 0.00741  0.97307  0.33179  Biso   1.000  H
  H53      1.0000 0.46818  0.69127  0.03100  Biso   1.000  H
  H54      1.0000 0.10930  0.86711  0.02320  Biso   1.000  H
  C44      1.0000 0.05350  0.75723  0.99820  Biso   1.000  C
  H55      1.0000 0.00950  0.62766  0.98758  Biso   1.000  H
  H56      1.0000 0.03182  0.80873  0.96900  Biso   1.000  H
  C45      1.0000 0.53490  0.57529  0.84059  Biso   1.000  C
  C46      1.0000 0.52242  0.67724  0.87021  Biso   1.000  C
  H57      1.0000 0.53410  0.59890  0.79518  Biso   1.000  H
  H58      1.0000 0.50739  0.52693  0.83182  Biso   1.000  H
  O13      1.0000 0.56552  0.51464  0.85512  Biso   1.000  O
  O14      1.0000 0.56198  0.76786  0.88458  Biso   1.000  O
  H59      1.0000 0.51581  0.65946  0.91209  Biso   1.000  H
  H60      1.0000 0.49239  0.72220  0.83649  Biso   1.000  H
  C47      1.0000 0.57418  0.40850  0.83279  Biso   1.000  C
  C48      1.0000 0.55868  0.87687  0.90659  Biso   1.000  C
  H61      1.0000 0.57151  0.42506  0.78548  Biso   1.000  H
  H62      1.0000 0.54521  0.36476  0.82622  Biso   1.000  H
  C49      1.0000 0.61652  0.39204  0.86821  Biso   1.000  C
  C50      1.0000 0.60509  0.94972  0.92820  Biso   1.000  C
  H63      1.0000 0.54218  0.92001  0.86507  Biso   1.000  H
  H64      1.0000 0.53681  0.89230  0.92959  Biso   1.000  H
  H65      1.0000 0.61439  0.32398  0.83911  Biso   1.000  H
  H66      1.0000 0.61848  0.31422  0.90028  Biso   1.000  H
  O15      1.0000 0.64940  0.41914  0.84881  Biso   1.000  O
  O16      1.0000 0.62554  0.95173  0.88129  Biso   1.000  O
  H67      1.0000 0.62499  0.89770  0.96310  Biso   1.000  H
  H68      1.0000 0.60692  0.01586  0.95602  Biso   1.000  H
  C51      1.0000 0.69091  0.34812  0.86179  Biso   1.000  C
  C52      1.0000 0.67038  0.99582  0.89248  Biso   1.000  C
  C53      1.0000 0.72999  0.39953  0.91588  Biso   1.000  C
  H69      1.0000 0.69921  0.33932  0.82043  Biso   1.000  H
  H70      1.0000 0.68419  0.27144  0.87708  Biso   1.000  H
  C54      1.0000 0.68580  0.00227  0.83608  Biso   1.000  C
  C55      1.0000 0.70089  0.02928  0.95668  Biso   1.000  C
  H71      1.0000 0.73530  0.47848  0.90341  Biso   1.000  H
  H72      1.0000 0.75931  0.35352  0.92071  Biso   1.000  H
  O17      1.0000 0.71928  0.39918  0.97778  Biso   1.000  O
  C56      1.0000 0.73083  0.03756  0.84249  Biso   1.000  C
  H73      1.0000 0.66420  0.98266  0.79328  Biso   1.000  H
  C57      1.0000 0.74620  0.06492  0.96330  Biso   1.000  C
  H74      1.0000 0.69021  0.02788  0.99441  Biso   1.000  H
  C58      1.0000 0.75380  0.43508  0.03669  Biso   1.000  C
  C59      1.0000 0.74818  0.03886  0.78168  Biso   1.000  C
  C60      1.0000 0.76141  0.06771  0.90572  Biso   1.000  C
  O18      1.0000 0.78072  0.10082  0.02222  Biso   1.000  O
  C61      1.0000 0.79908  0.47072  0.04331  Biso   1.000  C
  C62      1.0000 0.73859  0.43229  0.09428  Biso   1.000  C
  N5       1.0000 0.71165  0.04636  0.71552  Biso   1.000  N
  H75      1.0000 0.76740  0.96968  0.78301  Biso   1.000  H
  H76      1.0000 0.76972  0.10788  0.78712  Biso   1.000  H
  H77      1.0000 0.79279  0.09019  0.91049  Biso   1.000  H
  C63      1.0000 0.77001  0.10047  0.08412  Biso   1.000  C
  C64      1.0000 0.82959  0.50418  0.10752  Biso   1.000  C
  H78      1.0000 0.80979  0.47212  0.00559  Biso   1.000  H
  C65      1.0000 0.76917  0.46244  0.15750  Biso   1.000  C
  H79      1.0000 0.70721  0.40981  0.08950  Biso   1.000  H
  C66      1.0000 0.69089  0.95129  0.68278  Biso   1.000  C
  H80      1.0000 0.70290  0.11337  0.69689  Biso   1.000  H
  H81      1.0000 0.76470  0.02152  0.09659  Biso   1.000  H
  H82      1.0000 0.74069  0.14648  0.07929  Biso   1.000  H
  C67      1.0000 0.80908  0.15188  0.13821  Biso   1.000  C
  O19      1.0000 0.87446  0.54827  0.11871  Biso   1.000  O
  C68      1.0000 0.81420  0.49773  0.16392  Biso   1.000  C
  C69      1.0000 0.75178  0.46114  0.21832  Biso   1.000  C
  N6       1.0000 0.65217  0.97264  0.62540  Biso   1.000  N
  O20      1.0000 0.70436  0.85021  0.70023  Biso   1.000  O
  H83      1.0000 0.80080  0.16068  0.17962  Biso   1.000  H
  H84      1.0000 0.81581  0.22856  0.12291  Biso   1.000  H
  O21      1.0000 0.85060  0.08086  0.15119  Biso   1.000  O
  C70      1.0000 0.89491  0.55028  0.07180  Biso   1.000  C
  H85      1.0000 0.83579  0.51734  0.20672  Biso   1.000  H
  H86      1.0000 0.73259  0.53032  0.21699  Biso   1.000  H
  H87      1.0000 0.73028  0.39212  0.21288  Biso   1.000  H
  N7       1.0000 0.78835  0.45364  0.28447  Biso   1.000  N
  C71      1.0000 0.61999  0.89038  0.58522  Biso   1.000  C
  H88      1.0000 0.64521  0.04758  0.62751  Biso   1.000  H
  C72      1.0000 0.88348  0.10796  0.13179  Biso   1.000  C
  C73      1.0000 0.94128  0.62313  0.09340  Biso   1.000  C
  H89      1.0000 0.87497  0.60230  0.03690  Biso   1.000  H
  H90      1.0000 0.89308  0.48414  0.04398  Biso   1.000  H
  C74      1.0000 0.80911  0.54871  0.31722  Biso   1.000  C
  H91      1.0000 0.79710  0.38663  0.30310  Biso   1.000  H
  C75      1.0000 0.63181  0.78276  0.57239  Biso   1.000  C
  C76      1.0000 0.57211  0.92053  0.55330  Biso   1.000  C
  C77      1.0000 0.92578  0.09150  0.16720  Biso   1.000  C
  H92      1.0000 0.88557  0.17602  0.16089  Biso   1.000  H
  H93      1.0000 0.88149  0.18578  0.09972  Biso   1.000  H
  O22      1.0000 0.93799  0.73214  0.11542  Biso   1.000  O
  H94      1.0000 0.95778  0.57999  0.13492  Biso   1.000  H
  H95      1.0000 0.96319  0.60770  0.07041  Biso   1.000  H
  N8       1.0000 0.84783  0.52736  0.37459  Biso   1.000  N
  O23      1.0000 0.79564  0.64979  0.29977  Biso   1.000  O
  C78      1.0000 0.59939  0.70739  0.53030  Biso   1.000  C
  H96      1.0000 0.65650  0.75209  0.59949  Biso   1.000  H
  C79      1.0000 0.54099  0.84751  0.50978  Biso   1.000  C
  H97      1.0000 0.56148  0.99320  0.56218  Biso   1.000  H
  O24      1.0000 0.93448  0.98536  0.14488  Biso   1.000  O
  H98      1.0000 0.92849  0.07494  0.21452  Biso   1.000  H
  H99      1.0000 0.95479  0.13524  0.17377  Biso   1.000  H
  C80      1.0000 0.97758  0.82276  0.12979  Biso   1.000  C
  C81      1.0000 0.87998  0.60962  0.41478  Biso   1.000  C
  H100     1.0000 0.85479  0.45242  0.37249  Biso   1.000  H
  C82      1.0000 0.55350  0.74277  0.49818  Biso   1.000  C
  H101     1.0000 0.60931  0.63289  0.52322  Biso   1.000  H
  H102     1.0000 0.50948  0.87234  0.48761  Biso   1.000  H
  C83      1.0000 0.96510  0.92471  0.15940  Biso   1.000  C
  H103     1.0000 0.98419  0.84054  0.08791  Biso   1.000  H
  H104     1.0000 0.00758  0.77780  0.16351  Biso   1.000  H
  C84      1.0000 0.86819  0.71724  0.42761  Biso   1.000  C
  C85      1.0000 0.92789  0.57947  0.44670  Biso   1.000  C
  H105     1.0000 0.53180  0.69127  0.46898  Biso   1.000  H
  H106     1.0000 0.96590  0.90110  0.20482  Biso   1.000  H
  H107     1.0000 0.99257  0.97307  0.16818  Biso   1.000  H
  C86      1.0000 0.90061  0.79261  0.46969  Biso   1.000  C
  H108     1.0000 0.84350  0.74791  0.40051  Biso   1.000  H
  C87      1.0000 0.95901  0.65249  0.49022  Biso   1.000  C
  H109     1.0000 0.93849  0.50680  0.43782  Biso   1.000  H
  H110     1.0000 0.89068  0.86711  0.47678  Biso   1.000  H
  C88      1.0000 0.94650  0.75723  0.50182  Biso   1.000  C
  H111     1.0000 0.99048  0.62766  0.51239  Biso   1.000  H
  H112     1.0000 0.96820  0.80873  0.53102  Biso   1.000  H
  C89      1.0000 0.52238  0.32276  0.37018  Biso   1.000  C
  H113     1.0000 0.51582  0.34054  0.41211  Biso   1.000  H
  H114     1.0000 0.49240  0.27780  0.33651  Biso   1.000  H
  C90      1.0000 0.53491  0.42471  0.34062  Biso   1.000  C
  O25      1.0000 0.56199  0.23214  0.38460  Biso   1.000  O
  H115     1.0000 0.53411  0.40110  0.29520  Biso   1.000  H
  H116     1.0000 0.50739  0.47307  0.33179  Biso   1.000  H
  O26      1.0000 0.56548  0.48536  0.35509  Biso   1.000  O
  C91      1.0000 0.55869  0.12313  0.40662  Biso   1.000  C
  C92      1.0000 0.57419  0.59150  0.33282  Biso   1.000  C
  C93      1.0000 0.60509  0.05028  0.42818  Biso   1.000  C
  H117     1.0000 0.54219  0.07999  0.36510  Biso   1.000  H
  H118     1.0000 0.53682  0.10770  0.42961  Biso   1.000  H
  H119     1.0000 0.57148  0.57494  0.28550  Biso   1.000  H
  H120     1.0000 0.54521  0.63524  0.32620  Biso   1.000  H
  C94      1.0000 0.61648  0.60796  0.36818  Biso   1.000  C
  H121     1.0000 0.62500  0.10230  0.46313  Biso   1.000  H
  O27      1.0000 0.62555  0.04827  0.38132  Biso   1.000  O
  H122     1.0000 0.60688  0.98414  0.45599  Biso   1.000  H
  H123     1.0000 0.61439  0.67602  0.33908  Biso   1.000  H
  H124     1.0000 0.61849  0.68578  0.40031  Biso   1.000  H
  O28      1.0000 0.64940  0.58086  0.34878  Biso   1.000  O
  C95      1.0000 0.67039  0.00418  0.39251  Biso   1.000  C
  C96      1.0000 0.69089  0.65188  0.36182  Biso   1.000  C
  C97      1.0000 0.70090  0.97072  0.45671  Biso   1.000  C
  C98      1.0000 0.68581  0.99773  0.33610  Biso   1.000  C
  C99      1.0000 0.73000  0.60047  0.41591  Biso   1.000  C
  H125     1.0000 0.69921  0.66068  0.32040  Biso   1.000  H
  H126     1.0000 0.68420  0.72856  0.37711  Biso   1.000  H
  C100     1.0000 0.74620  0.93508  0.46328  Biso   1.000  C
  H127     1.0000 0.69021  0.97212  0.49438  Biso   1.000  H
  H128     1.0000 0.66421  0.01734  0.29330  Biso   1.000  H
  C101     1.0000 0.73084  0.96244  0.34252  Biso   1.000  C
  H129     1.0000 0.73530  0.52152  0.40339  Biso   1.000  H
  H130     1.0000 0.75931  0.64648  0.42068  Biso   1.000  H
  O29      1.0000 0.71929  0.60082  0.47780  Biso   1.000  O
  C102     1.0000 0.76141  0.93229  0.40570  Biso   1.000  C
  O30      1.0000 0.78072  0.89918  0.52220  Biso   1.000  O
  C103     1.0000 0.74819  0.96114  0.28170  Biso   1.000  C
  C104     1.0000 0.75381  0.56492  0.53672  Biso   1.000  C
  H131     1.0000 0.79280  0.90981  0.41052  Biso   1.000  H
  C105     1.0000 0.77000  0.89953  0.58409  Biso   1.000  C
  H132     1.0000 0.76740  0.03032  0.28299  Biso   1.000  H
  H133     1.0000 0.76968  0.89212  0.28709  Biso   1.000  H
  N9       1.0000 0.71164  0.95364  0.21550  Biso   1.000  N
  C106     1.0000 0.73860  0.56771  0.59430  Biso   1.000  C
  C107     1.0000 0.79911  0.52928  0.54329  Biso   1.000  C
  H134     1.0000 0.76471  0.97848  0.59661  Biso   1.000  H
  H135     1.0000 0.74070  0.85352  0.57932  Biso   1.000  H
  C108     1.0000 0.80908  0.84812  0.63818  Biso   1.000  C
  C109     1.0000 0.69090  0.04871  0.18281  Biso   1.000  C
  H136     1.0000 0.70291  0.88663  0.19692  Biso   1.000  H
  C110     1.0000 0.76917  0.53756  0.65748  Biso   1.000  C
  H137     1.0000 0.70720  0.59019  0.58948  Biso   1.000  H
  H138     1.0000 0.80980  0.52788  0.50562  Biso   1.000  H
  C111     1.0000 0.82958  0.49582  0.60749  Biso   1.000  C
  H139     1.0000 0.80080  0.83932  0.67960  Biso   1.000  H
  H140     1.0000 0.81581  0.77144  0.62289  Biso   1.000  H
  O31      1.0000 0.85061  0.91914  0.65122  Biso   1.000  O
  N10      1.0000 0.65217  0.02736  0.12538  Biso   1.000  N
  O32      1.0000 0.70436  0.14979  0.20021  Biso   1.000  O
  C112     1.0000 0.75181  0.53886  0.71830  Biso   1.000  C
  C113     1.0000 0.81420  0.50227  0.66389  Biso   1.000  C
  O33      1.0000 0.87446  0.45173  0.61868  Biso   1.000  O
  C114     1.0000 0.88349  0.89204  0.63182  Biso   1.000  C
  C115     1.0000 0.61999  0.10962  0.08519  Biso   1.000  C
  H141     1.0000 0.64521  0.95242  0.12748  Biso   1.000  H
  H142     1.0000 0.73260  0.46968  0.71701  Biso   1.000  H
  H143     1.0000 0.73029  0.60788  0.71291  Biso   1.000  H
  N11      1.0000 0.78836  0.54636  0.78450  Biso   1.000  N
  H144     1.0000 0.83579  0.48266  0.70670  Biso   1.000  H
  C116     1.0000 0.89492  0.44972  0.57182  Biso   1.000  C
  C117     1.0000 0.92578  0.90850  0.66718  Biso   1.000  C
  H145     1.0000 0.88562  0.82398  0.66092  Biso   1.000  H
  H146     1.0000 0.88148  0.81422  0.59969  Biso   1.000  H
  C118     1.0000 0.63182  0.21724  0.07241  Biso   1.000  C
  C119     1.0000 0.57212  0.07947  0.05332  Biso   1.000  C
  C120     1.0000 0.80911  0.45129  0.81719  Biso   1.000  C
  H147     1.0000 0.79709  0.61337  0.80308  Biso   1.000  H
  H148     1.0000 0.87502  0.39770  0.53693  Biso   1.000  H
  H149     1.0000 0.89309  0.51586  0.54401  Biso   1.000  H
  C121     1.0000 0.94128  0.37687  0.59338  Biso   1.000  C
  O34      1.0000 0.93449  0.01464  0.64491  Biso   1.000  O
  H150     1.0000 0.92849  0.92506  0.71450  Biso   1.000  H
  H151     1.0000 0.95480  0.86476  0.67380  Biso   1.000  H
  C122     1.0000 0.59939  0.29261  0.03028  Biso   1.000  C
  H152     1.0000 0.65651  0.24791  0.09951  Biso   1.000  H
  C123     1.0000 0.54100  0.15249  0.00980  Biso   1.000  C
  H153     1.0000 0.56149  0.00680  0.06220  Biso   1.000  H
  N12      1.0000 0.84784  0.47264  0.87462  Biso   1.000  N
  O35      1.0000 0.79565  0.35021  0.79979  Biso   1.000  O
  H154     1.0000 0.95782  0.42001  0.63490  Biso   1.000  H
  H155     1.0000 0.96319  0.39230  0.57039  Biso   1.000  H
  O36      1.0000 0.93799  0.26786  0.61540  Biso   1.000  O
  C124     1.0000 0.96509  0.07529  0.65938  Biso   1.000  C
  H156     1.0000 0.60931  0.36711  0.02320  Biso   1.000  H
  C125     1.0000 0.55351  0.25723  0.99820  Biso   1.000  C
  H157     1.0000 0.50952  0.12766  0.98758  Biso   1.000  H
  C126     1.0000 0.87999  0.39038  0.91481  Biso   1.000  C
  H158     1.0000 0.85480  0.54758  0.87252  Biso   1.000  H
  C127     1.0000 0.97759  0.17724  0.62982  Biso   1.000  C
  H159     1.0000 0.96590  0.09890  0.70480  Biso   1.000  H
  H160     1.0000 0.99258  0.02693  0.66821  Biso   1.000  H
  H161     1.0000 0.53181  0.30873  0.96900  Biso   1.000  H
  C128     1.0000 0.86819  0.28276  0.92758  Biso   1.000  C
  C129     1.0000 0.92789  0.42053  0.94668  Biso   1.000  C
  H162     1.0000 0.98419  0.15946  0.58789  Biso   1.000  H
  H163     1.0000 0.00761  0.22220  0.66348  Biso   1.000  H
  C130     1.0000 0.90062  0.20739  0.96972  Biso   1.000  C
  H164     1.0000 0.84350  0.25209  0.90049  Biso   1.000  H
  C131     1.0000 0.95901  0.34751  0.99020  Biso   1.000  C
  H165     1.0000 0.93849  0.49320  0.93780  Biso   1.000  H
  H166     1.0000 0.89069  0.13289  0.97680  Biso   1.000  H
  C132     1.0000 0.94649  0.24277  0.00180  Biso   1.000  C
  H167     1.0000 0.99049  0.37234  0.01242  Biso   1.000  H
  H168     1.0000 0.96820  0.19127  0.03100  Biso   1.000  H
  C133     1.0000 0.24820  0.53886  0.78168  Biso   1.000  C
  N13      1.0000 0.21163  0.54636  0.71552  Biso   1.000  N
  H169     1.0000 0.26739  0.46968  0.78301  Biso   1.000  H
  H170     1.0000 0.26970  0.60788  0.78712  Biso   1.000  H
  C134     1.0000 0.23084  0.53756  0.84249  Biso   1.000  C
  C135     1.0000 0.19090  0.45129  0.68278  Biso   1.000  C
  H171     1.0000 0.20289  0.61337  0.69689  Biso   1.000  H
  C136     1.0000 0.26140  0.56771  0.90572  Biso   1.000  C
  C137     1.0000 0.18578  0.50227  0.83608  Biso   1.000  C
  N14      1.0000 0.15215  0.47264  0.62540  Biso   1.000  N
  O37      1.0000 0.20434  0.35021  0.70023  Biso   1.000  O
  H172     1.0000 0.29281  0.59019  0.91049  Biso   1.000  H
  C138     1.0000 0.24622  0.56492  0.96330  Biso   1.000  C
  C139     1.0000 0.17040  0.49582  0.89248  Biso   1.000  C
  H173     1.0000 0.16419  0.48266  0.79328  Biso   1.000  H
  C140     1.0000 0.12001  0.39038  0.58522  Biso   1.000  C
  H174     1.0000 0.14519  0.54758  0.62751  Biso   1.000  H
  C141     1.0000 0.20090  0.52928  0.95668  Biso   1.000  C
  O38      1.0000 0.28070  0.60082  0.02222  Biso   1.000  O
  O39      1.0000 0.12555  0.45173  0.88129  Biso   1.000  O
  C142     1.0000 0.13179  0.28276  0.57239  Biso   1.000  C
  C143     1.0000 0.07209  0.42053  0.55330  Biso   1.000  C
  H175     1.0000 0.19020  0.52788  0.99441  Biso   1.000  H
  C144     1.0000 0.26999  0.60047  0.08412  Biso   1.000  C
  C145     1.0000 0.10511  0.44972  0.92820  Biso   1.000  C
  C146     1.0000 0.09941  0.20739  0.53030  Biso   1.000  C
  H176     1.0000 0.15651  0.25209  0.59949  Biso   1.000  H
  C147     1.0000 0.04101  0.34751  0.50978  Biso   1.000  C
  H177     1.0000 0.06149  0.49320  0.56218  Biso   1.000  H
  H178     1.0000 0.26468  0.52152  0.09659  Biso   1.000  H
  H179     1.0000 0.24070  0.64648  0.07929  Biso   1.000  H
  C148     1.0000 0.30910  0.65188  0.13821  Biso   1.000  C
  H180     1.0000 0.12501  0.39770  0.96310  Biso   1.000  H
  H181     1.0000 0.10690  0.51586  0.95602  Biso   1.000  H
  C149     1.0000 0.05870  0.37687  0.90659  Biso   1.000  C
  H182     1.0000 0.10930  0.13289  0.52322  Biso   1.000  H
  C150     1.0000 0.05349  0.24277  0.49818  Biso   1.000  C
  H183     1.0000 0.00950  0.37234  0.48761  Biso   1.000  H
  H184     1.0000 0.30078  0.66068  0.17962  Biso   1.000  H
  H185     1.0000 0.31579  0.72856  0.12291  Biso   1.000  H
  O40      1.0000 0.35058  0.58086  0.15119  Biso   1.000  O
  H186     1.0000 0.04220  0.42001  0.86507  Biso   1.000  H
  H187     1.0000 0.03679  0.39230  0.92959  Biso   1.000  H
  O41      1.0000 0.06199  0.26786  0.88458  Biso   1.000  O
  H188     1.0000 0.03178  0.19127  0.46898  Biso   1.000  H
  C151     1.0000 0.38350  0.60796  0.13179  Biso   1.000  C
  C152     1.0000 0.02240  0.17724  0.87021  Biso   1.000  C
  C153     1.0000 0.42580  0.59150  0.16720  Biso   1.000  C
  H189     1.0000 0.38559  0.67602  0.16089  Biso   1.000  H
  H190     1.0000 0.38150  0.68578  0.09972  Biso   1.000  H
  H191     1.0000 0.01579  0.15946  0.91209  Biso   1.000  H
  C154     1.0000 0.03489  0.07529  0.84059  Biso   1.000  C
  H192     1.0000 0.99240  0.22220  0.83649  Biso   1.000  H
  H193     1.0000 0.42851  0.57494  0.21452  Biso   1.000  H
  H194     1.0000 0.45477  0.63524  0.17377  Biso   1.000  H
  O42      1.0000 0.43450  0.48536  0.14488  Biso   1.000  O
  H195     1.0000 0.03408  0.09890  0.79518  Biso   1.000  H
  H196     1.0000 0.00741  0.02693  0.83182  Biso   1.000  H
  O43      1.0000 0.06550  0.01464  0.85512  Biso   1.000  O
  C155     1.0000 0.46508  0.42471  0.15940  Biso   1.000  C
  C156     1.0000 0.07420  0.90850  0.83279  Biso   1.000  C
  C157     1.0000 0.47760  0.32276  0.12979  Biso   1.000  C
  H197     1.0000 0.46589  0.40110  0.20482  Biso   1.000  H
  H198     1.0000 0.49259  0.47307  0.16818  Biso   1.000  H
  H199     1.0000 0.07149  0.92506  0.78548  Biso   1.000  H
  H200     1.0000 0.04519  0.86476  0.82622  Biso   1.000  H
  C158     1.0000 0.11650  0.89204  0.86821  Biso   1.000  C
  H201     1.0000 0.48421  0.34054  0.08791  Biso   1.000  H
  H202     1.0000 0.50760  0.27780  0.16351  Biso   1.000  H
  O44      1.0000 0.43800  0.23214  0.11542  Biso   1.000  O
  H203     1.0000 0.11441  0.82398  0.83911  Biso   1.000  H
  H204     1.0000 0.11850  0.81422  0.90028  Biso   1.000  H
  O45      1.0000 0.14941  0.91914  0.84881  Biso   1.000  O
  C159     1.0000 0.44130  0.12313  0.09340  Biso   1.000  C
  C160     1.0000 0.19090  0.84812  0.86179  Biso   1.000  C
  C161     1.0000 0.39489  0.05028  0.07180  Biso   1.000  C
  H205     1.0000 0.45780  0.07999  0.13492  Biso   1.000  H
  H206     1.0000 0.46321  0.10770  0.07041  Biso   1.000  H
  C162     1.0000 0.23001  0.89953  0.91588  Biso   1.000  C
  H207     1.0000 0.19919  0.83932  0.82043  Biso   1.000  H
  H208     1.0000 0.18421  0.77144  0.87708  Biso   1.000  H
  H209     1.0000 0.39310  0.98414  0.04398  Biso   1.000  H
  H210     1.0000 0.37499  0.10230  0.03690  Biso   1.000  H
  O46      1.0000 0.37444  0.04827  0.11871  Biso   1.000  O
  H211     1.0000 0.23532  0.97848  0.90341  Biso   1.000  H
  H212     1.0000 0.25929  0.85352  0.92071  Biso   1.000  H
  O47      1.0000 0.21930  0.89918  0.97778  Biso   1.000  O
  C163     1.0000 0.32960  0.00418  0.10752  Biso   1.000  C
  C164     1.0000 0.25378  0.93508  0.03669  Biso   1.000  C
  C165     1.0000 0.29910  0.97072  0.04331  Biso   1.000  C
  C166     1.0000 0.31418  0.99773  0.16392  Biso   1.000  C
  C167     1.0000 0.23860  0.93229  0.09428  Biso   1.000  C
  H213     1.0000 0.30980  0.97212  0.00559  Biso   1.000  H
  C168     1.0000 0.26915  0.96244  0.15750  Biso   1.000  C
  H214     1.0000 0.33581  0.01734  0.20672  Biso   1.000  H
  H215     1.0000 0.20719  0.90981  0.08950  Biso   1.000  H
  C169     1.0000 0.25180  0.96114  0.21832  Biso   1.000  C
  H216     1.0000 0.23030  0.89212  0.21288  Biso   1.000  H
  N15      1.0000 0.28837  0.95364  0.28447  Biso   1.000  N
  H217     1.0000 0.23258  0.03032  0.21699  Biso   1.000  H
  H218     1.0000 0.29708  0.88663  0.30310  Biso   1.000  H
  C170     1.0000 0.30909  0.04871  0.31722  Biso   1.000  C
  N16      1.0000 0.34781  0.02736  0.37459  Biso   1.000  N
  O48      1.0000 0.29562  0.14979  0.29977  Biso   1.000  O
  H219     1.0000 0.35477  0.95242  0.37249  Biso   1.000  H
  C171     1.0000 0.37999  0.10962  0.41478  Biso   1.000  C
  C172     1.0000 0.36821  0.21724  0.42761  Biso   1.000  C
  C173     1.0000 0.42788  0.07947  0.44670  Biso   1.000  C
  C174     1.0000 0.40059  0.29261  0.46969  Biso   1.000  C
  H220     1.0000 0.34349  0.24791  0.40051  Biso   1.000  H
  C175     1.0000 0.45899  0.15249  0.49022  Biso   1.000  C
  H221     1.0000 0.43850  0.00680  0.43782  Biso   1.000  H
  H222     1.0000 0.39070  0.36711  0.47678  Biso   1.000  H
  C176     1.0000 0.44651  0.25723  0.50182  Biso   1.000  C
  H223     1.0000 0.49050  0.12766  0.51239  Biso   1.000  H
  H224     1.0000 0.46819  0.30873  0.53102  Biso   1.000  H
