data_image0
_cell_length_a       16.091
_cell_length_b       16.281
_cell_length_c       16.944
_cell_angle_alpha    101.57
_cell_angle_beta     94.08
_cell_angle_gamma    116.74

_symmetry_space_group_name_H-M    "P 1"
_symmetry_int_tables_number       1

loop_
  _symmetry_equiv_pos_as_xyz
  'x, y, z'

loop_
  _atom_site_label
  _atom_site_occupancy
  _atom_site_fract_x
  _atom_site_fract_y
  _atom_site_fract_z
  _atom_site_thermal_displace_type
  _atom_site_B_iso_or_equiv
  _atom_site_type_symbol
  S1       1.0000 0.61321  0.55754  0.55489  Biso   1.000  S
  C1       1.0000 0.69499  0.65535  0.64058  Biso   1.000  C
  C2       1.0000 0.61460  0.46566  0.60001  Biso   1.000  C
  H1       1.0000 0.64369  0.59746  0.52008  Biso   1.000  H
  H2       1.0000 0.58067  0.62103  0.58076  Biso   1.000  H
  S2       1.0000 0.71209  0.62680  0.65664  Biso   1.000  S
  C3       1.0000 0.71892  0.74512  0.61276  Biso   1.000  C
  H3       1.0000 0.66510  0.65601  0.68968  Biso   1.000  H
  H4       1.0000 0.75280  0.64975  0.65407  Biso   1.000  H
  C4       1.0000 0.64640  0.63975  0.57218  Biso   1.000  C
  H5       1.0000 0.58301  0.40443  0.55710  Biso   1.000  H
  H6       1.0000 0.68151  0.48073  0.61521  Biso   1.000  H
  C5       1.0000 0.56899  0.45045  0.67429  Biso   1.000  C
  C6       1.0000 0.65521  0.49952  0.64518  Biso   1.000  C
  C7       1.0000 0.76698  0.76332  0.54809  Biso   1.000  C
  C8       1.0000 0.69183  0.80973  0.65321  Biso   1.000  C
  C9       1.0000 0.77297  0.77853  0.53068  Biso   1.000  C
  C10      1.0000 0.66543  0.80227  0.61251  Biso   1.000  C
  C11      1.0000 0.69429  0.74162  0.56746  Biso   1.000  C
  C12      1.0000 0.61859  0.47900  0.75385  Biso   1.000  C
  C13      1.0000 0.47059  0.40443  0.65909  Biso   1.000  C
  C14      1.0000 0.49526  0.42323  0.67595  Biso   1.000  C
  C15      1.0000 0.59210  0.46920  0.70617  Biso   1.000  C
  H7       1.0000 0.61718  0.46643  0.58916  Biso   1.000  H
  H8       1.0000 0.70450  0.47953  0.65137  Biso   1.000  H
  C16      1.0000 0.78802  0.84627  0.52388  Biso   1.000  C
  H9       1.0000 0.78550  0.71925  0.52051  Biso   1.000  H
  C17      1.0000 0.82284  0.87607  0.53890  Biso   1.000  C
  H10      1.0000 0.79279  0.73716  0.49997  Biso   1.000  H
  C18      1.0000 0.71280  0.89255  0.62900  Biso   1.000  C
  H11      1.0000 0.65893  0.79735  0.69740  Biso   1.000  H
  C19      1.0000 0.71519  0.89972  0.62066  Biso   1.000  C
  H12      1.0000 0.61159  0.77707  0.63758  Biso   1.000  H
  H13      1.0000 0.68579  0.51049  0.76427  Biso   1.000  H
  C20      1.0000 0.56977  0.46151  0.81815  Biso   1.000  C
  H14      1.0000 0.69131  0.51603  0.80926  Biso   1.000  H
  C21      1.0000 0.42175  0.38689  0.72345  Biso   1.000  C
  H15      1.0000 0.43670  0.38496  0.60466  Biso   1.000  H
  C22      1.0000 0.43146  0.39242  0.72829  Biso   1.000  C
  H16      1.0000 0.47267  0.41276  0.61968  Biso   1.000  H
  C23      1.0000 0.62509  0.48454  0.78867  Biso   1.000  C
  C24      1.0000 0.76091  0.91084  0.56439  Biso   1.000  C
  H17      1.0000 0.82092  0.85865  0.47969  Biso   1.000  H
  C25      1.0000 0.79400  0.93663  0.58389  Biso   1.000  C
  H18      1.0000 0.87673  0.90125  0.51377  Biso   1.000  H
  C26      1.0000 0.68934  0.96407  0.67429  Biso   1.000  C
  C27      1.0000 0.61591  0.48944  0.90678  Biso   1.000  C
  C28      1.0000 0.47136  0.41549  0.80295  Biso   1.000  C
  C29      1.0000 0.46455  0.40772  0.81067  Biso   1.000  C
  C30      1.0000 0.31551  0.33693  0.70476  Biso   1.000  C
  C31      1.0000 0.32720  0.34265  0.69415  Biso   1.000  C
  C32      1.0000 0.56139  0.45383  0.84089  Biso   1.000  C
  H19      1.0000 0.77517  0.96742  0.54778  Biso   1.000  H
  H20      1.0000 0.82798  0.00325  0.58946  Biso   1.000  H
  N1       1.0000 0.62936  0.93610  0.72627  Biso   1.000  N
  C33      1.0000 0.72259  0.06135  0.67871  Biso   1.000  C
  S3       1.0000 0.62436  0.59118  0.98279  Biso   1.000  S
  H21      1.0000 0.68136  0.49957  0.90684  Biso   1.000  H
  H22      1.0000 0.58256  0.43289  0.92805  Biso   1.000  H
  H23      1.0000 0.66367  0.47050  0.93185  Biso   1.000  H
  H24      1.0000 0.43799  0.40361  0.84696  Biso   1.000  H
  H25      1.0000 0.42099  0.38671  0.84635  Biso   1.000  H
  S4       1.0000 0.27559  0.41913  0.68122  Biso   1.000  S
  H26      1.0000 0.29014  0.31512  0.75257  Biso   1.000  H
  H27      1.0000 0.29209  0.28046  0.65738  Biso   1.000  H
  H28      1.0000 0.29358  0.30369  0.73099  Biso   1.000  H
  H29      1.0000 0.31547  0.29834  0.64015  Biso   1.000  H
  C34      1.0000 0.60330  0.47333  0.92848  Biso   1.000  C
  N2       1.0000 0.62538  0.01615  0.76250  Biso   1.000  N
  C35      1.0000 0.68096  0.09300  0.73540  Biso   1.000  C
  H30      1.0000 0.76565  0.09751  0.64806  Biso   1.000  H
  C36      1.0000 0.71578  0.67827  0.94227  Biso   1.000  C
  C37      1.0000 0.30317  0.49114  0.78346  Biso   1.000  C
  H31      1.0000 0.55935  0.42481  0.95355  Biso   1.000  H
  C38      1.0000 0.56886  0.01814  0.82459  Biso   1.000  C
  H32      1.0000 0.68886  0.15585  0.75257  Biso   1.000  H
  C39      1.0000 0.74155  0.77578  0.99229  Biso   1.000  C
  H33      1.0000 0.77219  0.66840  0.94466  Biso   1.000  H
  H34      1.0000 0.69224  0.67078  0.88429  Biso   1.000  H
  C40      1.0000 0.26340  0.55954  0.78426  Biso   1.000  C
  H35      1.0000 0.27506  0.45055  0.82079  Biso   1.000  H
  H36      1.0000 0.37269  0.52715  0.80240  Biso   1.000  H
  N3       1.0000 0.47121  0.94561  0.79725  Biso   1.000  N
  N4       1.0000 0.60883  0.01329  0.90151  Biso   1.000  N
  H37      1.0000 0.56934  0.08100  0.83476  Biso   1.000  H
  C41      1.0000 0.69889  0.82784  0.96759  Biso   1.000  C
  C42      1.0000 0.80732  0.81780  0.06572  Biso   1.000  C
  C43      1.0000 0.16746  0.52834  0.78658  Biso   1.000  C
  C44      1.0000 0.32034  0.65249  0.78119  Biso   1.000  C
  N5       1.0000 0.43749  0.85876  0.81270  Biso   1.000  N
  C45      1.0000 0.40306  0.95570  0.75367  Biso   1.000  C
  N6       1.0000 0.64967  0.95713  0.90525  Biso   1.000  N
  C46      1.0000 0.60535  0.05847  0.97696  Biso   1.000  C
  H38      1.0000 0.65348  0.79998  0.91818  Biso   1.000  H
  C47      1.0000 0.72102  0.91758  0.01288  Biso   1.000  C
  C48      1.0000 0.82969  0.90731  0.11071  Biso   1.000  C
  H39      1.0000 0.83639  0.78396  0.08453  Biso   1.000  H
  C49      1.0000 0.13097  0.59104  0.78695  Biso   1.000  C
  H40      1.0000 0.12755  0.46463  0.78787  Biso   1.000  H
  C50      1.0000 0.28418  0.71565  0.78150  Biso   1.000  C
  H41      1.0000 0.38535  0.67340  0.77868  Biso   1.000  H
  C51      1.0000 0.34571  0.81346  0.77788  Biso   1.000  C
  C52      1.0000 0.32128  0.87192  0.74117  Biso   1.000  C
  H42      1.0000 0.41101  0.01000  0.73565  Biso   1.000  H
  C53      1.0000 0.67340  0.96871  0.98487  Biso   1.000  C
  H43      1.0000 0.57876  0.10023  0.98879  Biso   1.000  H
  C54      1.0000 0.64792  0.03185  0.03268  Biso   1.000  C
  C55      1.0000 0.78741  0.95750  0.08502  Biso   1.000  C
  H44      1.0000 0.87503  0.93541  0.16023  Biso   1.000  H
  C56      1.0000 0.18928  0.68435  0.78419  Biso   1.000  C
  H45      1.0000 0.06597  0.57023  0.78910  Biso   1.000  H
  H46      1.0000 0.26048  0.85636  0.71346  Biso   1.000  H
  H47      1.0000 0.65783  0.05168  0.09079  Biso   1.000  H
  H48      1.0000 0.80402  0.01958  0.11690  Biso   1.000  H
  H49      1.0000 0.16370  0.72675  0.78407  Biso   1.000  H
  S5       1.0000 0.38682  0.44238  0.44512  Biso   1.000  S
  C57      1.0000 0.30497  0.34455  0.35937  Biso   1.000  C
  C58      1.0000 0.38537  0.53426  0.40000  Biso   1.000  C
  H50      1.0000 0.35626  0.40245  0.47987  Biso   1.000  H
  H51      1.0000 0.41929  0.37887  0.41919  Biso   1.000  H
  S6       1.0000 0.28793  0.37311  0.34331  Biso   1.000  S
  C59      1.0000 0.28110  0.25479  0.38719  Biso   1.000  C
  H52      1.0000 0.33492  0.34389  0.31027  Biso   1.000  H
  H53      1.0000 0.24716  0.35016  0.34588  Biso   1.000  H
  C60      1.0000 0.35362  0.36016  0.42777  Biso   1.000  C
  H54      1.0000 0.41702  0.59550  0.44291  Biso   1.000  H
  H55      1.0000 0.31852  0.51919  0.38480  Biso   1.000  H
  C61      1.0000 0.43098  0.54947  0.32572  Biso   1.000  C
  C62      1.0000 0.34480  0.50038  0.35477  Biso   1.000  C
  C63      1.0000 0.23295  0.23652  0.45186  Biso   1.000  C
  C64      1.0000 0.30820  0.19019  0.34680  Biso   1.000  C
  C65      1.0000 0.22698  0.22137  0.46927  Biso   1.000  C
  C66      1.0000 0.33460  0.19766  0.38750  Biso   1.000  C
  C67      1.0000 0.30573  0.25829  0.43249  Biso   1.000  C
  C68      1.0000 0.38143  0.52091  0.24610  Biso   1.000  C
  C69      1.0000 0.52944  0.59549  0.34092  Biso   1.000  C
  C70      1.0000 0.50469  0.57667  0.32400  Biso   1.000  C
  C71      1.0000 0.40792  0.53070  0.29378  Biso   1.000  C
  H56      1.0000 0.38278  0.53348  0.41079  Biso   1.000  H
  H57      1.0000 0.29552  0.52037  0.34858  Biso   1.000  H
  C72      1.0000 0.21200  0.15363  0.47607  Biso   1.000  C
  H58      1.0000 0.21448  0.28067  0.47950  Biso   1.000  H
  C73      1.0000 0.17719  0.12385  0.46111  Biso   1.000  C
  H59      1.0000 0.20716  0.26274  0.49997  Biso   1.000  H
  C74      1.0000 0.28717  0.10737  0.37101  Biso   1.000  C
  H60      1.0000 0.34111  0.20257  0.30261  Biso   1.000  H
  C75      1.0000 0.28483  0.10019  0.37929  Biso   1.000  C
  H61      1.0000 0.38837  0.22284  0.36237  Biso   1.000  H
  H62      1.0000 0.31420  0.48934  0.23568  Biso   1.000  H
  C76      1.0000 0.43019  0.53840  0.18180  Biso   1.000  C
  H63      1.0000 0.30871  0.48387  0.19069  Biso   1.000  H
  C77      1.0000 0.57821  0.61301  0.27650  Biso   1.000  C
  H64      1.0000 0.56332  0.61495  0.39528  Biso   1.000  H
  C78      1.0000 0.56851  0.60750  0.27172  Biso   1.000  C
  H65      1.0000 0.52729  0.58714  0.38027  Biso   1.000  H
  C79      1.0000 0.37487  0.51536  0.21128  Biso   1.000  C
  C80      1.0000 0.23912  0.08908  0.43562  Biso   1.000  C
  H66      1.0000 0.17910  0.14125  0.52026  Biso   1.000  H
  C81      1.0000 0.20602  0.06327  0.41606  Biso   1.000  C
  H67      1.0000 0.12329  0.09865  0.48618  Biso   1.000  H
  C82      1.0000 0.31069  0.03585  0.32572  Biso   1.000  C
  C83      1.0000 0.38411  0.51047  0.09317  Biso   1.000  C
  C84      1.0000 0.52866  0.58441  0.19700  Biso   1.000  C
  C85      1.0000 0.53541  0.59218  0.18928  Biso   1.000  C
  C86      1.0000 0.68451  0.66298  0.29519  Biso   1.000  C
  C87      1.0000 0.67282  0.65725  0.30580  Biso   1.000  C
  C88      1.0000 0.43865  0.54609  0.15912  Biso   1.000  C
  H68      1.0000 0.22476  0.03241  0.45217  Biso   1.000  H
  H69      1.0000 0.17204  0.99665  0.41049  Biso   1.000  H
  N7       1.0000 0.37057  0.06373  0.27368  Biso   1.000  N
  C89      1.0000 0.27744  0.93857  0.32130  Biso   1.000  C
  S7       1.0000 0.37566  0.40872  0.01716  Biso   1.000  S
  H70      1.0000 0.31862  0.50027  0.09311  Biso   1.000  H
  H71      1.0000 0.41740  0.56701  0.07190  Biso   1.000  H
  H72      1.0000 0.33629  0.52941  0.06810  Biso   1.000  H
  H73      1.0000 0.56203  0.59630  0.15299  Biso   1.000  H
  H74      1.0000 0.57903  0.61320  0.15360  Biso   1.000  H
  S8       1.0000 0.72436  0.58078  0.31873  Biso   1.000  S
  H75      1.0000 0.70981  0.68478  0.24738  Biso   1.000  H
  H76      1.0000 0.70793  0.71945  0.34257  Biso   1.000  H
  H77      1.0000 0.70642  0.69616  0.26902  Biso   1.000  H
  H78      1.0000 0.68449  0.70157  0.35980  Biso   1.000  H
  C90      1.0000 0.39672  0.52658  0.07147  Biso   1.000  C
  N8       1.0000 0.37464  0.98376  0.23745  Biso   1.000  N
  C91      1.0000 0.31904  0.90685  0.26461  Biso   1.000  C
  H79      1.0000 0.23437  0.90239  0.35189  Biso   1.000  H
  C92      1.0000 0.28421  0.32157  0.05768  Biso   1.000  C
  C93      1.0000 0.69678  0.50876  0.21649  Biso   1.000  C
  H80      1.0000 0.44060  0.57509  0.04640  Biso   1.000  H
  C94      1.0000 0.43117  0.98178  0.17542  Biso   1.000  C
  H81      1.0000 0.31110  0.84406  0.24738  Biso   1.000  H
  C95      1.0000 0.25839  0.22408  0.00772  Biso   1.000  C
  H82      1.0000 0.22783  0.33150  0.05529  Biso   1.000  H
  H83      1.0000 0.30770  0.32907  0.11572  Biso   1.000  H
  C96      1.0000 0.73662  0.44036  0.21569  Biso   1.000  C
  H84      1.0000 0.72491  0.54938  0.17922  Biso   1.000  H
  H85      1.0000 0.62734  0.47277  0.19761  Biso   1.000  H
  N9       1.0000 0.52881  0.05430  0.20270  Biso   1.000  N
  N10      1.0000 0.39119  0.98661  0.09844  Biso   1.000  N
  H86      1.0000 0.43068  0.91891  0.16519  Biso   1.000  H
  C97      1.0000 0.30108  0.17208  0.03242  Biso   1.000  C
  C98      1.0000 0.19270  0.18211  0.93423  Biso   1.000  C
  C99      1.0000 0.83250  0.47157  0.21336  Biso   1.000  C
  C100     1.0000 0.67960  0.34736  0.21882  Biso   1.000  C
  N11      1.0000 0.56248  0.14117  0.18731  Biso   1.000  N
  C101     1.0000 0.59687  0.04414  0.24628  Biso   1.000  C
  N12      1.0000 0.35029  0.04277  0.09470  Biso   1.000  N
  C102     1.0000 0.39467  0.94143  0.02299  Biso   1.000  C
  H87      1.0000 0.34652  0.19987  0.08183  Biso   1.000  H
  C103     1.0000 0.27900  0.08232  0.98707  Biso   1.000  C
  C104     1.0000 0.17027  0.09259  0.88924  Biso   1.000  C
  H88      1.0000 0.16361  0.21589  0.91548  Biso   1.000  H
  C105     1.0000 0.86899  0.40887  0.21300  Biso   1.000  C
  H89      1.0000 0.87240  0.53528  0.21208  Biso   1.000  H
  C106     1.0000 0.71579  0.28427  0.21851  Biso   1.000  C
  H90      1.0000 0.61457  0.32644  0.22127  Biso   1.000  H
  C107     1.0000 0.65431  0.18645  0.22207  Biso   1.000  C
  C108     1.0000 0.67874  0.12799  0.25878  Biso   1.000  C
  H91      1.0000 0.58894  0.98991  0.26430  Biso   1.000  H
  C109     1.0000 0.32662  0.03119  0.01508  Biso   1.000  C
  C110     1.0000 0.35206  0.96799  0.96727  Biso   1.000  C
  H92      1.0000 0.42127  0.89969  0.01122  Biso   1.000  H
  C111     1.0000 0.21262  0.04243  0.91499  Biso   1.000  C
  H93      1.0000 0.12500  0.06451  0.83978  Biso   1.000  H
  C112     1.0000 0.81069  0.31557  0.21582  Biso   1.000  C
  H94      1.0000 0.93400  0.42969  0.21091  Biso   1.000  H
  H95      1.0000 0.73948  0.14355  0.28649  Biso   1.000  H
  H96      1.0000 0.34219  0.94822  0.90916  Biso   1.000  H
  H97      1.0000 0.19600  0.98033  0.88305  Biso   1.000  H
  H98      1.0000 0.83632  0.27315  0.21588  Biso   1.000  H
  S9       1.0000 0.82141  0.52198  0.51726  Biso   1.000  S
  C113     1.0000 0.81490  0.43244  0.42936  Biso   1.000  C
  C114     1.0000 0.89423  0.50823  0.59388  Biso   1.000  C
  C115     1.0000 0.77418  0.33394  0.44132  Biso   1.000  C
  H99      1.0000 0.77583  0.43145  0.38100  Biso   1.000  H
  H100     1.0000 0.87940  0.45132  0.41747  Biso   1.000  H
  C116     1.0000 0.90858  0.57082  0.67797  Biso   1.000  C
  H101     1.0000 0.86420  0.44084  0.59596  Biso   1.000  H
  H102     1.0000 0.95664  0.52425  0.57800  Biso   1.000  H
  C117     1.0000 0.67808  0.28108  0.43801  Biso   1.000  C
  C118     1.0000 0.83310  0.29523  0.45676  Biso   1.000  C
  C119     1.0000 0.95183  0.66835  0.69091  Biso   1.000  C
  C120     1.0000 0.88440  0.53186  0.74380  Biso   1.000  C
  C121     1.0000 0.63937  0.18914  0.45008  Biso   1.000  C
  H103     1.0000 0.63752  0.30719  0.42728  Biso   1.000  H
  C122     1.0000 0.79659  0.20462  0.47117  Biso   1.000  C
  H104     1.0000 0.89898  0.33075  0.45756  Biso   1.000  H
  C123     1.0000 0.97236  0.72700  0.76948  Biso   1.000  C
  H105     1.0000 0.96760  0.69564  0.64598  Biso   1.000  H
  C124     1.0000 0.90562  0.58883  0.82275  Biso   1.000  C
  H106     1.0000 0.85262  0.46454  0.73455  Biso   1.000  H
  C125     1.0000 0.53402  0.12786  0.43739  Biso   1.000  C
  C126     1.0000 0.70007  0.15365  0.46890  Biso   1.000  C
  C127     1.0000 0.85754  0.15838  0.48471  Biso   1.000  C
  C128     1.0000 0.94929  0.68719  0.83525  Biso   1.000  C
  H107     1.0000 0.00225  0.79422  0.77819  Biso   1.000  H
  C129     1.0000 0.89078  0.54660  0.89367  Biso   1.000  C
  S10      1.0000 0.48776  0.09610  0.52719  Biso   1.000  S
  H108     1.0000 0.51578  0.06847  0.39467  Biso   1.000  H
  H109     1.0000 0.50307  0.16166  0.41619  Biso   1.000  H
  H110     1.0000 0.67489  0.09317  0.48036  Biso   1.000  H
  S11      1.0000 0.98344  0.22921  0.49397  Biso   1.000  S
  H111     1.0000 0.83582  0.10096  0.43850  Biso   1.000  H
  H112     1.0000 0.84569  0.13635  0.53516  Biso   1.000  H
  H113     1.0000 0.96332  0.72734  0.88888  Biso   1.000  H
  N13      1.0000 0.83566  0.45358  0.88245  Biso   1.000  N
  C130     1.0000 0.93379  0.59258  0.97604  Biso   1.000  C
  C131     1.0000 0.48897  0.20464  0.57978  Biso   1.000  C
  C132     1.0000 0.01257  0.30473  0.59639  Biso   1.000  C
  N14      1.0000 0.84610  0.44031  0.95815  Biso   1.000  N
  C133     1.0000 0.90538  0.52270  0.01570  Biso   1.000  C
  H114     1.0000 0.97437  0.65878  0.99927  Biso   1.000  H
  C134     1.0000 0.45515  0.19059  0.65836  Biso   1.000  C
  H115     1.0000 0.55390  0.25887  0.59100  Biso   1.000  H
  H116     1.0000 0.44681  0.21854  0.54558  Biso   1.000  H
  H117     1.0000 0.96922  0.33261  0.60148  Biso   1.000  H
  C135     1.0000 0.00612  0.25400  0.66265  Biso   1.000  C
  H118     1.0000 0.07768  0.35771  0.60509  Biso   1.000  H
  C136     1.0000 0.79918  0.34772  0.97329  Biso   1.000  C
  H119     1.0000 0.92329  0.52978  0.07234  Biso   1.000  H
  C137     1.0000 0.35818  0.14543  0.66118  Biso   1.000  C
  C138     1.0000 0.51957  0.22142  0.73026  Biso   1.000  C
  C139     1.0000 0.95770  0.26313  0.72560  Biso   1.000  C
  C140     1.0000 0.05046  0.19704  0.66148  Biso   1.000  C
  N15      1.0000 0.69754  0.30366  0.95275  Biso   1.000  N
  N16      1.0000 0.83428  0.28408  0.93424  Biso   1.000  N
  H120     1.0000 0.81523  0.35760  0.03372  Biso   1.000  H
  C141     1.0000 0.32849  0.13386  0.73430  Biso   1.000  C
  H121     1.0000 0.31280  0.12275  0.61226  Biso   1.000  H
  C142     1.0000 0.49019  0.21021  0.80436  Biso   1.000  C
  H122     1.0000 0.58538  0.25086  0.72891  Biso   1.000  H
  C143     1.0000 0.95261  0.21613  0.78738  Biso   1.000  C
  H123     1.0000 0.92750  0.30169  0.72688  Biso   1.000  H
  C144     1.0000 0.04668  0.15114  0.72167  Biso   1.000  C
  H124     1.0000 0.08354  0.19010  0.61846  Biso   1.000  H
  N17      1.0000 0.65150  0.27063  0.87405  Biso   1.000  N
  C145     1.0000 0.63808  0.29878  0.00669  Biso   1.000  C
  N18      1.0000 0.88007  0.29710  0.86994  Biso   1.000  N
  C146     1.0000 0.82729  0.20689  0.95839  Biso   1.000  C
  C147     1.0000 0.39347  0.16733  0.80675  Biso   1.000  C
  H125     1.0000 0.26266  0.10252  0.73528  Biso   1.000  H
  C148     1.0000 0.56104  0.24547  0.87975  Biso   1.000  C
  C149     1.0000 0.90142  0.22563  0.85425  Biso   1.000  C
  C150     1.0000 0.99668  0.15952  0.78395  Biso   1.000  C
  H126     1.0000 0.07796  0.11362  0.72088  Biso   1.000  H
  C151     1.0000 0.54950  0.26141  0.96219  Biso   1.000  C
  H127     1.0000 0.65507  0.31779  0.06480  Biso   1.000  H
  C152     1.0000 0.86949  0.16797  0.90789  Biso   1.000  C
  H128     1.0000 0.79847  0.18456  0.00222  Biso   1.000  H
  H129     1.0000 0.37237  0.16099  0.85726  Biso   1.000  H
  H130     1.0000 0.99280  0.12599  0.82465  Biso   1.000  H
  H131     1.0000 0.49235  0.24891  0.98217  Biso   1.000  H
  H132     1.0000 0.87578  0.11297  0.90887  Biso   1.000  H
  C153     1.0000 0.51099  0.79527  0.42017  Biso   1.000  C
  S12      1.0000 0.51220  0.90380  0.47276  Biso   1.000  S
  C154     1.0000 0.54477  0.80925  0.34159  Biso   1.000  C
  H133     1.0000 0.44613  0.74106  0.40901  Biso   1.000  H
  H134     1.0000 0.55321  0.78137  0.45437  Biso   1.000  H
  C155     1.0000 0.46600  0.87204  0.56256  Biso   1.000  C
  C156     1.0000 0.48039  0.77849  0.26969  Biso   1.000  C
  C157     1.0000 0.64184  0.85447  0.33877  Biso   1.000  C
  C158     1.0000 0.36058  0.81076  0.54987  Biso   1.000  C
  H135     1.0000 0.48418  0.93143  0.60528  Biso   1.000  H
  H136     1.0000 0.49688  0.83825  0.58376  Biso   1.000  H
  C159     1.0000 0.50983  0.78970  0.19559  Biso   1.000  C
  H137     1.0000 0.41459  0.74906  0.27110  Biso   1.000  H
  C160     1.0000 0.67154  0.86607  0.26571  Biso   1.000  C
  H138     1.0000 0.68722  0.87716  0.38768  Biso   1.000  H
  C161     1.0000 0.32189  0.71885  0.56200  Biso   1.000  C
  C162     1.0000 0.29990  0.84627  0.53111  Biso   1.000  C
  C163     1.0000 0.43888  0.75437  0.12020  Biso   1.000  C
  C164     1.0000 0.60649  0.83257  0.19320  Biso   1.000  C
  H139     1.0000 0.73730  0.89739  0.26467  Biso   1.000  H
  C165     1.0000 0.22576  0.66592  0.55869  Biso   1.000  C
  H140     1.0000 0.36249  0.69272  0.57267  Biso   1.000  H
  C166     1.0000 0.20340  0.79522  0.52878  Biso   1.000  C
  H141     1.0000 0.32507  0.90673  0.51959  Biso   1.000  H
  N19      1.0000 0.34852  0.72927  0.12590  Biso   1.000  N
  C167     1.0000 0.45054  0.73851  0.03782  Biso   1.000  C
  H142     1.0000 0.62765  0.83891  0.14269  Biso   1.000  H
  C168     1.0000 0.18512  0.56746  0.57059  Biso   1.000  C
  C169     1.0000 0.16692  0.70468  0.54319  Biso   1.000  C
  C170     1.0000 0.14250  0.84154  0.51530  Biso   1.000  C
  N20      1.0000 0.30239  0.69617  0.04720  Biso   1.000  N
  C171     1.0000 0.36194  0.70112  0.99326  Biso   1.000  C
  H143     1.0000 0.50761  0.75100  0.01778  Biso   1.000  H
  S13      1.0000 0.17862  0.47794  0.48275  Biso   1.000  S
  H144     1.0000 0.22420  0.56847  0.61901  Biso   1.000  H
  H145     1.0000 0.12059  0.54851  0.58248  Biso   1.000  H
  H146     1.0000 0.10097  0.66915  0.54239  Biso   1.000  H
  S14      1.0000 0.01657  0.77069  0.50598  Biso   1.000  S
  H147     1.0000 0.16420  0.89894  0.56145  Biso   1.000  H
  H148     1.0000 0.15427  0.86356  0.46479  Biso   1.000  H
  C172     1.0000 0.20079  0.65220  0.02672  Biso   1.000  C
  H149     1.0000 0.34489  0.68211  0.93515  Biso   1.000  H
  C173     1.0000 0.10579  0.49167  0.40607  Biso   1.000  C
  C174     1.0000 0.98745  0.69518  0.40356  Biso   1.000  C
  N21      1.0000 0.15392  0.55960  0.04180  Biso   1.000  N
  N22      1.0000 0.16574  0.71582  0.06571  Biso   1.000  N
  H150     1.0000 0.18480  0.64232  0.96629  Biso   1.000  H
  C175     1.0000 0.09138  0.42908  0.32198  Biso   1.000  C
  H151     1.0000 0.13582  0.55906  0.40399  Biso   1.000  H
  H152     1.0000 0.04340  0.47567  0.42201  Biso   1.000  H
  C176     1.0000 0.99383  0.74591  0.33730  Biso   1.000  C
  H153     1.0000 0.03080  0.66729  0.39847  Biso   1.000  H
  H154     1.0000 0.92232  0.64214  0.39492  Biso   1.000  H
  N23      1.0000 0.16430  0.54633  0.11750  Biso   1.000  N
  C177     1.0000 0.09457  0.47720  0.98425  Biso   1.000  C
  N24      1.0000 0.11989  0.70280  0.13000  Biso   1.000  N
  C178     1.0000 0.17274  0.79304  0.04162  Biso   1.000  C
  C179     1.0000 0.04820  0.33157  0.30911  Biso   1.000  C
  C180     1.0000 0.11557  0.46806  0.25621  Biso   1.000  C
  C181     1.0000 0.04234  0.73680  0.27441  Biso   1.000  C
  C182     1.0000 0.94950  0.80286  0.33847  Biso   1.000  C
  C183     1.0000 0.10918  0.45331  0.10628  Biso   1.000  C
  C184     1.0000 0.06623  0.40733  0.02390  Biso   1.000  C
  H155     1.0000 0.07668  0.47014  0.92767  Biso   1.000  H
  C185     1.0000 0.09860  0.77428  0.14570  Biso   1.000  C
  C186     1.0000 0.13051  0.83189  0.09212  Biso   1.000  C
  H156     1.0000 0.20145  0.81528  0.99773  Biso   1.000  H
  C187     1.0000 0.02759  0.27290  0.23047  Biso   1.000  C
  H157     1.0000 0.03242  0.30427  0.35397  Biso   1.000  H
  C188     1.0000 0.09440  0.41107  0.17720  Biso   1.000  C
  H158     1.0000 0.14740  0.53537  0.26540  Biso   1.000  H
  C189     1.0000 0.04741  0.78378  0.21257  Biso   1.000  C
  H159     1.0000 0.07249  0.69815  0.27306  Biso   1.000  H
  C190     1.0000 0.95334  0.84877  0.27827  Biso   1.000  C
  H160     1.0000 0.91642  0.80980  0.38149  Biso   1.000  H
  H161     1.0000 0.02559  0.34113  0.00067  Biso   1.000  H
  H162     1.0000 0.12420  0.88687  0.09108  Biso   1.000  H
  C191     1.0000 0.05073  0.31271  0.16470  Biso   1.000  C
  H163     1.0000 0.99772  0.20570  0.22182  Biso   1.000  H
  C192     1.0000 0.00334  0.84039  0.21600  Biso   1.000  C
  H164     1.0000 0.92200  0.88628  0.27907  Biso   1.000  H
  H165     1.0000 0.03672  0.27259  0.11113  Biso   1.000  H
  H166     1.0000 0.00722  0.87391  0.17530  Biso   1.000  H
  Ne1      1.0000 0.42688  0.30144  0.24143  Biso   1.000  Ne
  He1      1.0000 0.50850  0.37965  0.29923  Biso   1.000  He
  He2      1.0000 0.37535  0.27713  0.20822  Biso   1.000  He
  He3      1.0000 0.46355  0.35442  0.16343  Biso   1.000  He
  Ar1      1.0000 0.48776  0.37227  0.25841  Biso   1.000  Ar
  Ne2      1.0000 0.22407  0.68463  0.29126  Biso   1.000  Ne
  He4      1.0000 0.27460  0.79352  0.32263  Biso   1.000  He
  He5      1.0000 0.32490  0.60313  0.30878  Biso   1.000  He
  He6      1.0000 0.05113  0.57255  0.19990  Biso   1.000  He
  Ar2      1.0000 0.26332  0.76470  0.32576  Biso   1.000  Ar
  Ne3      1.0000 0.77592  0.31527  0.70871  Biso   1.000  Ne
  He7      1.0000 0.95467  0.41964  0.69294  Biso   1.000  He
  He8      1.0000 0.72406  0.32676  0.63575  Biso   1.000  He
  He9      1.0000 0.72256  0.19982  0.67798  Biso   1.000  He
  Ar3      1.0000 0.73674  0.23535  0.67470  Biso   1.000  Ar
  Ne4      1.0000 0.57311  0.69847  0.75854  Biso   1.000  Ne
  He10     1.0000 0.46303  0.67854  0.95428  Biso   1.000  He
  He11     1.0000 0.61216  0.71632  0.78948  Biso   1.000  He
  He12     1.0000 0.44019  0.61600  0.64881  Biso   1.000  He
  Ar4      1.0000 0.50947  0.62612  0.73616  Biso   1.000  Ar
