data_image0
_cell_length_a       14.982
_cell_length_b       16.949
_cell_length_c       17.62
_cell_angle_alpha    96.53
_cell_angle_beta     101.58
_cell_angle_gamma    113.2

_symmetry_space_group_name_H-M    "P 1"
_symmetry_int_tables_number       1

loop_
  _symmetry_equiv_pos_as_xyz
  'x, y, z'

loop_
  _atom_site_label
  _atom_site_occupancy
  _atom_site_fract_x
  _atom_site_fract_y
  _atom_site_fract_z
  _atom_site_thermal_displace_type
  _atom_site_B_iso_or_equiv
  _atom_site_type_symbol
  C1       1.0000 0.62705  0.57686  0.47607  Biso   1.000  C
  C2       1.0000 0.57143  0.54367  0.41030  Biso   1.000  C
  C3       1.0000 0.69018  0.61659  0.55507  Biso   1.000  C
  I1       1.0000 0.47924  0.48788  0.30152  Biso   1.000  I
  C4       1.0000 0.69277  0.69319  0.59706  Biso   1.000  C
  C5       1.0000 0.74885  0.57760  0.59391  Biso   1.000  C
  O1       1.0000 0.64194  0.73446  0.55459  Biso   1.000  O
  C6       1.0000 0.74981  0.72985  0.67529  Biso   1.000  C
  O2       1.0000 0.75114  0.50617  0.54961  Biso   1.000  O
  C7       1.0000 0.80713  0.61335  0.67208  Biso   1.000  C
  C8       1.0000 0.54673  0.72239  0.56539  Biso   1.000  C
  C9       1.0000 0.80467  0.68899  0.71140  Biso   1.000  C
  C10      1.0000 0.74543  0.81017  0.72000  Biso   1.000  C
  C11      1.0000 0.69065  0.42154  0.56058  Biso   1.000  C
  C12      1.0000 0.86557  0.56740  0.71431  Biso   1.000  C
  O3       1.0000 0.55345  0.78708  0.62808  Biso   1.000  O
  H1       1.0000 0.51346  0.66359  0.57701  Biso   1.000  H
  H2       1.0000 0.50396  0.72424  0.51557  Biso   1.000  H
  H3       1.0000 0.84233  0.71306  0.76526  Biso   1.000  H
  C13      1.0000 0.65249  0.77914  0.75019  Biso   1.000  C
  H4       1.0000 0.73537  0.84566  0.68021  Biso   1.000  H
  C14      1.0000 0.84389  0.87017  0.78376  Biso   1.000  C
  O4       1.0000 0.74251  0.39464  0.62037  Biso   1.000  O
  H5       1.0000 0.63026  0.42255  0.57458  Biso   1.000  H
  H6       1.0000 0.66749  0.37818  0.51011  Biso   1.000  H
  H7       1.0000 0.88506  0.53726  0.67279  Biso   1.000  H
  C15      1.0000 0.96361  0.62953  0.77706  Biso   1.000  C
  C16      1.0000 0.79346  0.49598  0.74527  Biso   1.000  C
  C17      1.0000 0.55990  0.76548  0.70156  Biso   1.000  C
  C18      1.0000 0.65319  0.75903  0.82587  Biso   1.000  C
  H8       1.0000 0.85940  0.83527  0.82148  Biso   1.000  H
  H9       1.0000 0.89942  0.89065  0.75808  Biso   1.000  H
  C19      1.0000 0.84040  0.95006  0.83020  Biso   1.000  C
  C20      1.0000 0.73246  0.41386  0.69676  Biso   1.000  C
  H10      1.0000 0.99204  0.59406  0.80559  Biso   1.000  H
  H11      1.0000 0.94786  0.66526  0.81620  Biso   1.000  H
  C21      1.0000 0.04381  0.69176  0.74230  Biso   1.000  C
  C22      1.0000 0.78071  0.51095  0.82219  Biso   1.000  C
  C23      1.0000 0.47115  0.73287  0.72617  Biso   1.000  C
  C24      1.0000 0.56754  0.72767  0.85280  Biso   1.000  C
  H12      1.0000 0.71550  0.76757  0.85997  Biso   1.000  H
  H13      1.0000 0.81130  0.97837  0.79260  Biso   1.000  H
  H14      1.0000 0.79589  0.93064  0.86549  Biso   1.000  H
  C25      1.0000 0.94438  0.01668  0.87966  Biso   1.000  C
  C26      1.0000 0.66090  0.34685  0.72060  Biso   1.000  C
  H15      1.0000 0.06909  0.65684  0.71117  Biso   1.000  H
  H16      1.0000 0.01174  0.71884  0.70547  Biso   1.000  H
  C27      1.0000 0.13301  0.76457  0.80541  Biso   1.000  C
  C28      1.0000 0.71070  0.44613  0.84930  Biso   1.000  C
  H17      1.0000 0.82125  0.56697  0.85647  Biso   1.000  H
  C29      1.0000 0.47509  0.71305  0.80090  Biso   1.000  C
  C30      1.0000 0.37704  0.72096  0.67487  Biso   1.000  C
  C31      1.0000 0.56960  0.70488  0.93340  Biso   1.000  C
  H18      1.0000 0.97922  0.98548  0.90831  Biso   1.000  H
  H19      1.0000 0.98407  0.04498  0.84366  Biso   1.000  H
  C32      1.0000 0.94300  0.08762  0.93951  Biso   1.000  C
  C33      1.0000 0.65197  0.36458  0.79829  Biso   1.000  C
  C34      1.0000 0.59592  0.26436  0.66781  Biso   1.000  C
  H20      1.0000 0.18123  0.80094  0.77848  Biso   1.000  H
  H21      1.0000 0.10809  0.80276  0.83245  Biso   1.000  H
  C35      1.0000 0.18940  0.73396  0.86768  Biso   1.000  C
  C36      1.0000 0.69200  0.46257  0.93019  Biso   1.000  C
  O5       1.0000 0.38850  0.68432  0.82540  Biso   1.000  O
  C37      1.0000 0.30060  0.71224  0.63247  Biso   1.000  C
  C38      1.0000 0.54943  0.60783  0.92260  Biso   1.000  C
  H22      1.0000 0.51059  0.70934  0.94840  Biso   1.000  H
  C39      1.0000 0.66349  0.76756  0.99929  Biso   1.000  C
  H23      1.0000 0.90702  0.05990  0.97770  Biso   1.000  H
  H24      1.0000 0.90497  0.11691  0.91145  Biso   1.000  H
  C40      1.0000 0.04887  0.15720  0.98547  Biso   1.000  C
  O6       1.0000 0.58466  0.29657  0.82279  Biso   1.000  O
  C41      1.0000 0.53996  0.19757  0.62440  Biso   1.000  C
  H25      1.0000 0.14221  0.69998  0.89651  Biso   1.000  H
  H26      1.0000 0.21202  0.69364  0.84058  Biso   1.000  H
  C42      1.0000 0.27991  0.80678  0.92729  Biso   1.000  C
  H27      1.0000 0.66584  0.40436  0.94567  Biso   1.000  H
  C43      1.0000 0.78683  0.52436  0.99668  Biso   1.000  C
  C44      1.0000 0.60750  0.49192  0.91999  Biso   1.000  C
  C45      1.0000 0.33915  0.59206  0.82018  Biso   1.000  C
  I2       1.0000 0.17077  0.69300  0.55679  Biso   1.000  I
  C46      1.0000 0.44929  0.54352  0.89775  Biso   1.000  C
  C47      1.0000 0.62631  0.58066  0.93227  Biso   1.000  C
  H28      1.0000 0.72418  0.76765  0.98505  Biso   1.000  H
  H29      1.0000 0.66082  0.74635  0.04923  Biso   1.000  H
  C48      1.0000 0.67201  0.86083  0.01228  Biso   1.000  C
  H30      1.0000 0.08373  0.18723  0.94781  Biso   1.000  H
  H31      1.0000 0.08826  0.12779  0.01139  Biso   1.000  H
  C49      1.0000 0.04639  0.22491  0.04792  Biso   1.000  C
  C50      1.0000 0.48821  0.29612  0.81686  Biso   1.000  C
  I3       1.0000 0.44084  0.08603  0.54659  Biso   1.000  I
  H32      1.0000 0.32593  0.84213  0.89829  Biso   1.000  H
  H33      1.0000 0.25692  0.84574  0.95570  Biso   1.000  H
  C51      1.0000 0.33831  0.77593  0.98749  Biso   1.000  C
  H34      1.0000 0.82102  0.57984  0.97995  Biso   1.000  H
  H35      1.0000 0.76682  0.53860  0.04478  Biso   1.000  H
  C52      1.0000 0.85945  0.48335  0.01643  Biso   1.000  C
  C53      1.0000 0.50762  0.43031  0.89597  Biso   1.000  C
  O7       1.0000 0.37003  0.56672  0.89141  Biso   1.000  O
  H36      1.0000 0.26544  0.57354  0.80731  Biso   1.000  H
  H37      1.0000 0.35332  0.56107  0.77641  Biso   1.000  H
  C54      1.0000 0.42780  0.45435  0.88287  Biso   1.000  C
  H38      1.0000 0.69420  0.62386  0.94799  Biso   1.000  H
  H39      1.0000 0.68441  0.88393  0.96436  Biso   1.000  H
  H40      1.0000 0.60612  0.85812  0.01678  Biso   1.000  H
  C55      1.0000 0.75280  0.92625  0.08398  Biso   1.000  C
  H41      1.0000 0.11540  0.26779  0.07550  Biso   1.000  H
  H42      1.0000 0.01327  0.19556  0.08600  Biso   1.000  H
  H43      1.0000 0.00876  0.25506  0.02242  Biso   1.000  H
  O8       1.0000 0.48317  0.34091  0.88767  Biso   1.000  O
  H44      1.0000 0.47241  0.32408  0.77291  Biso   1.000  H
  H45      1.0000 0.43640  0.23456  0.80410  Biso   1.000  H
  H46      1.0000 0.36312  0.73852  0.96020  Biso   1.000  H
  H47      1.0000 0.39560  0.82702  0.02372  Biso   1.000  H
  H48      1.0000 0.29422  0.74242  0.01779  Biso   1.000  H
  H49      1.0000 0.89020  0.48077  0.97201  Biso   1.000  H
  H50      1.0000 0.82122  0.42223  0.02129  Biso   1.000  H
  C56      1.0000 0.94306  0.53299  0.09282  Biso   1.000  C
  C57      1.0000 0.32523  0.38827  0.85191  Biso   1.000  C
  H51      1.0000 0.81757  0.92321  0.08499  Biso   1.000  H
  H52      1.0000 0.76144  0.98644  0.07959  Biso   1.000  H
  C58      1.0000 0.72639  0.90833  0.15972  Biso   1.000  C
  H53      1.0000 0.91172  0.53624  0.13682  Biso   1.000  H
  H54      1.0000 0.98270  0.49882  0.10438  Biso   1.000  H
  C59      1.0000 0.01426  0.62498  0.09151  Biso   1.000  C
  C60      1.0000 0.24184  0.33543  0.82290  Biso   1.000  C
  H55      1.0000 0.72320  0.84979  0.16511  Biso   1.000  H
  H56      1.0000 0.65790  0.90484  0.15527  Biso   1.000  H
  C61      1.0000 0.79858  0.97581  0.23717  Biso   1.000  C
  H57      1.0000 0.71928  0.84941  0.16761  Biso   1.000  H
  H58      1.0000 0.66442  0.91472  0.16310  Biso   1.000  H
  C62      1.0000 0.82296  0.98401  0.21897  Biso   1.000  C
  H59      1.0000 0.97810  0.66291  0.09039  Biso   1.000  H
  H60      1.0000 0.03690  0.62393  0.04241  Biso   1.000  H
  C63      1.0000 0.10650  0.66463  0.16339  Biso   1.000  C
  I4       1.0000 0.09874  0.24595  0.76935  Biso   1.000  I
  H61      1.0000 0.86785  0.98110  0.24269  Biso   1.000  H
  C64      1.0000 0.76195  0.94468  0.31101  Biso   1.000  C
  C65      1.0000 0.79397  0.96398  0.29797  Biso   1.000  C
  H62      1.0000 0.79960  0.03418  0.23480  Biso   1.000  H
  H63      1.0000 0.83081  0.04298  0.21102  Biso   1.000  H
  H64      1.0000 0.88561  0.97750  0.21588  Biso   1.000  H
  H65      1.0000 0.08357  0.66797  0.21209  Biso   1.000  H
  H66      1.0000 0.14009  0.62463  0.16577  Biso   1.000  H
  C66      1.0000 0.18277  0.75498  0.16268  Biso   1.000  C
  H67      1.0000 0.80718  0.98778  0.35959  Biso   1.000  H
  H68      1.0000 0.76226  0.88753  0.31392  Biso   1.000  H
  H69      1.0000 0.69329  0.93962  0.30538  Biso   1.000  H
  H70      1.0000 0.78351  0.90422  0.30200  Biso   1.000  H
  H71      1.0000 0.73155  0.97072  0.29820  Biso   1.000  H
  H72      1.0000 0.84829  0.00586  0.34381  Biso   1.000  H
  H73      1.0000 0.23937  0.77598  0.21037  Biso   1.000  H
  H74      1.0000 0.15079  0.79563  0.16167  Biso   1.000  H
  H75      1.0000 0.20746  0.75212  0.11547  Biso   1.000  H
  C67      1.0000 0.37281  0.42304  0.52387  Biso   1.000  C
  C68      1.0000 0.30972  0.38337  0.44487  Biso   1.000  C
  C69      1.0000 0.42845  0.45624  0.58970  Biso   1.000  C
  C70      1.0000 0.30719  0.30678  0.40288  Biso   1.000  C
  C71      1.0000 0.25107  0.42237  0.40608  Biso   1.000  C
  I5       1.0000 0.52065  0.51208  0.69842  Biso   1.000  I
  C72      1.0000 0.25008  0.27006  0.32471  Biso   1.000  C
  O9       1.0000 0.35795  0.26545  0.44541  Biso   1.000  O
  C73      1.0000 0.19276  0.38656  0.32792  Biso   1.000  C
  O10      1.0000 0.24877  0.49380  0.45039  Biso   1.000  O
  C74      1.0000 0.25448  0.18981  0.28000  Biso   1.000  C
  C75      1.0000 0.19525  0.31099  0.28859  Biso   1.000  C
  C76      1.0000 0.45319  0.27759  0.43461  Biso   1.000  C
  C77      1.0000 0.13435  0.43258  0.28569  Biso   1.000  C
  C78      1.0000 0.30923  0.57837  0.43942  Biso   1.000  C
  C79      1.0000 0.34739  0.22077  0.24981  Biso   1.000  C
  H76      1.0000 0.26458  0.15425  0.31979  Biso   1.000  H
  C80      1.0000 0.15600  0.12980  0.21618  Biso   1.000  C
  H77      1.0000 0.15757  0.28690  0.23468  Biso   1.000  H
  O11      1.0000 0.44645  0.21289  0.37186  Biso   1.000  O
  H78      1.0000 0.48646  0.33639  0.42299  Biso   1.000  H
  H79      1.0000 0.49591  0.27565  0.48437  Biso   1.000  H
  H80      1.0000 0.11486  0.46271  0.32720  Biso   1.000  H
  C81      1.0000 0.03626  0.37037  0.22288  Biso   1.000  C
  C82      1.0000 0.20644  0.50398  0.25467  Biso   1.000  C
  O12      1.0000 0.25736  0.60526  0.37957  Biso   1.000  O
  H81      1.0000 0.36962  0.57736  0.42542  Biso   1.000  H
  H82      1.0000 0.33243  0.62180  0.48989  Biso   1.000  H
  C83      1.0000 0.43999  0.23448  0.29838  Biso   1.000  C
  C84      1.0000 0.34668  0.24087  0.17407  Biso   1.000  C
  H83      1.0000 0.14051  0.16470  0.17852  Biso   1.000  H
  H84      1.0000 0.10047  0.10926  0.24192  Biso   1.000  H
  C85      1.0000 0.15951  0.04991  0.16980  Biso   1.000  C
  H85      1.0000 0.00787  0.40592  0.19441  Biso   1.000  H
  H86      1.0000 0.05206  0.33471  0.18380  Biso   1.000  H
  C86      1.0000 0.95611  0.30821  0.25770  Biso   1.000  C
  C87      1.0000 0.26750  0.58610  0.30318  Biso   1.000  C
  C88      1.0000 0.21920  0.48902  0.17781  Biso   1.000  C
  C89      1.0000 0.52874  0.26709  0.27377  Biso   1.000  C
  C90      1.0000 0.43237  0.27230  0.14720  Biso   1.000  C
  H87      1.0000 0.28439  0.23239  0.13997  Biso   1.000  H
  H88      1.0000 0.18861  0.02160  0.20740  Biso   1.000  H
  H89      1.0000 0.20400  0.06927  0.13451  Biso   1.000  H
  C91      1.0000 0.05549  0.98322  0.12028  Biso   1.000  C
  H90      1.0000 0.93078  0.34306  0.28877  Biso   1.000  H
  H91      1.0000 0.98819  0.28105  0.29447  Biso   1.000  H
  C92      1.0000 0.86691  0.23540  0.19459  Biso   1.000  C
  C93      1.0000 0.33901  0.65313  0.27940  Biso   1.000  C
  C94      1.0000 0.28918  0.55378  0.15070  Biso   1.000  C
  H92      1.0000 0.17867  0.43300  0.14353  Biso   1.000  H
  C95      1.0000 0.52480  0.28686  0.19910  Biso   1.000  C
  C96      1.0000 0.62286  0.27901  0.32507  Biso   1.000  C
  C97      1.0000 0.43031  0.29510  0.06660  Biso   1.000  C
  H93      1.0000 0.02070  0.01450  0.09169  Biso   1.000  H
  H94      1.0000 0.01580  0.95491  0.15628  Biso   1.000  H
  C98      1.0000 0.05692  0.91235  0.06049  Biso   1.000  C
  H95      1.0000 0.81872  0.19898  0.22152  Biso   1.000  H
  H96      1.0000 0.89181  0.19720  0.16749  Biso   1.000  H
  C99      1.0000 0.81052  0.26601  0.13232  Biso   1.000  C
  C100     1.0000 0.34801  0.63540  0.20171  Biso   1.000  C
  C101     1.0000 0.40399  0.73562  0.33219  Biso   1.000  C
  C102     1.0000 0.30791  0.53741  0.06981  Biso   1.000  C
  O13      1.0000 0.61138  0.31559  0.17460  Biso   1.000  O
  C103     1.0000 0.69927  0.28765  0.36748  Biso   1.000  C
  C104     1.0000 0.45052  0.39208  0.07740  Biso   1.000  C
  H97      1.0000 0.48930  0.29058  0.05160  Biso   1.000  H
  C105     1.0000 0.33643  0.23241  0.00071  Biso   1.000  C
  C106     1.0000 0.95103  0.84276  0.01447  Biso   1.000  C
  H98      1.0000 0.09289  0.94007  0.02230  Biso   1.000  H
  H99      1.0000 0.09492  0.88305  0.08849  Biso   1.000  H
  H100     1.0000 0.85770  0.30000  0.10349  Biso   1.000  H
  H101     1.0000 0.78787  0.30627  0.15942  Biso   1.000  H
  C107     1.0000 0.72001  0.19320  0.07271  Biso   1.000  C
  O14      1.0000 0.41533  0.70341  0.17721  Biso   1.000  O
  C108     1.0000 0.45996  0.80241  0.37560  Biso   1.000  C
  C109     1.0000 0.39239  0.50799  0.08001  Biso   1.000  C
  H102     1.0000 0.33414  0.59562  0.05433  Biso   1.000  H
  C110     1.0000 0.21308  0.47561  0.00332  Biso   1.000  C
  C111     1.0000 0.66083  0.40791  0.17982  Biso   1.000  C
  I6       1.0000 0.82915  0.30697  0.44321  Biso   1.000  I
  C112     1.0000 0.55057  0.45638  0.10219  Biso   1.000  C
  C113     1.0000 0.37358  0.41931  0.06767  Biso   1.000  C
  H103     1.0000 0.27572  0.23231  0.01489  Biso   1.000  H
  H104     1.0000 0.33909  0.25362  0.95077  Biso   1.000  H
  C114     1.0000 0.32788  0.13913  0.98766  Biso   1.000  C
  H105     1.0000 0.91163  0.87218  0.98855  Biso   1.000  H
  C115     1.0000 0.95352  0.77507  0.95208  Biso   1.000  C
  H106     1.0000 0.91625  0.81275  0.05219  Biso   1.000  H
  H107     1.0000 0.67402  0.15778  0.10171  Biso   1.000  H
  H108     1.0000 0.74296  0.15417  0.04430  Biso   1.000  H
  C116     1.0000 0.66158  0.22398  0.01251  Biso   1.000  C
  C117     1.0000 0.51165  0.70377  0.18309  Biso   1.000  C
  I7       1.0000 0.55907  0.91395  0.45341  Biso   1.000  I
  C118     1.0000 0.49233  0.56960  0.10403  Biso   1.000  C
  H109     1.0000 0.17894  0.42012  0.01999  Biso   1.000  H
  H110     1.0000 0.23314  0.46136  0.95516  Biso   1.000  H
  C119     1.0000 0.14046  0.51663  0.98357  Biso   1.000  C
  O15      1.0000 0.62992  0.43319  0.10859  Biso   1.000  O
  H111     1.0000 0.73451  0.42637  0.19269  Biso   1.000  H
  H112     1.0000 0.64660  0.43890  0.22359  Biso   1.000  H
  C120     1.0000 0.57209  0.54561  0.11707  Biso   1.000  C
  H113     1.0000 0.30572  0.37611  0.05201  Biso   1.000  H
  H114     1.0000 0.31548  0.11603  0.03559  Biso   1.000  H
  H115     1.0000 0.39377  0.14185  0.98316  Biso   1.000  H
  C121     1.0000 0.24709  0.07372  0.91596  Biso   1.000  C
  H116     1.0000 0.88452  0.73219  0.92450  Biso   1.000  H
  H117     1.0000 0.98662  0.80435  0.91400  Biso   1.000  H
  H118     1.0000 0.99113  0.74485  0.97758  Biso   1.000  H
  H119     1.0000 0.60432  0.17295  0.97628  Biso   1.000  H
  H120     1.0000 0.70569  0.25755  0.98221  Biso   1.000  H
  H121     1.0000 0.63677  0.26139  0.03980  Biso   1.000  H
  O16      1.0000 0.51669  0.65899  0.11227  Biso   1.000  O
  H122     1.0000 0.52751  0.67589  0.22709  Biso   1.000  H
  H123     1.0000 0.56351  0.76542  0.19590  Biso   1.000  H
  H124     1.0000 0.10971  0.51921  0.02799  Biso   1.000  H
  H125     1.0000 0.17870  0.57774  0.97871  Biso   1.000  H
  C122     1.0000 0.05682  0.46692  0.90718  Biso   1.000  C
  C123     1.0000 0.67468  0.61170  0.14809  Biso   1.000  C
  H126     1.0000 0.18233  0.07675  0.91495  Biso   1.000  H
  H127     1.0000 0.23854  0.01353  0.92041  Biso   1.000  H
  C124     1.0000 0.27353  0.09164  0.84028  Biso   1.000  C
  C125     1.0000 0.98563  0.37493  0.90849  Biso   1.000  C
  H128     1.0000 0.08820  0.46374  0.86318  Biso   1.000  H
  H129     1.0000 0.01720  0.50114  0.89556  Biso   1.000  H
  C126     1.0000 0.75805  0.66448  0.17710  Biso   1.000  C
  H130     1.0000 0.27669  0.15013  0.83489  Biso   1.000  H
  H131     1.0000 0.34199  0.09512  0.84467  Biso   1.000  H
  C127     1.0000 0.20132  0.02415  0.76277  Biso   1.000  C
  H132     1.0000 0.28064  0.15056  0.83239  Biso   1.000  H
  H133     1.0000 0.33550  0.08526  0.83690  Biso   1.000  H
  C128     1.0000 0.17693  0.01595  0.78097  Biso   1.000  C
  H134     1.0000 0.96301  0.37605  0.95759  Biso   1.000  H
  C129     1.0000 0.89341  0.33534  0.83661  Biso   1.000  C
  H135     1.0000 0.02180  0.33705  0.90955  Biso   1.000  H
  I8       1.0000 0.90112  0.75395  0.23059  Biso   1.000  I
  H136     1.0000 0.20032  0.96580  0.76520  Biso   1.000  H
  H137     1.0000 0.16917  0.95700  0.78898  Biso   1.000  H
  H138     1.0000 0.13207  0.01887  0.75731  Biso   1.000  H
  C130     1.0000 0.23794  0.05524  0.68899  Biso   1.000  C
  C131     1.0000 0.20589  0.03591  0.70198  Biso   1.000  C
  H139     1.0000 0.11435  0.02246  0.78406  Biso   1.000  H
  H140     1.0000 0.91629  0.33193  0.78785  Biso   1.000  H
  H141     1.0000 0.85980  0.37533  0.83417  Biso   1.000  H
  C132     1.0000 0.81709  0.24492  0.83726  Biso   1.000  C
  H142     1.0000 0.15162  0.99411  0.65619  Biso   1.000  H
  H143     1.0000 0.19271  0.01213  0.64041  Biso   1.000  H
  H144     1.0000 0.23765  0.11245  0.68608  Biso   1.000  H
  H145     1.0000 0.30661  0.06035  0.69456  Biso   1.000  H
  H146     1.0000 0.21641  0.09576  0.69800  Biso   1.000  H
  H147     1.0000 0.26836  0.02926  0.70180  Biso   1.000  H
  H148     1.0000 0.76050  0.22392  0.78957  Biso   1.000  H
  H149     1.0000 0.84910  0.20434  0.83827  Biso   1.000  H
  H150     1.0000 0.79243  0.24784  0.88447  Biso   1.000  H
