data_image0
_cell_length_a       14.447
_cell_length_b       14.816
_cell_length_c       17.342
_cell_angle_alpha    86.48
_cell_angle_beta     68.31
_cell_angle_gamma    66.25

_symmetry_space_group_name_H-M    "P 1"
_symmetry_int_tables_number       1

loop_
  _symmetry_equiv_pos_as_xyz
  'x, y, z'

loop_
  _atom_site_label
  _atom_site_occupancy
  _atom_site_fract_x
  _atom_site_fract_y
  _atom_site_fract_z
  _atom_site_thermal_displace_type
  _atom_site_B_iso_or_equiv
  _atom_site_type_symbol
  C1       1.0000 0.31590  0.67100  0.31600  Biso   1.000  C
  C2       1.0000 0.26971  0.61661  0.29335  Biso   1.000  C
  C3       1.0000 0.42633  0.64819  0.27538  Biso   1.000  C
  H1       1.0000 0.27190  0.72401  0.35942  Biso   1.000  H
  C4       1.0000 0.33490  0.53873  0.23109  Biso   1.000  C
  H2       1.0000 0.19378  0.63260  0.32042  Biso   1.000  H
  C5       1.0000 0.49230  0.57060  0.21187  Biso   1.000  C
  H3       1.0000 0.45751  0.68602  0.29110  Biso   1.000  H
  C6       1.0000 0.44543  0.51487  0.19091  Biso   1.000  C
  H4       1.0000 0.30339  0.50108  0.21561  Biso   1.000  H
  C7       1.0000 0.61202  0.54512  0.17169  Biso   1.000  C
  H5       1.0000 0.48939  0.46041  0.14892  Biso   1.000  H
  C8       1.0000 0.64999  0.61354  0.13301  Biso   1.000  C
  C9       1.0000 0.68327  0.44243  0.17862  Biso   1.000  C
  C10      1.0000 0.76322  0.60135  0.11648  Biso   1.000  C
  C11      1.0000 0.57849  0.70549  0.10887  Biso   1.000  C
  C12      1.0000 0.77880  0.38682  0.11149  Biso   1.000  C
  C13      1.0000 0.65364  0.39538  0.25036  Biso   1.000  C
  C14      1.0000 0.82742  0.62580  0.04261  Biso   1.000  C
  C15      1.0000 0.80678  0.56923  0.17830  Biso   1.000  C
  C16      1.0000 0.50591  0.70267  0.07430  Biso   1.000  C
  C17      1.0000 0.58362  0.79642  0.11735  Biso   1.000  C
  H6       1.0000 0.80079  0.41673  0.06183  Biso   1.000  H
  C18      1.0000 0.84130  0.28959  0.11604  Biso   1.000  C
  C19      1.0000 0.71719  0.29910  0.25542  Biso   1.000  C
  H7       1.0000 0.58810  0.43102  0.29641  Biso   1.000  H
  C20      1.0000 0.93011  0.61862  0.03157  Biso   1.000  C
  H8       1.0000 0.80009  0.64753  0.99956  Biso   1.000  H
  H9       1.0000 0.76492  0.55202  0.22878  Biso   1.000  H
  C21      1.0000 0.90949  0.56208  0.16751  Biso   1.000  C
  H10      1.0000 0.50401  0.64113  0.06488  Biso   1.000  H
  C22      1.0000 0.43700  0.78819  0.05359  Biso   1.000  C
  C23      1.0000 0.51532  0.88288  0.09595  Biso   1.000  C
  H11      1.0000 0.63471  0.79940  0.13813  Biso   1.000  H
  H12      1.0000 0.90583  0.25310  0.06963  Biso   1.000  H
  C24      1.0000 0.81119  0.24453  0.18779  Biso   1.000  C
  H13      1.0000 0.69684  0.26937  0.30539  Biso   1.000  H
  C25      1.0000 0.96893  0.58828  0.09464  Biso   1.000  C
  H14      1.0000 0.97347  0.63441  0.98091  Biso   1.000  H
  H15      1.0000 0.93831  0.53951  0.20969  Biso   1.000  H
  H16      1.0000 0.38758  0.78533  0.03082  Biso   1.000  H
  C26      1.0000 0.44048  0.87771  0.06632  Biso   1.000  C
  H17      1.0000 0.52001  0.94412  0.10169  Biso   1.000  H
  H18      1.0000 0.85431  0.17720  0.19072  Biso   1.000  H
  O1       1.0000 0.07441  0.57955  0.08235  Biso   1.000  O
  O2       1.0000 0.37290  0.96038  0.03918  Biso   1.000  O
  C27      1.0000 0.08108  0.65301  0.11985  Biso   1.000  C
  C28      1.0000 0.28950  0.03662  0.09470  Biso   1.000  C
  C29      1.0000 0.98984  0.73188  0.17094  Biso   1.000  C
  C30      1.0000 0.18489  0.65058  0.10481  Biso   1.000  C
  C31      1.0000 0.20958  0.10582  0.06782  Biso   1.000  C
  C32      1.0000 0.27708  0.04912  0.17643  Biso   1.000  C
  C33      1.0000 0.99780  0.80923  0.20532  Biso   1.000  C
  H19      1.0000 0.91963  0.73311  0.18280  Biso   1.000  H
  C34      1.0000 0.19414  0.72752  0.13763  Biso   1.000  C
  N1       1.0000 0.28575  0.56821  0.05528  Biso   1.000  N
  N2       1.0000 0.21129  0.09863  0.98359  Biso   1.000  N
  C35      1.0000 0.12350  0.18512  0.12234  Biso   1.000  C
  C36      1.0000 0.19054  0.12808  0.23246  Biso   1.000  C
  H20      1.0000 0.32972  0.00203  0.19540  Biso   1.000  H
  O3       1.0000 0.90958  0.88490  0.25791  Biso   1.000  O
  C37      1.0000 0.10199  0.80682  0.18617  Biso   1.000  C
  H21      1.0000 0.26431  0.72582  0.12677  Biso   1.000  H
  O4       1.0000 0.28604  0.48554  0.05528  Biso   1.000  O
  O5       1.0000 0.36633  0.58629  0.01797  Biso   1.000  O
  O6       1.0000 0.12623  0.14650  0.97224  Biso   1.000  O
  O7       1.0000 0.29672  0.04659  0.92763  Biso   1.000  O
  C38      1.0000 0.11338  0.19771  0.20363  Biso   1.000  C
  H22      1.0000 0.07039  0.23171  0.10350  Biso   1.000  H
  O8       1.0000 0.17906  0.14207  0.31256  Biso   1.000  O
  C39      1.0000 0.81090  0.87242  0.29460  Biso   1.000  C
  N3       1.0000 0.11852  0.88700  0.21592  Biso   1.000  N
  N4       1.0000 0.02233  0.28629  0.25510  Biso   1.000  N
  C40      1.0000 0.25648  0.07169  0.34070  Biso   1.000  C
  C41      1.0000 0.74089  0.89499  0.25242  Biso   1.000  C
  C42      1.0000 0.78465  0.84370  0.37333  Biso   1.000  C
  O9       1.0000 0.20547  0.86679  0.22316  Biso   1.000  O
  O10      1.0000 0.04685  0.97137  0.22871  Biso   1.000  O
  O11      1.0000 0.99773  0.29281  0.33022  Biso   1.000  O
  O12      1.0000 0.97348  0.35094  0.21936  Biso   1.000  O
  C43      1.0000 0.25987  0.97760  0.35031  Biso   1.000  C
  C44      1.0000 0.32553  0.10060  0.36004  Biso   1.000  C
  C45      1.0000 0.64189  0.88752  0.29204  Biso   1.000  C
  H23      1.0000 0.76010  0.91523  0.19777  Biso   1.000  H
  H24      1.0000 0.83412  0.82797  0.40097  Biso   1.000  H
  C46      1.0000 0.68489  0.83750  0.41251  Biso   1.000  C
  H25      1.0000 0.20893  0.96009  0.33977  Biso   1.000  H
  C47      1.0000 0.33881  0.90929  0.37545  Biso   1.000  C
  C48      1.0000 0.40251  0.03179  0.38712  Biso   1.000  C
  H26      1.0000 0.32032  0.16649  0.35493  Biso   1.000  H
  C49      1.0000 0.61144  0.85893  0.37246  Biso   1.000  C
  H27      1.0000 0.59339  0.90232  0.26353  Biso   1.000  H
  H28      1.0000 0.66609  0.81849  0.46760  Biso   1.000  H
  H29      1.0000 0.34385  0.84339  0.37988  Biso   1.000  H
  C50      1.0000 0.41189  0.93494  0.39467  Biso   1.000  C
  H30      1.0000 0.45013  0.05118  0.40091  Biso   1.000  H
  C51      1.0000 0.50163  0.85733  0.41613  Biso   1.000  C
  C52      1.0000 0.48232  0.79028  0.46966  Biso   1.000  C
  C53      1.0000 0.36851  0.80423  0.52225  Biso   1.000  C
  C54      1.0000 0.56941  0.69812  0.47945  Biso   1.000  C
  C55      1.0000 0.33268  0.73019  0.52106  Biso   1.000  C
  C56      1.0000 0.29532  0.89158  0.57328  Biso   1.000  C
  C57      1.0000 0.64782  0.63073  0.41132  Biso   1.000  C
  C58      1.0000 0.56943  0.67460  0.55856  Biso   1.000  C
  H31      1.0000 0.38272  0.66789  0.48968  Biso   1.000  H
  C59      1.0000 0.22427  0.74667  0.56536  Biso   1.000  C
  C60      1.0000 0.18742  0.90803  0.61864  Biso   1.000  C
  H32      1.0000 0.31972  0.94117  0.57728  Biso   1.000  H
  H33      1.0000 0.64872  0.64518  0.35698  Biso   1.000  H
  C61      1.0000 0.72473  0.54266  0.42137  Biso   1.000  C
  C62      1.0000 0.64756  0.58740  0.56848  Biso   1.000  C
  H34      1.0000 0.51517  0.71899  0.60616  Biso   1.000  H
  H35      1.0000 0.19994  0.69669  0.56249  Biso   1.000  H
  C63      1.0000 0.15145  0.83568  0.61371  Biso   1.000  C
  H36      1.0000 0.13840  0.96849  0.65302  Biso   1.000  H
  H37      1.0000 0.77747  0.49677  0.37408  Biso   1.000  H
  C64      1.0000 0.72514  0.52132  0.49960  Biso   1.000  C
  H38      1.0000 0.64775  0.57292  0.62257  Biso   1.000  H
  H39      1.0000 0.07709  0.84718  0.64328  Biso   1.000  H
  H40      1.0000 0.77860  0.46130  0.50628  Biso   1.000  H
  C65      1.0000 0.35251  0.41257  0.43148  Biso   1.000  C
  C66      1.0000 0.27487  0.47873  0.50041  Biso   1.000  C
  H41      1.0000 0.35229  0.42712  0.37738  Biso   1.000  H
  C67      1.0000 0.43061  0.32537  0.44146  Biso   1.000  C
  C68      1.0000 0.27534  0.45731  0.57859  Biso   1.000  C
  H42      1.0000 0.22147  0.53867  0.49368  Biso   1.000  H
  C69      1.0000 0.43060  0.30193  0.52057  Biso   1.000  C
  H43      1.0000 0.48490  0.28098  0.39379  Biso   1.000  H
  C70      1.0000 0.35219  0.36932  0.58869  Biso   1.000  C
  H44      1.0000 0.22260  0.50320  0.62588  Biso   1.000  H
  C71      1.0000 0.51775  0.20969  0.53030  Biso   1.000  C
  H45      1.0000 0.35135  0.35479  0.64297  Biso   1.000  H
  C72      1.0000 0.49841  0.14271  0.58383  Biso   1.000  C
  C73      1.0000 0.63150  0.19582  0.47777  Biso   1.000  C
  C74      1.0000 0.58815  0.06511  0.60529  Biso   1.000  C
  C75      1.0000 0.38860  0.14112  0.62750  Biso   1.000  C
  C76      1.0000 0.66730  0.26978  0.47895  Biso   1.000  C
  C77      1.0000 0.70475  0.10839  0.42667  Biso   1.000  C
  C78      1.0000 0.66126  0.09068  0.62450  Biso   1.000  C
  C79      1.0000 0.59753  0.96818  0.61290  Biso   1.000  C
  C80      1.0000 0.35813  0.11253  0.70798  Biso   1.000  C
  C81      1.0000 0.31511  0.16247  0.58745  Biso   1.000  C
  H46      1.0000 0.61735  0.33208  0.51027  Biso   1.000  H
  C82      1.0000 0.77581  0.25330  0.43459  Biso   1.000  C
  C83      1.0000 0.81262  0.09201  0.38132  Biso   1.000  C
  H47      1.0000 0.68035  0.05880  0.42268  Biso   1.000  H
  C84      1.0000 0.74017  0.02238  0.64971  Biso   1.000  C
  H48      1.0000 0.65622  0.15658  0.62007  Biso   1.000  H
  H49      1.0000 0.54991  0.94880  0.59911  Biso   1.000  H
  C85      1.0000 0.67454  0.89937  0.63991  Biso   1.000  C
  H50      1.0000 0.40662  0.09773  0.73649  Biso   1.000  H
  C86      1.0000 0.25918  0.10498  0.74753  Biso   1.000  C
  C87      1.0000 0.21543  0.15627  0.62663  Biso   1.000  C
  H51      1.0000 0.33395  0.18149  0.53242  Biso   1.000  H
  H52      1.0000 0.80013  0.30328  0.43746  Biso   1.000  H
  C88      1.0000 0.84860  0.16430  0.38631  Biso   1.000  C
  H53      1.0000 0.86164  0.03148  0.34700  Biso   1.000  H
  H54      1.0000 0.79114  0.03988  0.66019  Biso   1.000  H
  C89      1.0000 0.74359  0.92828  0.65925  Biso   1.000  C
  H55      1.0000 0.67973  0.83349  0.64509  Biso   1.000  H
  H56      1.0000 0.23994  0.08481  0.80218  Biso   1.000  H
  C90      1.0000 0.18915  0.12762  0.70536  Biso   1.000  C
  H57      1.0000 0.16596  0.17200  0.59899  Biso   1.000  H
  H58      1.0000 0.92291  0.15279  0.35667  Biso   1.000  H
  O13      1.0000 0.82091  0.85791  0.68745  Biso   1.000  O
  O14      1.0000 0.09049  0.11507  0.74204  Biso   1.000  O
  C91      1.0000 0.80953  0.87189  0.76750  Biso   1.000  C
  C92      1.0000 0.00221  0.19082  0.79470  Biso   1.000  C
  C93      1.0000 0.88669  0.80226  0.79632  Biso   1.000  C
  C94      1.0000 0.72299  0.95085  0.82352  Biso   1.000  C
  C95      1.0000 0.01021  0.26810  0.82907  Biso   1.000  C
  C96      1.0000 0.89805  0.19316  0.81385  Biso   1.000  C
  C97      1.0000 0.87658  0.81485  0.87761  Biso   1.000  C
  N5       1.0000 0.97775  0.71368  0.74485  Biso   1.000  N
  C98      1.0000 0.71054  0.96342  0.90525  Biso   1.000  C
  H59      1.0000 0.67029  0.99802  0.80462  Biso   1.000  H
  H60      1.0000 0.08044  0.26686  0.81716  Biso   1.000  H
  C99      1.0000 0.91896  0.34697  0.88017  Biso   1.000  C
  C100     1.0000 0.80590  0.27253  0.86233  Biso   1.000  C
  N6       1.0000 0.88152  0.11298  0.78409  Biso   1.000  N
  H61      1.0000 0.92965  0.76827  0.89652  Biso   1.000  H
  C101     1.0000 0.79043  0.89423  0.93220  Biso   1.000  C
  O15      1.0000 0.00231  0.70723  0.66974  Biso   1.000  O
  O16      1.0000 0.02656  0.64904  0.78066  Biso   1.000  O
  O17      1.0000 0.62715  0.03967  0.96078  Biso   1.000  O
  C102     1.0000 0.81518  0.34939  0.89514  Biso   1.000  C
  O18      1.0000 0.92564  0.42043  0.91767  Biso   1.000  O
  H62      1.0000 0.73574  0.27422  0.87318  Biso   1.000  H
  O19      1.0000 0.79454  0.13326  0.77686  Biso   1.000  O
  O20      1.0000 0.95319  0.02861  0.77130  Biso   1.000  O
  N7       1.0000 0.78878  0.90134  0.01636  Biso   1.000  N
  C103     1.0000 0.55960  0.12226  0.93364  Biso   1.000  C
  N8       1.0000 0.71433  0.43176  0.94468  Biso   1.000  N
  C104     1.0000 0.03111  0.41170  0.90537  Biso   1.000  C
  O21      1.0000 0.87381  0.85348  0.02778  Biso   1.000  O
  O22      1.0000 0.70332  0.95339  0.07239  Biso   1.000  O
  C105     1.0000 0.56304  0.21179  0.94643  Biso   1.000  C
  C106     1.0000 0.48476  0.11709  0.90400  Biso   1.000  C
  O23      1.0000 0.71400  0.51450  0.94468  Biso   1.000  O
  O24      1.0000 0.63368  0.41376  0.98205  Biso   1.000  O
  C107     1.0000 0.06996  0.38135  0.96839  Biso   1.000  C
  C108     1.0000 0.09052  0.43789  0.83244  Biso   1.000  C
  C109     1.0000 0.49413  0.29730  0.92571  Biso   1.000  C
  H63      1.0000 0.61243  0.21472  0.96920  Biso   1.000  H
  H64      1.0000 0.48003  0.05592  0.89826  Biso   1.000  H
  C110     1.0000 0.41642  0.20356  0.88267  Biso   1.000  C
  C111     1.0000 0.17262  0.37418  0.95741  Biso   1.000  C
  H65      1.0000 0.02650  0.36564  0.01905  Biso   1.000  H
  C112     1.0000 0.19326  0.43082  0.82165  Biso   1.000  C
  H66      1.0000 0.06176  0.46046  0.79027  Biso   1.000  H
  C113     1.0000 0.42158  0.29448  0.89109  Biso   1.000  C
  H67      1.0000 0.49603  0.35891  0.93507  Biso   1.000  H
  H68      1.0000 0.36533  0.20058  0.86189  Biso   1.000  H
  C114     1.0000 0.23686  0.39862  0.88348  Biso   1.000  C
  H69      1.0000 0.19992  0.35252  0.00045  Biso   1.000  H
  H70      1.0000 0.23513  0.44802  0.77118  Biso   1.000  H
  C115     1.0000 0.35002  0.38651  0.86701  Biso   1.000  C
  C116     1.0000 0.38803  0.45493  0.82826  Biso   1.000  C
  C117     1.0000 0.31678  0.55761  0.82134  Biso   1.000  C
  C118     1.0000 0.50774  0.42938  0.78815  Biso   1.000  C
  C119     1.0000 0.22125  0.61316  0.88853  Biso   1.000  C
  C120     1.0000 0.34641  0.60460  0.74965  Biso   1.000  C
  C121     1.0000 0.55464  0.48510  0.80905  Biso   1.000  C
  C122     1.0000 0.57374  0.35178  0.72457  Biso   1.000  C
  H71      1.0000 0.19922  0.58332  0.93819  Biso   1.000  H
  C123     1.0000 0.15878  0.71037  0.88391  Biso   1.000  C
  C124     1.0000 0.28286  0.70087  0.74460  Biso   1.000  C
  H72      1.0000 0.41191  0.56903  0.70361  Biso   1.000  H
  H73      1.0000 0.51065  0.53957  0.85110  Biso   1.000  H
  C125     1.0000 0.66512  0.46132  0.76893  Biso   1.000  C
  C126     1.0000 0.68417  0.32897  0.68396  Biso   1.000  C
  H74      1.0000 0.54250  0.31403  0.70891  Biso   1.000  H
  H75      1.0000 0.09421  0.74688  0.93039  Biso   1.000  H
  C127     1.0000 0.18885  0.75551  0.81217  Biso   1.000  C
  H76      1.0000 0.30323  0.73060  0.69457  Biso   1.000  H
  H77      1.0000 0.69665  0.49890  0.78440  Biso   1.000  H
  C128     1.0000 0.73034  0.38343  0.70661  Biso   1.000  C
  H78      1.0000 0.72814  0.27596  0.64060  Biso   1.000  H
  H79      1.0000 0.14573  0.82278  0.80930  Biso   1.000  H
  H80      1.0000 0.80627  0.36737  0.67959  Biso   1.000  H
