data_image0
_cell_length_a       11.293
_cell_length_b       13.455
_cell_length_c       37.944
_cell_angle_alpha    83.67
_cell_angle_beta     89.87
_cell_angle_gamma    80.84

_symmetry_space_group_name_H-M    "P 1"
_symmetry_int_tables_number       1

loop_
  _symmetry_equiv_pos_as_xyz
  'x, y, z'

loop_
  _atom_site_label
  _atom_site_occupancy
  _atom_site_fract_x
  _atom_site_fract_y
  _atom_site_fract_z
  _atom_site_thermal_displace_type
  _atom_site_B_iso_or_equiv
  _atom_site_type_symbol
  C1       1.0000 0.73889  0.51655  0.50300  Biso   1.000  C
  C2       1.0000 0.80591  0.47279  0.53691  Biso   1.000  C
  H1       1.0000 0.70316  0.58625  0.50490  Biso   1.000  H
  H2       1.0000 0.79400  0.51435  0.48340  Biso   1.000  H
  H3       1.0000 0.67633  0.47728  0.49888  Biso   1.000  H
  C3       1.0000 0.71689  0.46656  0.56717  Biso   1.000  C
  C4       1.0000 0.86527  0.36596  0.53028  Biso   1.000  C
  C5       1.0000 0.89505  0.53473  0.54479  Biso   1.000  C
  C6       1.0000 0.61468  0.41455  0.56333  Biso   1.000  C
  C7       1.0000 0.72577  0.50537  0.59687  Biso   1.000  C
  H4       1.0000 0.91860  0.33655  0.55009  Biso   1.000  H
  H5       1.0000 0.80398  0.32408  0.52800  Biso   1.000  H
  H6       1.0000 0.91097  0.36959  0.50870  Biso   1.000  H
  H7       1.0000 0.85681  0.60466  0.54479  Biso   1.000  H
  H8       1.0000 0.93121  0.51029  0.56789  Biso   1.000  H
  H9       1.0000 0.95676  0.53078  0.52689  Biso   1.000  H
  C8       1.0000 0.53246  0.37094  0.56176  Biso   1.000  C
  C9       1.0000 0.72854  0.54467  0.62668  Biso   1.000  C
  C10      1.0000 0.42839  0.32109  0.56274  Biso   1.000  C
  C11      1.0000 0.66652  0.65434  0.63169  Biso   1.000  C
  C12      1.0000 0.78720  0.48345  0.65729  Biso   1.000  C
  C13      1.0000 0.41802  0.24970  0.53938  Biso   1.000  C
  C14      1.0000 0.34055  0.34244  0.58863  Biso   1.000  C
  C15      1.0000 0.56323  0.64423  0.65689  Biso   1.000  C
  C16      1.0000 0.75500  0.71298  0.64663  Biso   1.000  C
  C17      1.0000 0.61734  0.70829  0.59629  Biso   1.000  C
  C18      1.0000 0.82674  0.43737  0.68359  Biso   1.000  C
  C19      1.0000 0.31962  0.19513  0.54148  Biso   1.000  C
  C20      1.0000 0.50349  0.22830  0.51222  Biso   1.000  C
  C21      1.0000 0.24005  0.28955  0.59115  Biso   1.000  C
  C22      1.0000 0.34626  0.41596  0.61289  Biso   1.000  C
  H10      1.0000 0.53277  0.70975  0.66461  Biso   1.000  H
  H11      1.0000 0.49976  0.61984  0.64480  Biso   1.000  H
  H12      1.0000 0.59140  0.59668  0.67739  Biso   1.000  H
  H13      1.0000 0.81456  0.72555  0.62888  Biso   1.000  H
  H14      1.0000 0.71280  0.77694  0.65288  Biso   1.000  H
  H15      1.0000 0.79434  0.67372  0.66760  Biso   1.000  H
  H16      1.0000 0.68244  0.71116  0.57969  Biso   1.000  H
  H17      1.0000 0.55894  0.67154  0.58709  Biso   1.000  H
  H18      1.0000 0.57905  0.77648  0.59939  Biso   1.000  H
  C23      1.0000 0.87169  0.37508  0.71637  Biso   1.000  C
  C24      1.0000 0.30924  0.12426  0.51814  Biso   1.000  C
  C25      1.0000 0.23319  0.21413  0.56837  Biso   1.000  C
  C26      1.0000 0.48992  0.16159  0.48997  Biso   1.000  C
  H19      1.0000 0.57042  0.26206  0.51021  Biso   1.000  H
  C27      1.0000 0.15129  0.31254  0.61639  Biso   1.000  C
  H20      1.0000 0.41160  0.45154  0.61180  Biso   1.000  H
  C28      1.0000 0.26482  0.43495  0.63628  Biso   1.000  C
  C29      1.0000 0.93295  0.27526  0.71611  Biso   1.000  C
  C30      1.0000 0.85297  0.42158  0.74888  Biso   1.000  C
  C31      1.0000 0.39182  0.11004  0.49300  Biso   1.000  C
  H21      1.0000 0.24539  0.08685  0.51999  Biso   1.000  H
  C32      1.0000 0.14061  0.15253  0.57388  Biso   1.000  C
  H22      1.0000 0.54638  0.14898  0.47210  Biso   1.000  H
  C33      1.0000 0.16371  0.38434  0.63870  Biso   1.000  C
  H23      1.0000 0.08403  0.27913  0.61798  Biso   1.000  H
  H24      1.0000 0.27265  0.48313  0.65190  Biso   1.000  H
  C34      1.0000 0.97253  0.21837  0.74846  Biso   1.000  C
  C35      1.0000 0.95105  0.22966  0.68410  Biso   1.000  C
  C36      1.0000 0.89243  0.36207  0.78142  Biso   1.000  C
  C37      1.0000 0.78969  0.52263  0.75000  Biso   1.000  C
  H25      1.0000 0.38320  0.06374  0.47669  Biso   1.000  H
  C38      1.0000 0.07140  0.09279  0.58041  Biso   1.000  C
  H26      1.0000 0.10476  0.39986  0.65569  Biso   1.000  H
  C39      1.0000 0.95123  0.26074  0.78095  Biso   1.000  C
  C40      1.0000 0.03734  0.12181  0.74769  Biso   1.000  C
  H27      1.0000 0.91755  0.26518  0.66280  Biso   1.000  H
  C41      1.0000 0.01468  0.13741  0.68370  Biso   1.000  C
  C42      1.0000 0.86715  0.40444  0.81319  Biso   1.000  C
  H28      1.0000 0.76293  0.56235  0.72878  Biso   1.000  H
  C43      1.0000 0.76776  0.56183  0.78180  Biso   1.000  C
  C44      1.0000 0.99318  0.01934  0.58719  Biso   1.000  C
  C45      1.0000 0.98855  0.19993  0.81380  Biso   1.000  C
  H29      1.0000 0.06370  0.08282  0.76920  Biso   1.000  H
  C46      1.0000 0.06362  0.08258  0.71669  Biso   1.000  C
  H30      1.0000 0.02764  0.10868  0.66230  Biso   1.000  H
  C47      1.0000 0.80487  0.49935  0.81349  Biso   1.000  C
  H31      1.0000 0.89386  0.36641  0.83478  Biso   1.000  H
  H32      1.0000 0.72901  0.62886  0.78240  Biso   1.000  H
  C48      1.0000 0.85866  0.05022  0.57648  Biso   1.000  C
  C49      1.0000 0.03925  0.92948  0.60106  Biso   1.000  C
  C50      1.0000 0.01360  0.15310  0.84176  Biso   1.000  C
  H33      1.0000 0.11347  0.01957  0.71669  Biso   1.000  H
  H34      1.0000 0.78576  0.52404  0.83528  Biso   1.000  H
  C51      1.0000 0.79262  0.96147  0.58640  Biso   1.000  C
  C52      1.0000 0.80731  0.13859  0.59499  Biso   1.000  C
  C53      1.0000 0.85292  0.07785  0.53622  Biso   1.000  C
  C54      1.0000 0.08333  0.83662  0.61422  Biso   1.000  C
  C55      1.0000 0.04343  0.09580  0.87565  Biso   1.000  C
  H35      1.0000 0.80186  0.94067  0.61159  Biso   1.000  H
  H36      1.0000 0.70827  0.98156  0.58030  Biso   1.000  H
  H37      1.0000 0.82585  0.90538  0.57340  Biso   1.000  H
  H38      1.0000 0.81090  0.11907  0.62040  Biso   1.000  H
  H39      1.0000 0.85295  0.19325  0.58929  Biso   1.000  H
  H40      1.0000 0.72441  0.16093  0.58749  Biso   1.000  H
  H41      1.0000 0.77076  0.10518  0.52891  Biso   1.000  H
  H42      1.0000 0.90401  0.12814  0.52959  Biso   1.000  H
  H43      1.0000 0.88002  0.01763  0.52461  Biso   1.000  H
  C56      1.0000 0.07897  0.80722  0.65150  Biso   1.000  C
  C57      1.0000 0.14601  0.75777  0.59109  Biso   1.000  C
  C58      1.0000 0.97240  0.11395  0.90190  Biso   1.000  C
  C59      1.0000 0.15884  0.01801  0.87856  Biso   1.000  C
  C60      1.0000 0.07155  0.78119  0.68200  Biso   1.000  C
  C61      1.0000 0.27354  0.71889  0.60449  Biso   1.000  C
  C62      1.0000 0.07702  0.66857  0.59369  Biso   1.000  C
  C63      1.0000 0.15074  0.80392  0.55370  Biso   1.000  C
  C64      1.0000 0.90025  0.12725  0.92802  Biso   1.000  C
  C65      1.0000 0.14869  0.93717  0.85319  Biso   1.000  C
  C66      1.0000 0.17579  0.96583  0.91718  Biso   1.000  C
  C67      1.0000 0.26620  0.07186  0.86926  Biso   1.000  C
  C68      1.0000 0.03004  0.74228  0.71749  Biso   1.000  C
  C69      1.0000 0.09051  0.76271  0.72189  Biso   1.000  C
  H44      1.0000 0.31086  0.66742  0.59019  Biso   1.000  H
  H45      1.0000 0.31906  0.77448  0.60271  Biso   1.000  H
  H46      1.0000 0.27208  0.69009  0.62899  Biso   1.000  H
  H47      1.0000 0.99586  0.69160  0.58470  Biso   1.000  H
  H48      1.0000 0.11677  0.61687  0.57990  Biso   1.000  H
  H49      1.0000 0.07437  0.64046  0.61841  Biso   1.000  H
  H50      1.0000 0.07097  0.81550  0.54309  Biso   1.000  H
  H51      1.0000 0.18032  0.86788  0.55330  Biso   1.000  H
  H52      1.0000 0.20418  0.75846  0.54039  Biso   1.000  H
  C70      1.0000 0.90300  0.20743  0.95407  Biso   1.000  C
  C71      1.0000 0.80817  0.06635  0.93229  Biso   1.000  C
  H53      1.0000 0.07707  0.90745  0.85860  Biso   1.000  H
  H54      1.0000 0.14405  0.96869  0.82889  Biso   1.000  H
  H55      1.0000 0.21873  0.88477  0.85629  Biso   1.000  H
  H56      1.0000 0.10790  0.93183  0.92349  Biso   1.000  H
  H57      1.0000 0.24894  0.91670  0.91898  Biso   1.000  H
  H58      1.0000 0.18121  0.01645  0.93319  Biso   1.000  H
  H59      1.0000 0.26539  0.12741  0.88350  Biso   1.000  H
  H60      1.0000 0.34009  0.02435  0.87400  Biso   1.000  H
  H61      1.0000 0.26163  0.09794  0.84430  Biso   1.000  H
  C72      1.0000 0.97483  0.79820  0.73719  Biso   1.000  C
  C73      1.0000 0.07997  0.64745  0.73279  Biso   1.000  C
  C74      1.0000 0.19142  0.72380  0.74199  Biso   1.000  C
  C75      1.0000 0.89389  0.16012  0.99156  Biso   1.000  C
  C76      1.0000 0.79703  0.28979  0.94529  Biso   1.000  C
  C77      1.0000 0.01830  0.25386  0.94820  Biso   1.000  C
  C78      1.0000 0.73459  0.01015  0.93548  Biso   1.000  C
  C79      1.0000 0.96661  0.77696  0.77580  Biso   1.000  C
  C80      1.0000 0.90801  0.91577  0.72351  Biso   1.000  C
  C81      1.0000 0.87433  0.82891  0.71589  Biso   1.000  C
  C82      1.0000 0.07821  0.62386  0.77169  Biso   1.000  C
  C83      1.0000 0.13133  0.56319  0.71391  Biso   1.000  C
  C84      1.0000 0.18243  0.69736  0.77920  Biso   1.000  C
  C85      1.0000 0.31787  0.71135  0.72669  Biso   1.000  C
  H62      1.0000 0.82579  0.12412  0.99329  Biso   1.000  H
  H63      1.0000 0.96678  0.11310  0.99809  Biso   1.000  H
  H64      1.0000 0.88334  0.21275  0.00740  Biso   1.000  H
  H65      1.0000 0.72550  0.25949  0.94279  Biso   1.000  H
  H66      1.0000 0.78610  0.33313  0.96430  Biso   1.000  H
  H67      1.0000 0.81123  0.32976  0.92330  Biso   1.000  H
  H68      1.0000 0.02318  0.27952  0.92338  Biso   1.000  H
  H69      1.0000 0.01713  0.30892  0.96279  Biso   1.000  H
  H70      1.0000 0.08741  0.20246  0.95478  Biso   1.000  H
  C86      1.0000 0.64849  0.94115  0.93704  Biso   1.000  C
  C87      1.0000 0.90824  0.87138  0.79800  Biso   1.000  C
  C88      1.0000 0.85205  0.78276  0.79118  Biso   1.000  C
  C89      1.0000 0.04937  0.70545  0.79354  Biso   1.000  C
  C90      1.0000 0.84979  0.98560  0.74491  Biso   1.000  C
  C91      1.0000 0.76474  0.84539  0.73130  Biso   1.000  C
  C92      1.0000 0.13153  0.52288  0.78530  Biso   1.000  C
  C93      1.0000 0.14868  0.47378  0.73279  Biso   1.000  C
  C94      1.0000 0.30416  0.67076  0.80460  Biso   1.000  C
  C95      1.0000 0.43703  0.68369  0.74430  Biso   1.000  C
  C96      1.0000 0.60806  0.90277  0.96966  Biso   1.000  C
  C97      1.0000 0.60778  0.91337  0.90508  Biso   1.000  C
  C98      1.0000 0.85554  0.95754  0.78248  Biso   1.000  C
  C99      1.0000 0.75322  0.81910  0.77090  Biso   1.000  C
  C100     1.0000 0.04432  0.68247  0.83170  Biso   1.000  C
  C101     1.0000 0.17227  0.45049  0.76151  Biso   1.000  C
  C102     1.0000 0.39287  0.64889  0.79360  Biso   1.000  C
  C103     1.0000 0.52440  0.83348  0.97096  Biso   1.000  C
  C104     1.0000 0.64654  0.92967  0.00249  Biso   1.000  C
  C105     1.0000 0.52912  0.84109  0.90583  Biso   1.000  C
  C106     1.0000 0.64683  0.95205  0.87220  Biso   1.000  C
  C107     1.0000 0.04906  0.66186  0.86292  Biso   1.000  C
  C108     1.0000 0.48757  0.80157  0.93919  Biso   1.000  C
  C109     1.0000 0.48132  0.79781  0.00453  Biso   1.000  C
  C110     1.0000 0.60266  0.89362  0.03349  Biso   1.000  C
  H71      1.0000 0.70366  0.97349  0.00249  Biso   1.000  H
  C111     1.0000 0.49294  0.81184  0.87350  Biso   1.000  C
  H72      1.0000 0.70088  0.99855  0.87159  Biso   1.000  H
  C112     1.0000 0.60959  0.92509  0.84099  Biso   1.000  C
  C113     1.0000 0.05743  0.64236  0.90058  Biso   1.000  C
  C114     1.0000 0.40415  0.73017  0.93929  Biso   1.000  C
  H73      1.0000 0.42654  0.75186  0.00581  Biso   1.000  H
  C115     1.0000 0.51799  0.82880  0.03397  Biso   1.000  C
  H74      1.0000 0.62944  0.91218  0.05489  Biso   1.000  H
  C116     1.0000 0.53146  0.85093  0.84290  Biso   1.000  C
  H75      1.0000 0.44067  0.76393  0.87361  Biso   1.000  H
  H76      1.0000 0.63434  0.95419  0.81908  Biso   1.000  H
  C117     1.0000 0.94290  0.65424  0.92216  Biso   1.000  C
  C118     1.0000 0.16352  0.61693  0.91567  Biso   1.000  C
  C119     1.0000 0.33911  0.66938  0.93656  Biso   1.000  C
  H77      1.0000 0.48584  0.80650  0.05579  Biso   1.000  H
  H78      1.0000 0.50667  0.82934  0.82179  Biso   1.000  H
  C120     1.0000 0.89500  0.76913  0.92118  Biso   1.000  C
  C121     1.0000 0.85354  0.59424  0.90699  Biso   1.000  C
  C122     1.0000 0.96659  0.61233  0.96022  Biso   1.000  C
  C123     1.0000 0.26843  0.59218  0.93052  Biso   1.000  C
  H79      1.0000 0.94923  0.80058  0.93449  Biso   1.000  H
  H80      1.0000 0.88957  0.80015  0.89678  Biso   1.000  H
  H81      1.0000 0.81607  0.77866  0.93168  Biso   1.000  H
  H82      1.0000 0.89009  0.52384  0.90729  Biso   1.000  H
  H83      1.0000 0.78203  0.59858  0.92129  Biso   1.000  H
  H84      1.0000 0.83190  0.62249  0.88278  Biso   1.000  H
  H85      1.0000 0.99198  0.53958  0.96170  Biso   1.000  H
  H86      1.0000 0.89389  0.62675  0.97358  Biso   1.000  H
  H87      1.0000 0.02933  0.64343  0.96990  Biso   1.000  H
  C124     1.0000 0.32981  0.48194  0.94150  Biso   1.000  C
  C125     1.0000 0.45401  0.46455  0.92659  Biso   1.000  C
  C126     1.0000 0.33394  0.46975  0.98268  Biso   1.000  C
  C127     1.0000 0.25443  0.41069  0.92930  Biso   1.000  C
  H88      1.0000 0.44910  0.47607  0.90100  Biso   1.000  H
  H89      1.0000 0.50128  0.51095  0.93550  Biso   1.000  H
  H90      1.0000 0.49169  0.39538  0.93388  Biso   1.000  H
  H91      1.0000 0.37795  0.51938  0.99090  Biso   1.000  H
  H92      1.0000 0.25280  0.48024  0.99159  Biso   1.000  H
  H93      1.0000 0.37353  0.40212  0.99130  Biso   1.000  H
  H94      1.0000 0.25376  0.41619  0.90349  Biso   1.000  H
  H95      1.0000 0.28725  0.34183  0.93868  Biso   1.000  H
  H96      1.0000 0.17315  0.42758  0.93749  Biso   1.000  H
  C128     1.0000 0.46728  0.62898  0.43823  Biso   1.000  C
  C129     1.0000 0.38507  0.58537  0.43667  Biso   1.000  C
  C130     1.0000 0.57143  0.67891  0.43725  Biso   1.000  C
  C131     1.0000 0.28295  0.53336  0.43282  Biso   1.000  C
  C132     1.0000 0.65920  0.65747  0.41137  Biso   1.000  C
  C133     1.0000 0.58180  0.75030  0.46062  Biso   1.000  C
  C134     1.0000 0.27406  0.49456  0.40310  Biso   1.000  C
  C135     1.0000 0.19393  0.52713  0.46308  Biso   1.000  C
  C136     1.0000 0.75969  0.71038  0.40882  Biso   1.000  C
  C137     1.0000 0.65349  0.58396  0.38711  Biso   1.000  C
  C138     1.0000 0.68022  0.80480  0.45850  Biso   1.000  C
  C139     1.0000 0.49626  0.77163  0.48775  Biso   1.000  C
  C140     1.0000 0.27121  0.45525  0.37332  Biso   1.000  C
  C141     1.0000 0.26086  0.48337  0.49700  Biso   1.000  C
  C142     1.0000 0.13448  0.63396  0.46969  Biso   1.000  C
  C143     1.0000 0.10470  0.46519  0.45521  Biso   1.000  C
  C144     1.0000 0.76656  0.78579  0.43163  Biso   1.000  C
  C145     1.0000 0.84846  0.68738  0.38360  Biso   1.000  C
  H97      1.0000 0.58824  0.54838  0.38819  Biso   1.000  H
  C146     1.0000 0.73502  0.56498  0.36369  Biso   1.000  C
  C147     1.0000 0.69060  0.87566  0.48186  Biso   1.000  C
  C148     1.0000 0.50991  0.83833  0.51002  Biso   1.000  C
  H98      1.0000 0.42942  0.73786  0.48979  Biso   1.000  H
  C149     1.0000 0.21263  0.51647  0.34271  Biso   1.000  C
  C150     1.0000 0.33322  0.34557  0.36830  Biso   1.000  C
  H99      1.0000 0.29658  0.41367  0.49509  Biso   1.000  H
  H100     1.0000 0.20583  0.48557  0.51660  Biso   1.000  H
  H101     1.0000 0.32351  0.52265  0.50109  Biso   1.000  H
  H102     1.0000 0.08123  0.66337  0.44990  Biso   1.000  H
  H103     1.0000 0.19585  0.67584  0.47199  Biso   1.000  H
  H104     1.0000 0.08878  0.63033  0.49130  Biso   1.000  H
  H105     1.0000 0.14303  0.39526  0.45521  Biso   1.000  H
  H106     1.0000 0.06863  0.48963  0.43211  Biso   1.000  H
  H107     1.0000 0.04298  0.46914  0.47311  Biso   1.000  H
  C151     1.0000 0.85923  0.84739  0.42612  Biso   1.000  C
  C152     1.0000 0.83613  0.61558  0.36130  Biso   1.000  C
  H108     1.0000 0.91581  0.72079  0.38199  Biso   1.000  H
  H109     1.0000 0.72710  0.51679  0.34810  Biso   1.000  H
  H110     1.0000 0.75436  0.91307  0.48000  Biso   1.000  H
  C153     1.0000 0.60801  0.88988  0.50700  Biso   1.000  C
  H111     1.0000 0.45337  0.85094  0.52790  Biso   1.000  H
  C154     1.0000 0.17301  0.56255  0.31640  Biso   1.000  C
  C155     1.0000 0.43652  0.35569  0.34311  Biso   1.000  C
  C156     1.0000 0.24483  0.28701  0.35337  Biso   1.000  C
  C157     1.0000 0.38241  0.29163  0.40371  Biso   1.000  C
  C158     1.0000 0.92844  0.90714  0.41957  Biso   1.000  C
  H112     1.0000 0.89499  0.60006  0.34430  Biso   1.000  H
  H113     1.0000 0.61655  0.93618  0.52331  Biso   1.000  H
  C159     1.0000 0.12815  0.62484  0.28363  Biso   1.000  C
  H114     1.0000 0.46707  0.29017  0.33539  Biso   1.000  H
  H115     1.0000 0.49998  0.38008  0.35520  Biso   1.000  H
  H116     1.0000 0.40844  0.40324  0.32261  Biso   1.000  H
  H117     1.0000 0.18519  0.27438  0.37109  Biso   1.000  H
  H118     1.0000 0.28704  0.22299  0.34709  Biso   1.000  H
  H119     1.0000 0.20541  0.32620  0.33240  Biso   1.000  H
  H120     1.0000 0.31730  0.28876  0.42031  Biso   1.000  H
  H121     1.0000 0.44081  0.32838  0.41291  Biso   1.000  H
  H122     1.0000 0.42070  0.22344  0.40060  Biso   1.000  H
  C160     1.0000 0.00665  0.98059  0.41278  Biso   1.000  C
  C161     1.0000 0.14687  0.57835  0.25109  Biso   1.000  C
  C162     1.0000 0.06680  0.72466  0.28389  Biso   1.000  C
  C163     1.0000 0.96049  0.07044  0.39893  Biso   1.000  C
  C164     1.0000 0.14109  0.94970  0.42352  Biso   1.000  C
  C165     1.0000 0.21014  0.47729  0.25000  Biso   1.000  C
  C166     1.0000 0.10732  0.63785  0.21857  Biso   1.000  C
  C167     1.0000 0.02721  0.78155  0.25154  Biso   1.000  C
  C168     1.0000 0.04870  0.77026  0.31590  Biso   1.000  C
  C169     1.0000 0.91640  0.16338  0.38578  Biso   1.000  C
  C170     1.0000 0.19251  0.86140  0.40501  Biso   1.000  C
  C171     1.0000 0.14691  0.92207  0.46377  Biso   1.000  C
  C172     1.0000 0.20713  0.03845  0.41360  Biso   1.000  C
  C173     1.0000 0.23208  0.43809  0.21820  Biso   1.000  C
  H123     1.0000 0.23682  0.43758  0.27119  Biso   1.000  H
  C174     1.0000 0.13269  0.59548  0.18680  Biso   1.000  C
  C175     1.0000 0.04851  0.73918  0.21905  Biso   1.000  C
  C176     1.0000 0.96240  0.87811  0.25231  Biso   1.000  C
  H124     1.0000 0.08218  0.73481  0.33720  Biso   1.000  H
  C177     1.0000 0.98506  0.86251  0.31630  Biso   1.000  C
  C178     1.0000 0.92085  0.19278  0.34847  Biso   1.000  C
  C179     1.0000 0.85382  0.24214  0.40890  Biso   1.000  C
  H125     1.0000 0.18893  0.88085  0.37960  Biso   1.000  H
  H126     1.0000 0.14680  0.80667  0.41071  Biso   1.000  H
  H127     1.0000 0.27543  0.83900  0.41248  Biso   1.000  H
  H128     1.0000 0.22899  0.89474  0.47109  Biso   1.000  H
  H129     1.0000 0.09583  0.87178  0.47040  Biso   1.000  H
  H130     1.0000 0.11982  0.98229  0.47539  Biso   1.000  H
  H131     1.0000 0.19797  0.05925  0.38840  Biso   1.000  H
  H132     1.0000 0.29156  0.01836  0.41970  Biso   1.000  H
  H133     1.0000 0.17390  0.09454  0.42659  Biso   1.000  H
  H134     1.0000 0.27074  0.37106  0.21759  Biso   1.000  H
  C180     1.0000 0.19497  0.50057  0.18651  Biso   1.000  C
  H135     1.0000 0.10598  0.63352  0.16519  Biso   1.000  H
  C181     1.0000 0.01129  0.79999  0.18619  Biso   1.000  C
  H136     1.0000 0.93614  0.91710  0.23080  Biso   1.000  H
  C182     1.0000 0.93621  0.91741  0.28331  Biso   1.000  C
  H137     1.0000 0.97209  0.89131  0.33770  Biso   1.000  H
  C183     1.0000 0.92820  0.21873  0.31800  Biso   1.000  C
  C184     1.0000 0.72621  0.28104  0.39549  Biso   1.000  C
  C185     1.0000 0.92282  0.33135  0.40631  Biso   1.000  C
  C186     1.0000 0.84901  0.19600  0.44630  Biso   1.000  C
  H138     1.0000 0.21407  0.47589  0.16469  Biso   1.000  H
  C187     1.0000 0.98624  0.84682  0.15824  Biso   1.000  C
  H139     1.0000 0.88628  0.98035  0.28331  Biso   1.000  H
  C188     1.0000 0.96971  0.25765  0.28249  Biso   1.000  C
  C189     1.0000 0.90924  0.23721  0.27811  Biso   1.000  C
  H140     1.0000 0.68889  0.33250  0.40981  Biso   1.000  H
  H141     1.0000 0.68069  0.22544  0.39729  Biso   1.000  H
  H142     1.0000 0.72775  0.30983  0.37101  Biso   1.000  H
  H143     1.0000 0.88297  0.38305  0.42010  Biso   1.000  H
  H144     1.0000 0.92538  0.35946  0.38159  Biso   1.000  H
  H145     1.0000 0.00398  0.30832  0.41530  Biso   1.000  H
  H146     1.0000 0.92878  0.18442  0.45690  Biso   1.000  H
  H147     1.0000 0.81952  0.13204  0.44669  Biso   1.000  H
  H148     1.0000 0.79557  0.24146  0.45961  Biso   1.000  H
  C190     1.0000 0.95632  0.90412  0.12435  Biso   1.000  C
  C191     1.0000 0.91987  0.35247  0.26721  Biso   1.000  C
  C192     1.0000 0.02500  0.20172  0.26281  Biso   1.000  C
  C193     1.0000 0.80833  0.27612  0.25801  Biso   1.000  C
  C194     1.0000 0.02735  0.88598  0.09807  Biso   1.000  C
  C195     1.0000 0.84091  0.98192  0.12141  Biso   1.000  C
  C196     1.0000 0.92154  0.37605  0.22831  Biso   1.000  C
  C197     1.0000 0.86841  0.43673  0.28609  Biso   1.000  C
  C198     1.0000 0.03314  0.22296  0.22420  Biso   1.000  C
  C199     1.0000 0.09174  0.08415  0.27649  Biso   1.000  C
  C200     1.0000 0.12550  0.17101  0.28410  Biso   1.000  C
  C201     1.0000 0.81732  0.30256  0.22080  Biso   1.000  C
  C202     1.0000 0.68197  0.28857  0.27331  Biso   1.000  C
  C203     1.0000 0.09958  0.87267  0.07197  Biso   1.000  C
  C204     1.0000 0.73354  0.92806  0.13074  Biso   1.000  C
  C205     1.0000 0.85106  0.06275  0.14681  Biso   1.000  C
  C206     1.0000 0.82396  0.03409  0.08282  Biso   1.000  C
  C207     1.0000 0.95046  0.29447  0.20645  Biso   1.000  C
  C208     1.0000 0.86822  0.47704  0.21470  Biso   1.000  C
  C209     1.0000 0.85116  0.52614  0.26721  Biso   1.000  C
  C210     1.0000 0.09159  0.12854  0.20200  Biso   1.000  C
  C211     1.0000 0.14779  0.21717  0.20879  Biso   1.000  C
  C212     1.0000 0.14996  0.01432  0.25509  Biso   1.000  C
  C213     1.0000 0.23510  0.15453  0.26870  Biso   1.000  C
  C214     1.0000 0.69567  0.32915  0.19540  Biso   1.000  C
  C215     1.0000 0.56271  0.31623  0.25570  Biso   1.000  C
  C216     1.0000 0.09675  0.79249  0.04593  Biso   1.000  C
  C217     1.0000 0.19167  0.93358  0.06768  Biso   1.000  C
  H149     1.0000 0.73445  0.87251  0.11650  Biso   1.000  H
  H150     1.0000 0.65975  0.97557  0.12599  Biso   1.000  H
  H151     1.0000 0.73812  0.90198  0.15570  Biso   1.000  H
  H152     1.0000 0.92277  0.09247  0.14140  Biso   1.000  H
  H153     1.0000 0.85579  0.03123  0.17110  Biso   1.000  H
  H154     1.0000 0.78111  0.11515  0.14371  Biso   1.000  H
  H155     1.0000 0.81854  0.98347  0.06680  Biso   1.000  H
  H156     1.0000 0.89185  0.06809  0.07651  Biso   1.000  H
  H157     1.0000 0.75088  0.08330  0.08099  Biso   1.000  H
  C218     1.0000 0.95543  0.31745  0.16829  Biso   1.000  C
  C219     1.0000 0.82757  0.54943  0.23849  Biso   1.000  C
  C220     1.0000 0.14430  0.04238  0.21749  Biso   1.000  C
  C221     1.0000 0.24653  0.18082  0.22910  Biso   1.000  C
  C222     1.0000 0.60696  0.35103  0.20640  Biso   1.000  C
  C223     1.0000 0.10586  0.83980  0.00843  Biso   1.000  C
  C224     1.0000 0.20280  0.71013  0.05471  Biso   1.000  C
  C225     1.0000 0.98144  0.74614  0.05179  Biso   1.000  C
  C226     1.0000 0.26516  0.98977  0.06452  Biso   1.000  C
  C227     1.0000 0.95078  0.33806  0.13708  Biso   1.000  C
  H158     1.0000 0.17396  0.87580  0.00671  Biso   1.000  H
  H159     1.0000 0.03297  0.88682  0.00191  Biso   1.000  H
  H160     1.0000 0.11641  0.78717  0.99260  Biso   1.000  H
  H161     1.0000 0.27425  0.74043  0.05720  Biso   1.000  H
  H162     1.0000 0.21365  0.66679  0.03570  Biso   1.000  H
  H163     1.0000 0.18861  0.67016  0.07669  Biso   1.000  H
  H164     1.0000 0.97665  0.72041  0.07659  Biso   1.000  H
  H165     1.0000 0.98262  0.69100  0.03721  Biso   1.000  H
  H166     1.0000 0.91233  0.79747  0.04519  Biso   1.000  H
  C228     1.0000 0.35126  0.05877  0.06296  Biso   1.000  C
  C229     1.0000 0.94232  0.35756  0.09942  Biso   1.000  C
  C230     1.0000 0.39169  0.09715  0.03034  Biso   1.000  C
  C231     1.0000 0.39197  0.08655  0.09491  Biso   1.000  C
  C232     1.0000 0.83622  0.38299  0.08433  Biso   1.000  C
  C233     1.0000 0.05684  0.34568  0.07783  Biso   1.000  C
  C234     1.0000 0.35321  0.07025  0.99751  Biso   1.000  C
  C235     1.0000 0.47543  0.16644  0.02904  Biso   1.000  C
  C236     1.0000 0.47071  0.15883  0.09417  Biso   1.000  C
  C237     1.0000 0.35301  0.04786  0.12780  Biso   1.000  C
  C238     1.0000 0.73140  0.40774  0.06948  Biso   1.000  C
  C239     1.0000 0.10475  0.23080  0.07879  Biso   1.000  C
  C240     1.0000 0.14630  0.40568  0.09300  Biso   1.000  C
  C241     1.0000 0.03316  0.38759  0.03978  Biso   1.000  C
  C242     1.0000 0.39717  0.10630  0.96651  Biso   1.000  C
  H167     1.0000 0.29617  0.02643  0.99751  Biso   1.000  H
  C243     1.0000 0.51842  0.20211  0.99547  Biso   1.000  C
  C244     1.0000 0.51217  0.19835  0.06081  Biso   1.000  C
  C245     1.0000 0.50689  0.18808  0.12650  Biso   1.000  C
  H168     1.0000 0.29886  0.00137  0.12841  Biso   1.000  H
  C246     1.0000 0.39016  0.07483  0.15901  Biso   1.000  C
  C247     1.0000 0.66064  0.33054  0.06343  Biso   1.000  C
  C248     1.0000 0.66993  0.51798  0.05850  Biso   1.000  C
  H169     1.0000 0.05060  0.19934  0.06550  Biso   1.000  H
  H170     1.0000 0.11018  0.19978  0.10319  Biso   1.000  H
  H171     1.0000 0.18368  0.22127  0.06829  Biso   1.000  H
  H172     1.0000 0.10966  0.47608  0.09271  Biso   1.000  H
  H173     1.0000 0.21780  0.40134  0.07871  Biso   1.000  H
  H174     1.0000 0.16785  0.37743  0.11719  Biso   1.000  H
  H175     1.0000 0.97050  0.35649  0.03010  Biso   1.000  H
  H176     1.0000 0.00777  0.46034  0.03829  Biso   1.000  H
  H177     1.0000 0.10586  0.37318  0.02639  Biso   1.000  H
  C249     1.0000 0.48184  0.17112  0.96603  Biso   1.000  C
  H178     1.0000 0.37031  0.08774  0.94510  Biso   1.000  H
  H179     1.0000 0.57321  0.24806  0.99419  Biso   1.000  H
  C250     1.0000 0.59568  0.26975  0.06070  Biso   1.000  C
  C251     1.0000 0.46838  0.14899  0.15710  Biso   1.000  C
  H180     1.0000 0.55917  0.23599  0.12639  Biso   1.000  H
  H181     1.0000 0.36549  0.04574  0.18089  Biso   1.000  H
  C252     1.0000 0.54574  0.53537  0.07341  Biso   1.000  C
  C253     1.0000 0.66590  0.53018  0.01729  Biso   1.000  C
  C254     1.0000 0.74541  0.58923  0.07070  Biso   1.000  C
  H182     1.0000 0.51391  0.19342  0.94420  Biso   1.000  H
  H183     1.0000 0.49317  0.17058  0.17821  Biso   1.000  H
  H184     1.0000 0.55065  0.52385  0.09900  Biso   1.000  H
  H185     1.0000 0.49847  0.48897  0.06450  Biso   1.000  H
  H186     1.0000 0.50806  0.60455  0.06609  Biso   1.000  H
  H187     1.0000 0.62189  0.48054  0.00910  Biso   1.000  H
  H188     1.0000 0.74694  0.51968  0.00841  Biso   1.000  H
  H189     1.0000 0.62631  0.59780  0.00870  Biso   1.000  H
  H190     1.0000 0.74608  0.58373  0.09650  Biso   1.000  H
  H191     1.0000 0.71258  0.65809  0.06129  Biso   1.000  H
  H192     1.0000 0.82669  0.57234  0.06251  Biso   1.000  H
