data_image0
_cell_length_a       17.796
_cell_length_b       20.694
_cell_length_c       21.585
_cell_angle_alpha    109.37
_cell_angle_beta     106.35
_cell_angle_gamma    104.44

_symmetry_space_group_name_H-M    "P 1"
_symmetry_int_tables_number       1

loop_
  _symmetry_equiv_pos_as_xyz
  'x, y, z'

loop_
  _atom_site_label
  _atom_site_occupancy
  _atom_site_fract_x
  _atom_site_fract_y
  _atom_site_fract_z
  _atom_site_thermal_displace_type
  _atom_site_B_iso_or_equiv
  _atom_site_type_symbol
  C1       1.0000 0.71144  0.51392  0.73461  Biso   1.000  C
  C2       1.0000 0.73766  0.46028  0.70013  Biso   1.000  C
  C3       1.0000 0.76613  0.58825  0.77408  Biso   1.000  C
  H1       1.0000 0.65494  0.49993  0.73146  Biso   1.000  H
  C4       1.0000 0.81836  0.48040  0.70249  Biso   1.000  C
  H2       1.0000 0.70005  0.40981  0.67496  Biso   1.000  H
  C5       1.0000 0.84815  0.60666  0.77665  Biso   1.000  C
  C6       1.0000 0.73764  0.64435  0.81151  Biso   1.000  C
  O1       1.0000 0.84688  0.42709  0.66918  Biso   1.000  O
  C7       1.0000 0.87408  0.55344  0.74109  Biso   1.000  C
  H3       1.0000 0.88697  0.65673  0.80337  Biso   1.000  H
  C8       1.0000 0.76577  0.71640  0.81788  Biso   1.000  C
  C9       1.0000 0.67954  0.62663  0.84155  Biso   1.000  C
  C10      1.0000 0.83207  0.40846  0.59769  Biso   1.000  C
  H4       1.0000 0.93006  0.56700  0.74297  Biso   1.000  H
  C11      1.0000 0.73662  0.76814  0.85135  Biso   1.000  C
  H5       1.0000 0.80563  0.73022  0.79866  Biso   1.000  H
  H6       1.0000 0.65977  0.57833  0.83898  Biso   1.000  H
  C12      1.0000 0.65051  0.67919  0.87496  Biso   1.000  C
  C13      1.0000 0.77049  0.42067  0.55245  Biso   1.000  C
  C14      1.0000 0.88308  0.37518  0.57258  Biso   1.000  C
  C15      1.0000 0.67724  0.74931  0.87989  Biso   1.000  C
  H7       1.0000 0.75702  0.81690  0.85504  Biso   1.000  H
  H8       1.0000 0.61127  0.66604  0.89499  Biso   1.000  H
  C16      1.0000 0.76056  0.39942  0.48101  Biso   1.000  C
  H9       1.0000 0.73545  0.44320  0.56958  Biso   1.000  H
  C17      1.0000 0.87238  0.35467  0.50190  Biso   1.000  C
  H10      1.0000 0.92497  0.36663  0.60380  Biso   1.000  H
  C18      1.0000 0.64603  0.80484  0.91726  Biso   1.000  C
  C19      1.0000 0.81120  0.36681  0.45494  Biso   1.000  C
  H11      1.0000 0.71820  0.40753  0.44980  Biso   1.000  H
  H12      1.0000 0.90727  0.33189  0.48487  Biso   1.000  H
  N1       1.0000 0.62811  0.85294  0.88299  Biso   1.000  N
  H13      1.0000 0.68892  0.83633  0.96674  Biso   1.000  H
  H14      1.0000 0.59372  0.77813  0.92037  Biso   1.000  H
  C20      1.0000 0.80114  0.34258  0.37906  Biso   1.000  C
  C21      1.0000 0.60500  0.90719  0.92969  Biso   1.000  C
  C22      1.0000 0.56173  0.80845  0.81113  Biso   1.000  C
  C23      1.0000 0.78634  0.38492  0.34072  Biso   1.000  C
  C24      1.0000 0.80746  0.27545  0.34265  Biso   1.000  C
  C25      1.0000 0.58966  0.96407  0.90377  Biso   1.000  C
  H15      1.0000 0.55316  0.88055  0.93349  Biso   1.000  H
  H16      1.0000 0.65096  0.93314  0.97825  Biso   1.000  H
  H17      1.0000 0.54444  0.84114  0.79116  Biso   1.000  H
  H18      1.0000 0.58312  0.77811  0.78056  Biso   1.000  H
  H19      1.0000 0.51293  0.77612  0.81349  Biso   1.000  H
  C26      1.0000 0.77677  0.35963  0.26918  Biso   1.000  C
  O2       1.0000 0.78210  0.45280  0.37269  Biso   1.000  O
  C27      1.0000 0.79909  0.24944  0.27261  Biso   1.000  C
  H20      1.0000 0.81813  0.24644  0.36760  Biso   1.000  H
  C28      1.0000 0.50712  0.96004  0.87186  Biso   1.000  C
  C29      1.0000 0.65963  0.02127  0.91250  Biso   1.000  C
  C30      1.0000 0.76427  0.40793  0.23154  Biso   1.000  C
  C31      1.0000 0.78215  0.29214  0.23529  Biso   1.000  C
  H21      1.0000 0.78306  0.47449  0.34608  Biso   1.000  H
  C32      1.0000 0.81008  0.17779  0.23679  Biso   1.000  C
  C33      1.0000 0.49484  0.01445  0.84958  Biso   1.000  C
  C34      1.0000 0.43170  0.89750  0.86190  Biso   1.000  C
  C35      1.0000 0.64693  0.07607  0.89065  Biso   1.000  C
  C36      1.0000 0.74844  0.02509  0.94784  Biso   1.000  C
  C37      1.0000 0.68331  0.39668  0.18763  Biso   1.000  C
  C38      1.0000 0.83491  0.46657  0.24428  Biso   1.000  C
  H22      1.0000 0.77429  0.27453  0.18640  Biso   1.000  H
  H23      1.0000 0.77880  0.15753  0.18442  Biso   1.000  H
  H24      1.0000 0.78417  0.14158  0.25269  Biso   1.000  H
  C39      1.0000 0.89760  0.18529  0.25156  Biso   1.000  C
  C40      1.0000 0.40770  0.01081  0.81140  Biso   1.000  C
  C41      1.0000 0.56529  0.07333  0.86008  Biso   1.000  C
  H25      1.0000 0.38304  0.88563  0.81815  Biso   1.000  H
  H26      1.0000 0.44572  0.85281  0.85467  Biso   1.000  H
  C42      1.0000 0.40583  0.91604  0.92524  Biso   1.000  C
  C43      1.0000 0.72495  0.13774  0.90270  Biso   1.000  C
  H27      1.0000 0.74695  0.97423  0.93665  Biso   1.000  H
  H28      1.0000 0.78523  0.04760  0.92755  Biso   1.000  H
  C44      1.0000 0.78671  0.07037  0.02939  Biso   1.000  C
  C45      1.0000 0.60741  0.33349  0.17553  Biso   1.000  C
  C46      1.0000 0.67230  0.44395  0.15539  Biso   1.000  C
  C47      1.0000 0.82364  0.51392  0.21157  Biso   1.000  C
  C48      1.0000 0.92206  0.47987  0.29403  Biso   1.000  C
  H29      1.0000 0.92792  0.20672  0.30420  Biso   1.000  H
  H30      1.0000 0.92240  0.22229  0.23598  Biso   1.000  H
  C49      1.0000 0.91691  0.12219  0.22147  Biso   1.000  C
  H31      1.0000 0.89402  0.13509  0.22297  Biso   1.000  H
  H32      1.0000 0.92167  0.19379  0.30217  Biso   1.000  H
  C50      1.0000 0.95890  0.23129  0.24439  Biso   1.000  C
  N2       1.0000 0.38521  0.98688  0.73408  Biso   1.000  N
  H33      1.0000 0.36566  0.97584  0.81868  Biso   1.000  H
  H34      1.0000 0.40526  0.06021  0.83239  Biso   1.000  H
  C51      1.0000 0.54968  0.13459  0.84117  Biso   1.000  C
  H35      1.0000 0.45413  0.92903  0.96894  Biso   1.000  H
  H36      1.0000 0.38790  0.95792  0.93065  Biso   1.000  H
  H37      1.0000 0.35895  0.87293  0.91689  Biso   1.000  H
  N3       1.0000 0.76242  0.11308  0.85054  Biso   1.000  N
  H38      1.0000 0.76772  0.15597  0.95175  Biso   1.000  H
  H39      1.0000 0.70922  0.17938  0.89895  Biso   1.000  H
  H40      1.0000 0.75283  0.04635  0.05011  Biso   1.000  H
  H41      1.0000 0.84493  0.07341  0.04937  Biso   1.000  H
  H42      1.0000 0.78676  0.12040  0.04085  Biso   1.000  H
  H43      1.0000 0.59122  0.29150  0.12969  Biso   1.000  H
  H44      1.0000 0.62188  0.31843  0.21440  Biso   1.000  H
  H45      1.0000 0.55999  0.34970  0.17462  Biso   1.000  H
  C52      1.0000 0.58561  0.43722  0.11411  Biso   1.000  C
  C53      1.0000 0.74289  0.50285  0.16648  Biso   1.000  C
  C54      1.0000 0.89947  0.57902  0.22827  Biso   1.000  C
  H46      1.0000 0.93209  0.51062  0.34340  Biso   1.000  H
  H47      1.0000 0.92591  0.43239  0.29017  Biso   1.000  H
  H48      1.0000 0.96477  0.50529  0.28069  Biso   1.000  H
  H49      1.0000 0.92107  0.09962  0.25547  Biso   1.000  H
  H50      1.0000 0.86587  0.08690  0.17767  Biso   1.000  H
  C55      1.0000 0.99040  0.12169  0.20080  Biso   1.000  C
  H51      1.0000 0.94112  0.21979  0.19288  Biso   1.000  H
  H52      1.0000 0.96253  0.28233  0.26961  Biso   1.000  H
  C56      1.0000 0.04580  0.23091  0.27079  Biso   1.000  C
  C57      1.0000 0.37954  0.91130  0.69906  Biso   1.000  C
  C58      1.0000 0.30683  0.99474  0.70109  Biso   1.000  C
  H53      1.0000 0.59598  0.15748  0.82896  Biso   1.000  H
  H54      1.0000 0.49583  0.11340  0.79855  Biso   1.000  H
  C59      1.0000 0.54525  0.19351  0.90356  Biso   1.000  C
  C60      1.0000 0.85127  0.16245  0.87892  Biso   1.000  C
  C61      1.0000 0.71500  0.10932  0.78216  Biso   1.000  C
  C62      1.0000 0.53493  0.38136  0.04471  Biso   1.000  C
  C63      1.0000 0.55425  0.48963  0.14527  Biso   1.000  C
  C64      1.0000 0.73267  0.55379  0.13130  Biso   1.000  C
  C65      1.0000 0.94300  0.57604  0.18399  Biso   1.000  C
  C66      1.0000 0.92929  0.64278  0.29189  Biso   1.000  C
  H55      1.0000 0.97983  0.12879  0.15641  Biso   1.000  H
  H56      1.0000 0.99428  0.07259  0.19020  Biso   1.000  H
  H57      1.0000 0.98913  0.15052  0.16439  Biso   1.000  H
  C67      1.0000 0.07057  0.17821  0.25547  Biso   1.000  C
  C68      1.0000 0.03760  0.16220  0.20739  Biso   1.000  C
  H58      1.0000 0.02917  0.11991  0.21928  Biso   1.000  H
  H59      1.0000 0.08931  0.27662  0.27861  Biso   1.000  H
  H60      1.0000 0.05935  0.22462  0.31566  Biso   1.000  H
  C69      1.0000 0.37582  0.88830  0.62393  Biso   1.000  C
  H61      1.0000 0.42912  0.90573  0.72835  Biso   1.000  H
  H62      1.0000 0.32837  0.87714  0.69767  Biso   1.000  H
  H63      1.0000 0.29308  0.97905  0.64980  Biso   1.000  H
  H64      1.0000 0.26107  0.96375  0.70779  Biso   1.000  H
  H65      1.0000 0.31347  0.04651  0.72348  Biso   1.000  H
  H66      1.0000 0.60155  0.22087  0.94254  Biso   1.000  H
  H67      1.0000 0.52545  0.22767  0.88765  Biso   1.000  H
  H68      1.0000 0.50574  0.16969  0.92048  Biso   1.000  H
  C70      1.0000 0.89727  0.13286  0.83405  Biso   1.000  C
  H69      1.0000 0.85374  0.21151  0.88085  Biso   1.000  H
  H70      1.0000 0.88034  0.16942  0.92835  Biso   1.000  H
  H71      1.0000 0.71669  0.15871  0.78795  Biso   1.000  H
  H72      1.0000 0.73996  0.09108  0.74816  Biso   1.000  H
  H73      1.0000 0.65603  0.07558  0.76385  Biso   1.000  H
  C71      1.0000 0.45572  0.37773  0.00589  Biso   1.000  C
  H74      1.0000 0.55522  0.34503  0.02372  Biso   1.000  H
  O3       1.0000 0.60037  0.54535  0.21312  Biso   1.000  O
  C72      1.0000 0.47594  0.48919  0.10656  Biso   1.000  C
  H75      1.0000 0.67283  0.53814  0.10131  Biso   1.000  H
  H76      1.0000 0.75317  0.60451  0.16819  Biso   1.000  H
  H77      1.0000 0.76540  0.55178  0.10147  Biso   1.000  H
  H78      1.0000 0.92161  0.53324  0.13992  Biso   1.000  H
  C73      1.0000 0.01760  0.63418  0.20219  Biso   1.000  C
  O4       1.0000 0.88820  0.64883  0.33724  Biso   1.000  O
  C74      1.0000 0.00407  0.70230  0.31207  Biso   1.000  C
  H79      1.0000 0.08169  0.17183  0.29970  Biso   1.000  H
  H80      1.0000 0.11600  0.17393  0.23909  Biso   1.000  H
  H81      1.0000 0.06839  0.22719  0.26458  Biso   1.000  H
  H82      1.0000 0.08930  0.17280  0.19839  Biso   1.000  H
  C75      1.0000 0.41265  0.93767  0.60032  Biso   1.000  C
  C76      1.0000 0.33753  0.81354  0.57692  Biso   1.000  C
  C77      1.0000 0.94227  0.17575  0.80910  Biso   1.000  C
  C78      1.0000 0.89796  0.06308  0.81815  Biso   1.000  C
  C79      1.0000 0.42800  0.43218  0.03695  Biso   1.000  C
  C80      1.0000 0.40059  0.31493  0.93248  Biso   1.000  C
  H83      1.0000 0.63601  0.53301  0.23630  Biso   1.000  H
  C81      1.0000 0.44518  0.54871  0.13478  Biso   1.000  C
  C82      1.0000 0.04726  0.69562  0.26699  Biso   1.000  C
  C83      1.0000 0.06236  0.63059  0.15218  Biso   1.000  C
  H84      1.0000 0.92157  0.65741  0.37799  Biso   1.000  H
  C84      1.0000 0.03780  0.77112  0.38008  Biso   1.000  C
  C85      1.0000 0.41078  0.91255  0.53194  Biso   1.000  C
  H85      1.0000 0.43913  0.98903  0.63148  Biso   1.000  H
  C86      1.0000 0.33554  0.78869  0.50859  Biso   1.000  C
  H86      1.0000 0.31237  0.77895  0.59218  Biso   1.000  H
  C87      1.0000 0.98385  0.14891  0.76771  Biso   1.000  C
  H87      1.0000 0.94450  0.22493  0.82077  Biso   1.000  H
  C88      1.0000 0.93949  0.03537  0.77649  Biso   1.000  C
  H88      1.0000 0.86936  0.03322  0.83609  Biso   1.000  H
  H89      1.0000 0.37469  0.43089  0.01028  Biso   1.000  H
  C89      1.0000 0.35484  0.24297  0.93628  Biso   1.000  C
  H90      1.0000 0.35785  0.32982  0.90640  Biso   1.000  H
  H91      1.0000 0.43612  0.30524  0.90522  Biso   1.000  H
  C90      1.0000 0.40883  0.57731  0.08958  Biso   1.000  C
  C91      1.0000 0.45174  0.57853  0.20551  Biso   1.000  C
  H92      1.0000 0.09906  0.73470  0.28118  Biso   1.000  H
  H93      1.0000 0.02628  0.63282  0.10929  Biso   1.000  H
  H94      1.0000 0.11535  0.67489  0.17628  Biso   1.000  H
  C92      1.0000 0.08380  0.56288  0.12798  Biso   1.000  C
  C93      1.0000 0.98917  0.81302  0.39379  Biso   1.000  C
  C94      1.0000 0.11986  0.79685  0.42972  Biso   1.000  C
  C95      1.0000 0.37125  0.83747  0.48353  Biso   1.000  C
  H95      1.0000 0.43718  0.94721  0.51727  Biso   1.000  H
  H96      1.0000 0.30914  0.73720  0.47780  Biso   1.000  H
  C96      1.0000 0.98142  0.07713  0.74832  Biso   1.000  C
  H97      1.0000 0.01476  0.18020  0.75218  Biso   1.000  H
  H98      1.0000 0.93945  0.98710  0.76685  Biso   1.000  H
  C97      1.0000 0.30118  0.17806  0.86340  Biso   1.000  C
  H99      1.0000 0.31823  0.25261  0.96241  Biso   1.000  H
  H100     1.0000 0.39774  0.22942  0.96402  Biso   1.000  H
  H101     1.0000 0.40288  0.55742  0.04118  Biso   1.000  H
  C98      1.0000 0.38103  0.63414  0.11347  Biso   1.000  C
  C99      1.0000 0.42423  0.63599  0.23036  Biso   1.000  C
  H102     1.0000 0.47531  0.55931  0.23721  Biso   1.000  H
  H103     1.0000 0.12299  0.56060  0.16932  Biso   1.000  H
  H104     1.0000 0.03197  0.51728  0.10297  Biso   1.000  H
  C100     1.0000 0.12857  0.57230  0.07368  Biso   1.000  C
  H105     1.0000 0.02797  0.52141  0.10319  Biso   1.000  H
  H106     1.0000 0.11178  0.56011  0.17312  Biso   1.000  H
  C101     1.0000 0.12810  0.54104  0.08782  Biso   1.000  C
  H107     1.0000 0.93269  0.79610  0.36027  Biso   1.000  H
  C102     1.0000 0.02115  0.87895  0.45531  Biso   1.000  C
  H108     1.0000 0.15478  0.76990  0.42056  Biso   1.000  H
  C103     1.0000 0.15240  0.86159  0.49306  Biso   1.000  C
  C104     1.0000 0.36844  0.80970  0.41001  Biso   1.000  C
  C105     1.0000 0.02315  0.04696  0.70115  Biso   1.000  C
  C106     1.0000 0.25627  0.10636  0.86485  Biso   1.000  C
  H109     1.0000 0.33785  0.16921  0.83711  Biso   1.000  H
  H110     1.0000 0.25808  0.19173  0.83615  Biso   1.000  H
  H111     1.0000 0.35598  0.65244  0.08150  Biso   1.000  H
  C107     1.0000 0.38979  0.66390  0.18361  Biso   1.000  C
  H112     1.0000 0.42888  0.65571  0.27839  Biso   1.000  H
  H113     1.0000 0.18229  0.61623  0.10040  Biso   1.000  H
  H114     1.0000 0.09110  0.58023  0.03572  Biso   1.000  H
  C108     1.0000 0.14691  0.50240  0.03898  Biso   1.000  C
  H115     1.0000 0.09581  0.53542  0.03952  Biso   1.000  H
  H116     1.0000 0.18168  0.58410  0.10779  Biso   1.000  H
  C109     1.0000 0.15297  0.47391  0.07550  Biso   1.000  C
  H117     1.0000 0.98789  0.90782  0.46308  Biso   1.000  H
  C110     1.0000 0.10263  0.90178  0.50506  Biso   1.000  C
  H118     1.0000 0.20817  0.87773  0.52749  Biso   1.000  H
  C111     1.0000 0.43340  0.84309  0.39352  Biso   1.000  C
  C112     1.0000 0.30074  0.74665  0.35480  Biso   1.000  C
  C113     1.0000 0.99246  0.97212  0.65606  Biso   1.000  C
  C114     1.0000 0.09428  0.09324  0.69997  Biso   1.000  C
  C115     1.0000 0.18623  0.10693  0.88980  Biso   1.000  C
  H119     1.0000 0.29833  0.09540  0.89660  Biso   1.000  H
  H120     1.0000 0.23296  0.06582  0.81601  Biso   1.000  H
  O5       1.0000 0.36374  0.72250  0.20353  Biso   1.000  O
  H121     1.0000 0.17713  0.51064  0.00841  Biso   1.000  H
  H122     1.0000 0.09263  0.45983  0.00782  Biso   1.000  H
  C116     1.0000 0.19939  0.48394  0.09381  Biso   1.000  C
  C117     1.0000 0.18648  0.45770  0.01590  Biso   1.000  C
  H123     1.0000 0.16889  0.47383  0.12300  Biso   1.000  H
  H124     1.0000 0.19710  0.48249  0.12059  Biso   1.000  H
  H125     1.0000 0.10308  0.43002  0.06260  Biso   1.000  H
  O6       1.0000 0.14112  0.96845  0.56658  Biso   1.000  O
  C118     1.0000 0.43208  0.81433  0.32503  Biso   1.000  C
  H126     1.0000 0.47957  0.88664  0.42988  Biso   1.000  H
  C119     1.0000 0.29970  0.71726  0.28637  Biso   1.000  C
  H127     1.0000 0.25467  0.72340  0.36407  Biso   1.000  H
  C120     1.0000 0.02956  0.94417  0.61038  Biso   1.000  C
  H128     1.0000 0.94487  0.93912  0.65660  Biso   1.000  H
  C121     1.0000 0.13114  0.06570  0.65376  Biso   1.000  C
  H129     1.0000 0.11798  0.14449  0.73146  Biso   1.000  H
  H130     1.0000 0.20752  0.14933  0.93655  Biso   1.000  H
  H131     1.0000 0.14051  0.11103  0.85510  Biso   1.000  H
  H132     1.0000 0.16457  0.06102  0.89414  Biso   1.000  H
  C122     1.0000 0.36588  0.75093  0.27239  Biso   1.000  C
  H133     1.0000 0.21000  0.44010  0.06929  Biso   1.000  H
  H134     1.0000 0.25338  0.52579  0.12471  Biso   1.000  H
  H135     1.0000 0.13902  0.42505  0.96964  Biso   1.000  H
  H136     1.0000 0.22653  0.43352  0.02522  Biso   1.000  H
  H137     1.0000 0.21519  0.50420  0.01510  Biso   1.000  H
  C123     1.0000 0.09753  0.99091  0.60846  Biso   1.000  C
  H138     1.0000 0.47658  0.83830  0.31470  Biso   1.000  H
  H139     1.0000 0.25348  0.67413  0.24937  Biso   1.000  H
  H140     1.0000 0.00782  0.89261  0.58045  Biso   1.000  H
  H141     1.0000 0.17907  0.09802  0.65328  Biso   1.000  H
  C124     1.0000 0.28850  0.48612  0.26538  Biso   1.000  C
  C125     1.0000 0.23380  0.41180  0.22592  Biso   1.000  C
  C126     1.0000 0.26225  0.53974  0.29981  Biso   1.000  C
  H142     1.0000 0.34497  0.50009  0.26849  Biso   1.000  H
  C127     1.0000 0.26227  0.35568  0.18843  Biso   1.000  C
  C128     1.0000 0.15181  0.39336  0.22329  Biso   1.000  C
  C129     1.0000 0.18155  0.51962  0.29745  Biso   1.000  C
  H143     1.0000 0.29986  0.59021  0.32498  Biso   1.000  H
  C130     1.0000 0.23423  0.28364  0.18211  Biso   1.000  C
  C131     1.0000 0.32039  0.37341  0.15845  Biso   1.000  C
  H144     1.0000 0.11300  0.34330  0.19657  Biso   1.000  H
  C132     1.0000 0.12586  0.44660  0.25890  Biso   1.000  C
  O7       1.0000 0.15309  0.57293  0.33076  Biso   1.000  O
  C133     1.0000 0.26329  0.23188  0.14859  Biso   1.000  C
  H145     1.0000 0.19428  0.26980  0.20128  Biso   1.000  H
  C134     1.0000 0.34940  0.32083  0.12498  Biso   1.000  C
  H146     1.0000 0.34022  0.42171  0.16102  Biso   1.000  H
  H147     1.0000 0.06990  0.43302  0.25697  Biso   1.000  H
  C135     1.0000 0.16789  0.59156  0.40225  Biso   1.000  C
  C136     1.0000 0.32270  0.25074  0.12011  Biso   1.000  C
  H148     1.0000 0.24289  0.18313  0.14490  Biso   1.000  H
  H149     1.0000 0.38872  0.33401  0.10501  Biso   1.000  H
  C137     1.0000 0.22950  0.57937  0.44755  Biso   1.000  C
  C138     1.0000 0.11689  0.62484  0.42736  Biso   1.000  C
  C139     1.0000 0.35388  0.19518  0.08268  Biso   1.000  C
  H150     1.0000 0.26446  0.55682  0.43036  Biso   1.000  H
  C140     1.0000 0.23940  0.60060  0.51893  Biso   1.000  C
  C141     1.0000 0.12759  0.64535  0.49804  Biso   1.000  C
  H151     1.0000 0.07496  0.63342  0.39620  Biso   1.000  H
  N4       1.0000 0.37180  0.14708  0.11695  Biso   1.000  N
  H152     1.0000 0.31099  0.16369  0.03320  Biso   1.000  H
  H153     1.0000 0.40619  0.22189  0.07957  Biso   1.000  H
  H154     1.0000 0.28179  0.59252  0.55020  Biso   1.000  H
  C142     1.0000 0.18876  0.63321  0.54500  Biso   1.000  C
  H155     1.0000 0.09264  0.66813  0.51507  Biso   1.000  H
  C143     1.0000 0.39491  0.09283  0.07025  Biso   1.000  C
  C144     1.0000 0.43818  0.19157  0.18881  Biso   1.000  C
  C145     1.0000 0.19877  0.65744  0.62088  Biso   1.000  C
  C146     1.0000 0.41031  0.03595  0.09617  Biso   1.000  C
  H156     1.0000 0.44683  0.11949  0.06651  Biso   1.000  H
  H157     1.0000 0.34900  0.06688  0.02169  Biso   1.000  H
  H158     1.0000 0.45547  0.15888  0.20878  Biso   1.000  H
  H159     1.0000 0.41679  0.22191  0.21938  Biso   1.000  H
  H160     1.0000 0.48701  0.22393  0.18650  Biso   1.000  H
  C147     1.0000 0.21363  0.61510  0.65922  Biso   1.000  C
  C148     1.0000 0.19248  0.72459  0.65735  Biso   1.000  C
  C149     1.0000 0.49287  0.04001  0.12814  Biso   1.000  C
  C150     1.0000 0.34028  0.97875  0.08744  Biso   1.000  C
  O8       1.0000 0.21781  0.54722  0.62725  Biso   1.000  O
  C151     1.0000 0.22316  0.64041  0.73081  Biso   1.000  C
  C152     1.0000 0.20082  0.75058  0.72733  Biso   1.000  C
  H161     1.0000 0.18187  0.75361  0.63239  Biso   1.000  H
  C153     1.0000 0.56823  0.10254  0.13810  Biso   1.000  C
  C154     1.0000 0.50507  0.98557  0.15036  Biso   1.000  C
  C155     1.0000 0.35304  0.92395  0.10929  Biso   1.000  C
  C156     1.0000 0.25150  0.97496  0.05216  Biso   1.000  C
  H162     1.0000 0.21685  0.52553  0.65387  Biso   1.000  H
  C157     1.0000 0.21781  0.70788  0.76465  Biso   1.000  C
  C158     1.0000 0.23564  0.59210  0.76840  Biso   1.000  C
  C159     1.0000 0.18983  0.82223  0.76316  Biso   1.000  C
  H163     1.0000 0.61687  0.11439  0.18179  Biso   1.000  H
  H164     1.0000 0.55419  0.14722  0.14527  Biso   1.000  H
  C160     1.0000 0.59411  0.08401  0.07475  Biso   1.000  C
  C161     1.0000 0.59229  0.98924  0.18859  Biso   1.000  C
  C162     1.0000 0.43462  0.92669  0.13987  Biso   1.000  C
  C163     1.0000 0.27502  0.86228  0.09724  Biso   1.000  C
  H165     1.0000 0.25302  0.02579  0.06329  Biso   1.000  H
  C164     1.0000 0.21320  0.92965  0.97055  Biso   1.000  C
  H166     1.0000 0.21468  0.95242  0.07240  Biso   1.000  H
  H167     1.0000 0.22562  0.72549  0.81354  Biso   1.000  H
  C165     1.0000 0.31663  0.60336  0.81237  Biso   1.000  C
  C166     1.0000 0.16509  0.53348  0.75571  Biso   1.000  C
  H168     1.0000 0.22114  0.84252  0.81558  Biso   1.000  H
  H169     1.0000 0.21574  0.85844  0.74725  Biso   1.000  H
  C167     1.0000 0.10236  0.81473  0.74838  Biso   1.000  C
  H170     1.0000 0.54578  0.07099  0.03100  Biso   1.000  H
  H171     1.0000 0.61201  0.04210  0.06929  Biso   1.000  H
  H172     1.0000 0.64104  0.12711  0.08311  Biso   1.000  H
  N5       1.0000 0.61470  0.01314  0.26586  Biso   1.000  N
  H173     1.0000 0.63433  0.02420  0.18131  Biso   1.000  H
  H174     1.0000 0.59468  0.93983  0.16760  Biso   1.000  H
  C168     1.0000 0.45028  0.86543  0.15877  Biso   1.000  C
  N6       1.0000 0.23754  0.88694  0.14940  Biso   1.000  N
  H175     1.0000 0.23219  0.84405  0.04819  Biso   1.000  H
  H176     1.0000 0.29069  0.82064  0.10099  Biso   1.000  H
  H177     1.0000 0.24714  0.95367  0.94983  Biso   1.000  H
  H178     1.0000 0.15500  0.92664  0.95063  Biso   1.000  H
  H179     1.0000 0.21323  0.87964  0.95914  Biso   1.000  H
  C169     1.0000 0.32761  0.55607  0.84455  Biso   1.000  C
  C170     1.0000 0.39255  0.66653  0.82441  Biso   1.000  C
  C171     1.0000 0.17627  0.48610  0.78838  Biso   1.000  C
  C172     1.0000 0.07786  0.52015  0.70591  Biso   1.000  C
  H180     1.0000 0.07208  0.79332  0.69579  Biso   1.000  H
  H181     1.0000 0.07751  0.77773  0.76396  Biso   1.000  H
  C173     1.0000 0.08306  0.87783  0.77847  Biso   1.000  C
  H182     1.0000 0.10595  0.86493  0.77697  Biso   1.000  H
  H183     1.0000 0.07824  0.80623  0.69777  Biso   1.000  H
  C174     1.0000 0.04101  0.76873  0.75555  Biso   1.000  C
  C175     1.0000 0.62039  0.08875  0.30094  Biso   1.000  C
  C176     1.0000 0.69308  0.00528  0.29885  Biso   1.000  C
  H184     1.0000 0.40399  0.84254  0.17098  Biso   1.000  H
  H185     1.0000 0.50408  0.88662  0.20139  Biso   1.000  H
  C177     1.0000 0.45466  0.80651  0.09639  Biso   1.000  C
  C178     1.0000 0.14872  0.83760  0.12107  Biso   1.000  C
  C179     1.0000 0.28497  0.89070  0.21778  Biso   1.000  C
  C180     1.0000 0.41430  0.56280  0.88583  Biso   1.000  C
  C181     1.0000 0.25710  0.49720  0.83352  Biso   1.000  C
  H186     1.0000 0.40875  0.70852  0.87025  Biso   1.000  H
  H187     1.0000 0.37805  0.68161  0.78559  Biso   1.000  H
  H188     1.0000 0.43994  0.65034  0.82538  Biso   1.000  H
  C182     1.0000 0.10044  0.42100  0.77167  Biso   1.000  C
  H189     1.0000 0.06784  0.48943  0.65660  Biso   1.000  H
  H190     1.0000 0.07406  0.56763  0.70977  Biso   1.000  H
  H191     1.0000 0.03514  0.49473  0.71925  Biso   1.000  H
  H192     1.0000 0.07884  0.90041  0.74447  Biso   1.000  H
  H193     1.0000 0.13404  0.91312  0.82227  Biso   1.000  H
  C183     1.0000 0.00954  0.87836  0.79919  Biso   1.000  C
  H194     1.0000 0.05885  0.78023  0.80706  Biso   1.000  H
  H195     1.0000 0.03746  0.71772  0.73038  Biso   1.000  H
  C184     1.0000 0.95417  0.76911  0.72915  Biso   1.000  C
  C185     1.0000 0.62409  0.11172  0.37601  Biso   1.000  C
  H196     1.0000 0.57079  0.09430  0.27159  Biso   1.000  H
  H197     1.0000 0.67160  0.12288  0.30227  Biso   1.000  H
  H198     1.0000 0.70692  0.02100  0.35020  Biso   1.000  H
  H199     1.0000 0.73892  0.03630  0.29221  Biso   1.000  H
  H200     1.0000 0.68644  0.95351  0.27646  Biso   1.000  H
  H201     1.0000 0.39841  0.77915  0.05740  Biso   1.000  H
  H202     1.0000 0.47446  0.77235  0.11229  Biso   1.000  H
  H203     1.0000 0.49420  0.83035  0.07952  Biso   1.000  H
  C186     1.0000 0.10264  0.86716  0.16589  Biso   1.000  C
  H204     1.0000 0.14617  0.78851  0.11909  Biso   1.000  H
  H205     1.0000 0.11957  0.83060  0.07159  Biso   1.000  H
  H206     1.0000 0.28328  0.84131  0.21199  Biso   1.000  H
  H207     1.0000 0.25995  0.90895  0.25178  Biso   1.000  H
  H208     1.0000 0.34388  0.92444  0.23609  Biso   1.000  H
  C187     1.0000 0.46504  0.61866  0.95523  Biso   1.000  C
  C188     1.0000 0.44566  0.51039  0.85467  Biso   1.000  C
  C189     1.0000 0.26726  0.44628  0.86864  Biso   1.000  C
  C190     1.0000 0.05694  0.42400  0.81601  Biso   1.000  C
  C191     1.0000 0.07068  0.35724  0.70806  Biso   1.000  C
  H209     1.0000 0.02016  0.87125  0.84358  Biso   1.000  H
  H210     1.0000 0.00565  0.92746  0.80979  Biso   1.000  H
  H211     1.0000 0.01083  0.84950  0.83555  Biso   1.000  H
  C192     1.0000 0.92934  0.82181  0.74447  Biso   1.000  C
  C193     1.0000 0.96236  0.83782  0.79255  Biso   1.000  C
  H212     1.0000 0.97074  0.88011  0.78067  Biso   1.000  H
  H213     1.0000 0.91068  0.72343  0.72139  Biso   1.000  H
  H214     1.0000 0.94056  0.77540  0.68428  Biso   1.000  H
  C194     1.0000 0.58726  0.06235  0.39962  Biso   1.000  C
  C195     1.0000 0.66238  0.18648  0.42302  Biso   1.000  C
  C196     1.0000 0.10195  0.93694  0.18179  Biso   1.000  C
  C197     1.0000 0.05767  0.82430  0.19090  Biso   1.000  C
  C198     1.0000 0.54427  0.62232  0.99410  Biso   1.000  C
  H215     1.0000 0.44472  0.65502  0.97627  Biso   1.000  H
  O9       1.0000 0.39962  0.45470  0.78688  Biso   1.000  O
  C199     1.0000 0.52397  0.51083  0.89338  Biso   1.000  C
  H216     1.0000 0.32711  0.46191  0.89868  Biso   1.000  H
  H217     1.0000 0.24674  0.39551  0.83175  Biso   1.000  H
  H218     1.0000 0.23451  0.44824  0.89847  Biso   1.000  H
  H219     1.0000 0.07833  0.46680  0.86008  Biso   1.000  H
  C200     1.0000 0.98237  0.36584  0.79775  Biso   1.000  C
  O10      1.0000 0.11171  0.35119  0.66270  Biso   1.000  O
  C201     1.0000 0.99592  0.29774  0.68792  Biso   1.000  C
  H220     1.0000 0.91824  0.82822  0.70029  Biso   1.000  H
  H221     1.0000 0.88397  0.82609  0.76085  Biso   1.000  H
  H222     1.0000 0.93158  0.77283  0.73536  Biso   1.000  H
  H223     1.0000 0.91066  0.82722  0.80155  Biso   1.000  H
  C202     1.0000 0.58918  0.08747  0.46800  Biso   1.000  C
  H224     1.0000 0.56080  0.01102  0.36851  Biso   1.000  H
  H225     1.0000 0.68754  0.22108  0.40776  Biso   1.000  H
  C203     1.0000 0.66439  0.21135  0.49140  Biso   1.000  C
  C204     1.0000 0.06045  0.96467  0.22351  Biso   1.000  C
  H226     1.0000 0.13058  0.96682  0.16391  Biso   1.000  H
  C205     1.0000 0.01606  0.85111  0.23223  Biso   1.000  C
  H227     1.0000 0.05547  0.77510  0.17917  Biso   1.000  H
  C206     1.0000 0.57197  0.56784  0.96299  Biso   1.000  C
  C207     1.0000 0.59932  0.68510  0.06746  Biso   1.000  C
  H228     1.0000 0.36398  0.46704  0.76369  Biso   1.000  H
  C208     1.0000 0.55475  0.45134  0.86522  Biso   1.000  C
  C209     1.0000 0.95268  0.30442  0.73301  Biso   1.000  C
  C210     1.0000 0.93755  0.36943  0.84776  Biso   1.000  C
  H229     1.0000 0.07834  0.34261  0.62195  Biso   1.000  H
  C211     1.0000 0.96213  0.22893  0.61992  Biso   1.000  C
  C212     1.0000 0.62866  0.16255  0.51641  Biso   1.000  C
  H230     1.0000 0.56279  0.05281  0.48267  Biso   1.000  H
  H231     1.0000 0.69079  0.26284  0.52219  Biso   1.000  H
  H232     1.0000 0.06046  0.01292  0.23309  Biso   1.000  H
  C213     1.0000 0.01851  0.92292  0.25167  Biso   1.000  C
  H233     1.0000 0.98517  0.81985  0.24782  Biso   1.000  H
  H234     1.0000 0.62522  0.56913  0.98966  Biso   1.000  H
  C214     1.0000 0.64508  0.75705  0.06366  Biso   1.000  C
  H235     1.0000 0.64212  0.67021  0.09354  Biso   1.000  H
  H236     1.0000 0.56379  0.69478  0.09472  Biso   1.000  H
  C215     1.0000 0.59108  0.42271  0.91036  Biso   1.000  C
  C216     1.0000 0.54817  0.42149  0.79443  Biso   1.000  C
  H237     1.0000 0.90085  0.26532  0.71876  Biso   1.000  H
  H238     1.0000 0.97363  0.36720  0.89065  Biso   1.000  H
  H239     1.0000 0.88456  0.32513  0.82366  Biso   1.000  H
  C217     1.0000 0.91617  0.43714  0.87196  Biso   1.000  C
  C218     1.0000 0.01077  0.18702  0.60621  Biso   1.000  C
  C219     1.0000 0.88005  0.20317  0.57022  Biso   1.000  C
  C220     1.0000 0.63150  0.19035  0.58998  Biso   1.000  C
  C221     1.0000 0.97678  0.95309  0.29885  Biso   1.000  C
  C222     1.0000 0.69881  0.82198  0.13659  Biso   1.000  C
  H240     1.0000 0.68168  0.74741  0.03753  Biso   1.000  H
  H241     1.0000 0.60222  0.77060  0.03592  Biso   1.000  H
  C223     1.0000 0.61890  0.36590  0.88653  Biso   1.000  C
  H242     1.0000 0.59703  0.44260  0.95876  Biso   1.000  H
  C224     1.0000 0.57573  0.36403  0.76958  Biso   1.000  C
  H243     1.0000 0.52468  0.44073  0.76278  Biso   1.000  H
  H244     1.0000 0.87695  0.43944  0.83068  Biso   1.000  H
  H245     1.0000 0.96794  0.48275  0.89697  Biso   1.000  H
  C225     1.0000 0.87134  0.42772  0.92626  Biso   1.000  C
  H246     1.0000 0.97194  0.47861  0.89676  Biso   1.000  H
  H247     1.0000 0.88815  0.43994  0.82688  Biso   1.000  H
  C226     1.0000 0.87184  0.45900  0.91218  Biso   1.000  C
  C227     1.0000 0.97876  0.12107  0.54463  Biso   1.000  C
  H248     1.0000 0.06727  0.20392  0.63968  Biso   1.000  H
  C228     1.0000 0.84751  0.13843  0.50688  Biso   1.000  C
  H249     1.0000 0.84519  0.23012  0.57938  Biso   1.000  H
  C229     1.0000 0.56656  0.15693  0.60642  Biso   1.000  C
  C230     1.0000 0.69920  0.25340  0.64519  Biso   1.000  C
  C231     1.0000 0.00745  0.02790  0.34388  Biso   1.000  C
  C232     1.0000 0.90563  0.90678  0.29997  Biso   1.000  C
  C233     1.0000 0.74372  0.89369  0.13515  Biso   1.000  C
  H250     1.0000 0.66211  0.83081  0.16283  Biso   1.000  H
  H251     1.0000 0.74191  0.80832  0.16385  Biso   1.000  H
  C234     1.0000 0.61012  0.33612  0.81633  Biso   1.000  C
  H252     1.0000 0.64393  0.34758  0.91844  Biso   1.000  H
  H253     1.0000 0.57103  0.34431  0.72155  Biso   1.000  H
  H254     1.0000 0.81762  0.38380  0.89954  Biso   1.000  H
  H255     1.0000 0.90884  0.41982  0.96428  Biso   1.000  H
  C235     1.0000 0.85306  0.49762  0.96096  Biso   1.000  C
  H256     1.0000 0.90412  0.46462  0.96048  Biso   1.000  H
  H257     1.0000 0.81823  0.41592  0.89215  Biso   1.000  H
  C236     1.0000 0.84694  0.52611  0.92444  Biso   1.000  C
  C237     1.0000 0.89728  0.09824  0.49488  Biso   1.000  C
  H258     1.0000 0.01202  0.09220  0.53686  Biso   1.000  H
  H259     1.0000 0.79177  0.12232  0.47250  Biso   1.000  H
  C238     1.0000 0.56783  0.18569  0.67491  Biso   1.000  C
  H260     1.0000 0.52034  0.11338  0.57006  Biso   1.000  H
  H261     1.0000 0.74529  0.27663  0.63587  Biso   1.000  H
  C239     1.0000 0.70027  0.28276  0.71357  Biso   1.000  C
  H262     1.0000 0.05507  0.06092  0.34340  Biso   1.000  H
  C240     1.0000 0.97043  0.05588  0.38961  Biso   1.000  C
  C241     1.0000 0.86882  0.93432  0.34618  Biso   1.000  C
  H263     1.0000 0.88199  0.85554  0.26849  Biso   1.000  H
  C242     1.0000 0.81368  0.89309  0.11014  Biso   1.000  C
  H264     1.0000 0.70158  0.90462  0.10334  Biso   1.000  H
  H265     1.0000 0.76701  0.93420  0.18393  Biso   1.000  H
  O11      1.0000 0.63620  0.27755  0.79646  Biso   1.000  O
  H266     1.0000 0.82286  0.48941  0.99159  Biso   1.000  H
  H267     1.0000 0.90737  0.54022  0.99218  Biso   1.000  H
  C243     1.0000 0.80054  0.51610  0.90618  Biso   1.000  C
  C244     1.0000 0.81343  0.54232  0.98404  Biso   1.000  C
  H268     1.0000 0.83102  0.52619  0.87694  Biso   1.000  H
  H269     1.0000 0.80287  0.51754  0.87935  Biso   1.000  H
  H270     1.0000 0.89683  0.57000  0.93734  Biso   1.000  H
  O12      1.0000 0.85888  0.03159  0.43341  Biso   1.000  O
  C245     1.0000 0.63403  0.24909  0.72755  Biso   1.000  C
  H271     1.0000 0.52336  0.16174  0.68530  Biso   1.000  H
  H272     1.0000 0.74643  0.32590  0.75057  Biso   1.000  H
  C246     1.0000 0.90244  0.00911  0.39148  Biso   1.000  C
  H273     1.0000 0.99209  0.10741  0.41949  Biso   1.000  H
  H274     1.0000 0.82084  0.90200  0.34666  Biso   1.000  H
  H275     1.0000 0.79241  0.85071  0.06345  Biso   1.000  H
  H276     1.0000 0.85940  0.88899  0.14484  Biso   1.000  H
  H277     1.0000 0.83543  0.93903  0.10586  Biso   1.000  H
  H278     1.0000 0.78991  0.55992  0.93065  Biso   1.000  H
  H279     1.0000 0.74656  0.47425  0.87528  Biso   1.000  H
  H280     1.0000 0.77346  0.56652  0.97477  Biso   1.000  H
  H281     1.0000 0.78472  0.49582  0.98484  Biso   1.000  H
  H282     1.0000 0.86092  0.57500  0.03036  Biso   1.000  H
  Ne1      1.0000 0.26684  0.33690  0.54022  Biso   1.000  Ne
  He1      1.0000 0.26826  0.13716  0.55870  Biso   1.000  He
  He2      1.0000 0.40440  0.35550  0.48502  Biso   1.000  He
  He3      1.0000 0.13765  0.31608  0.41996  Biso   1.000  He
  Ar1      1.0000 0.33487  0.33037  0.48469  Biso   1.000  Ar
  Ne2      1.0000 0.73310  0.66312  0.45974  Biso   1.000  Ne
  He4      1.0000 0.94589  0.67965  0.59257  Biso   1.000  He
  He5      1.0000 0.60278  0.64966  0.51556  Biso   1.000  He
  He6      1.0000 0.72768  0.84343  0.43931  Biso   1.000  He
  Ar2      1.0000 0.66529  0.66971  0.51538  Biso   1.000  Ar
