data_image0
_cell_length_a       11.389
_cell_length_b       10.686
_cell_length_c       31.958
_cell_angle_alpha    90
_cell_angle_beta     93.2
_cell_angle_gamma    90

_symmetry_space_group_name_H-M    "P 1"
_symmetry_int_tables_number       1

loop_
  _symmetry_equiv_pos_as_xyz
  'x, y, z'

loop_
  _atom_site_label
  _atom_site_occupancy
  _atom_site_fract_x
  _atom_site_fract_y
  _atom_site_fract_z
  _atom_site_thermal_displace_type
  _atom_site_B_iso_or_equiv
  _atom_site_type_symbol
  C1       1.0000 0.61833  0.45677  0.54610  Biso   1.000  C
  C2       1.0000 0.59052  0.31892  0.54961  Biso   1.000  C
  N1       1.0000 0.72516  0.48662  0.54591  Biso   1.000  N
  N2       1.0000 0.48628  0.29478  0.54669  Biso   1.000  N
  C3       1.0000 0.68070  0.22777  0.55240  Biso   1.000  C
  C4       1.0000 0.74783  0.62259  0.53701  Biso   1.000  C
  C5       1.0000 0.45192  0.17088  0.54820  Biso   1.000  C
  C6       1.0000 0.64338  0.10013  0.55691  Biso   1.000  C
  C7       1.0000 0.84681  0.66713  0.56860  Biso   1.000  C
  C8       1.0000 0.32613  0.14645  0.54221  Biso   1.000  C
  C9       1.0000 0.52819  0.07646  0.55080  Biso   1.000  C
  N3       1.0000 0.80099  0.68314  0.61129  Biso   1.000  N
  N4       1.0000 0.28548  0.04052  0.53551  Biso   1.000  N
  C10      1.0000 0.74603  0.81387  0.61690  Biso   1.000  C
  C11      1.0000 0.88764  0.65637  0.64369  Biso   1.000  C
  C12      1.0000 0.16037  0.02704  0.53281  Biso   1.000  C
  C13      1.0000 0.64427  0.80741  0.64331  Biso   1.000  C
  C14      1.0000 0.88052  0.51114  0.65319  Biso   1.000  C
  C15      1.0000 0.11637  0.95302  0.56750  Biso   1.000  C
  N5       1.0000 0.54443  0.76858  0.61968  Biso   1.000  N
  N6       1.0000 0.78259  0.48044  0.67600  Biso   1.000  N
  N7       1.0000 0.12311  0.02611  0.60658  Biso   1.000  N
  C16      1.0000 0.49314  0.67078  0.63141  Biso   1.000  C
  C17      1.0000 0.70568  0.39856  0.66090  Biso   1.000  C
  C18      1.0000 0.01976  0.10659  0.61160  Biso   1.000  C
  C19      1.0000 0.14176  0.93730  0.64551  Biso   1.000  C
  C20      1.0000 0.38970  0.62839  0.60950  Biso   1.000  C
  C21      1.0000 0.60306  0.35701  0.68011  Biso   1.000  C
  C22      1.0000 0.04241  0.22104  0.63849  Biso   1.000  C
  C23      1.0000 0.27144  0.93356  0.65610  Biso   1.000  C
  N8       1.0000 0.33930  0.52283  0.62520  Biso   1.000  N
  C24      1.0000 0.35400  0.67602  0.57161  Biso   1.000  C
  N9       1.0000 0.54616  0.25809  0.66660  Biso   1.000  N
  C25      1.0000 0.56978  0.41522  0.71931  Biso   1.000  C
  N10      1.0000 0.09616  0.32107  0.61219  Biso   1.000  N
  N11      1.0000 0.31783  0.04351  0.67929  Biso   1.000  N
  C26      1.0000 0.23830  0.48344  0.60260  Biso   1.000  C
  C27      1.0000 0.24479  0.63354  0.55212  Biso   1.000  C
  C28      1.0000 0.45500  0.21804  0.68779  Biso   1.000  C
  C29      1.0000 0.47388  0.37516  0.73549  Biso   1.000  C
  C30      1.0000 0.19086  0.36852  0.62319  Biso   1.000  C
  C31      1.0000 0.40706  0.10369  0.66481  Biso   1.000  C
  C32      1.0000 0.18657  0.52704  0.57001  Biso   1.000  C
  C33      1.0000 0.41114  0.26689  0.72060  Biso   1.000  C
  C34      1.0000 0.38166  0.54323  0.45390  Biso   1.000  C
  N12      1.0000 0.27483  0.51338  0.45408  Biso   1.000  N
  C35      1.0000 0.40947  0.68108  0.45039  Biso   1.000  C
  C36      1.0000 0.25217  0.37741  0.46298  Biso   1.000  C
  C37      1.0000 0.31930  0.77223  0.44760  Biso   1.000  C
  N13      1.0000 0.51371  0.70522  0.45330  Biso   1.000  N
  C38      1.0000 0.15318  0.33287  0.43139  Biso   1.000  C
  C39      1.0000 0.35662  0.89987  0.44312  Biso   1.000  C
  C40      1.0000 0.54807  0.82912  0.45180  Biso   1.000  C
  N14      1.0000 0.19900  0.31686  0.38871  Biso   1.000  N
  C41      1.0000 0.47180  0.92354  0.44920  Biso   1.000  C
  C42      1.0000 0.67387  0.85355  0.45781  Biso   1.000  C
  C43      1.0000 0.25397  0.18613  0.38310  Biso   1.000  C
  C44      1.0000 0.11244  0.34363  0.35630  Biso   1.000  C
  N15      1.0000 0.71452  0.95948  0.46449  Biso   1.000  N
  C45      1.0000 0.35573  0.19259  0.35671  Biso   1.000  C
  C46      1.0000 0.11947  0.48886  0.34681  Biso   1.000  C
  C47      1.0000 0.83962  0.97296  0.46718  Biso   1.000  C
  N16      1.0000 0.45557  0.23142  0.38031  Biso   1.000  N
  N17      1.0000 0.21740  0.51956  0.32399  Biso   1.000  N
  C48      1.0000 0.88362  0.04698  0.43249  Biso   1.000  C
  C49      1.0000 0.50694  0.32922  0.36859  Biso   1.000  C
  C50      1.0000 0.29431  0.60144  0.33910  Biso   1.000  C
  N18      1.0000 0.87688  0.97389  0.39341  Biso   1.000  N
  C51      1.0000 0.61029  0.37161  0.39050  Biso   1.000  C
  C52      1.0000 0.39693  0.64299  0.31989  Biso   1.000  C
  C53      1.0000 0.98023  0.89341  0.38840  Biso   1.000  C
  C54      1.0000 0.85823  0.06270  0.35449  Biso   1.000  C
  C55      1.0000 0.64599  0.32398  0.42839  Biso   1.000  C
  N19      1.0000 0.66069  0.47717  0.37479  Biso   1.000  N
  N20      1.0000 0.45384  0.74191  0.33339  Biso   1.000  N
  C56      1.0000 0.43022  0.58478  0.28071  Biso   1.000  C
  C57      1.0000 0.95758  0.77896  0.36151  Biso   1.000  C
  C58      1.0000 0.72864  0.06644  0.34389  Biso   1.000  C
  C59      1.0000 0.75521  0.36646  0.44791  Biso   1.000  C
  C60      1.0000 0.76169  0.51656  0.39739  Biso   1.000  C
  C61      1.0000 0.54500  0.78196  0.31221  Biso   1.000  C
  C62      1.0000 0.52611  0.62484  0.26451  Biso   1.000  C
  N21      1.0000 0.90384  0.67893  0.38780  Biso   1.000  N
  N22      1.0000 0.68216  0.95649  0.32070  Biso   1.000  N
  C63      1.0000 0.81343  0.47296  0.43002  Biso   1.000  C
  C64      1.0000 0.80913  0.63148  0.37680  Biso   1.000  C
  C65      1.0000 0.59294  0.89631  0.33521  Biso   1.000  C
  C66      1.0000 0.58894  0.73311  0.27940  Biso   1.000  C
  C67      1.0000 0.47389  0.12484  0.23549  Biso   1.000  C
  C68      1.0000 0.41106  0.23311  0.22060  Biso   1.000  C
  C69      1.0000 0.56978  0.08478  0.21929  Biso   1.000  C
  C70      1.0000 0.45500  0.28196  0.18779  Biso   1.000  C
  C71      1.0000 0.60306  0.14299  0.18011  Biso   1.000  C
  C72      1.0000 0.40706  0.39631  0.16479  Biso   1.000  C
  N23      1.0000 0.54616  0.24191  0.16660  Biso   1.000  N
  C73      1.0000 0.70568  0.10144  0.16090  Biso   1.000  C
  N24      1.0000 0.31784  0.45649  0.17930  Biso   1.000  N
  N25      1.0000 0.78260  0.01956  0.17601  Biso   1.000  N
  C74      1.0000 0.27144  0.56644  0.15610  Biso   1.000  C
  C75      1.0000 0.88052  0.98886  0.15319  Biso   1.000  C
  C76      1.0000 0.14177  0.56270  0.14551  Biso   1.000  C
  C77      1.0000 0.88764  0.84363  0.14369  Biso   1.000  C
  N26      1.0000 0.12311  0.47389  0.10659  Biso   1.000  N
  N27      1.0000 0.80099  0.81686  0.11129  Biso   1.000  N
  C78      1.0000 0.11638  0.54698  0.06751  Biso   1.000  C
  C79      1.0000 0.01976  0.39341  0.11160  Biso   1.000  C
  C80      1.0000 0.84682  0.83287  0.06860  Biso   1.000  C
  C81      1.0000 0.74603  0.68613  0.11690  Biso   1.000  C
  C82      1.0000 0.16038  0.47296  0.03281  Biso   1.000  C
  C83      1.0000 0.04241  0.27896  0.13849  Biso   1.000  C
  C84      1.0000 0.74783  0.87741  0.03701  Biso   1.000  C
  C85      1.0000 0.64427  0.69259  0.14329  Biso   1.000  C
  N28      1.0000 0.28548  0.45948  0.03551  Biso   1.000  N
  N29      1.0000 0.09616  0.17893  0.11220  Biso   1.000  N
  N30      1.0000 0.72517  0.01338  0.04591  Biso   1.000  N
  N31      1.0000 0.54443  0.73142  0.11969  Biso   1.000  N
  C86      1.0000 0.32613  0.35355  0.04221  Biso   1.000  C
  C87      1.0000 0.19087  0.13148  0.12320  Biso   1.000  C
  C88      1.0000 0.61834  0.04323  0.04610  Biso   1.000  C
  C89      1.0000 0.49314  0.82922  0.13141  Biso   1.000  C
  C90      1.0000 0.45193  0.32912  0.04820  Biso   1.000  C
  C91      1.0000 0.23830  0.01656  0.10261  Biso   1.000  C
  C92      1.0000 0.59053  0.18108  0.04961  Biso   1.000  C
  C93      1.0000 0.38970  0.87161  0.10950  Biso   1.000  C
  C94      1.0000 0.52820  0.42354  0.05080  Biso   1.000  C
  N32      1.0000 0.48629  0.20522  0.04670  Biso   1.000  N
  C95      1.0000 0.18657  0.97296  0.07001  Biso   1.000  C
  N33      1.0000 0.33931  0.97717  0.12520  Biso   1.000  N
  C96      1.0000 0.68070  0.27223  0.05240  Biso   1.000  C
  C97      1.0000 0.35400  0.82398  0.07161  Biso   1.000  C
  C98      1.0000 0.64339  0.39987  0.05691  Biso   1.000  C
  C99      1.0000 0.24479  0.86646  0.05209  Biso   1.000  C
  C100     1.0000 0.52611  0.87516  0.76451  Biso   1.000  C
  C101     1.0000 0.43022  0.91522  0.78071  Biso   1.000  C
  C102     1.0000 0.58894  0.76689  0.77939  Biso   1.000  C
  C103     1.0000 0.39693  0.85701  0.81992  Biso   1.000  C
  C104     1.0000 0.54499  0.71804  0.81221  Biso   1.000  C
  N34      1.0000 0.45383  0.75809  0.83339  Biso   1.000  N
  C105     1.0000 0.29431  0.89856  0.83910  Biso   1.000  C
  C106     1.0000 0.59294  0.60369  0.83521  Biso   1.000  C
  N35      1.0000 0.21740  0.98044  0.82399  Biso   1.000  N
  N36      1.0000 0.68216  0.54351  0.82070  Biso   1.000  N
  C107     1.0000 0.11947  0.01114  0.84681  Biso   1.000  C
  C108     1.0000 0.72864  0.43356  0.84389  Biso   1.000  C
  C109     1.0000 0.11244  0.15637  0.85630  Biso   1.000  C
  C110     1.0000 0.85823  0.43730  0.85451  Biso   1.000  C
  N37      1.0000 0.19900  0.18314  0.88871  Biso   1.000  N
  N38      1.0000 0.87688  0.52611  0.89341  Biso   1.000  N
  C111     1.0000 0.15318  0.16713  0.93139  Biso   1.000  C
  C112     1.0000 0.25396  0.31387  0.88310  Biso   1.000  C
  C113     1.0000 0.88362  0.45302  0.93249  Biso   1.000  C
  C114     1.0000 0.98023  0.60659  0.88839  Biso   1.000  C
  C115     1.0000 0.25217  0.12259  0.96301  Biso   1.000  C
  C116     1.0000 0.35572  0.30741  0.85671  Biso   1.000  C
  C117     1.0000 0.83962  0.52704  0.96721  Biso   1.000  C
  C118     1.0000 0.95758  0.72104  0.86150  Biso   1.000  C
  N39      1.0000 0.27483  0.98662  0.95411  Biso   1.000  N
  N40      1.0000 0.45556  0.26858  0.88031  Biso   1.000  N
  N41      1.0000 0.71451  0.54052  0.96449  Biso   1.000  N
  N42      1.0000 0.90384  0.82107  0.88780  Biso   1.000  N
  C119     1.0000 0.38166  0.95677  0.95389  Biso   1.000  C
  C120     1.0000 0.50694  0.17078  0.86859  Biso   1.000  C
  C121     1.0000 0.67387  0.64645  0.95781  Biso   1.000  C
  C122     1.0000 0.80913  0.86852  0.87680  Biso   1.000  C
  C123     1.0000 0.40947  0.81892  0.95041  Biso   1.000  C
  C124     1.0000 0.61029  0.12839  0.89049  Biso   1.000  C
  C125     1.0000 0.54807  0.67088  0.95179  Biso   1.000  C
  C126     1.0000 0.76169  0.98344  0.89739  Biso   1.000  C
  C127     1.0000 0.31930  0.72777  0.94759  Biso   1.000  C
  N43      1.0000 0.51371  0.79478  0.95330  Biso   1.000  N
  C128     1.0000 0.64600  0.17602  0.92841  Biso   1.000  C
  N44      1.0000 0.66069  0.02283  0.87479  Biso   1.000  N
  C129     1.0000 0.47180  0.57646  0.94919  Biso   1.000  C
  C130     1.0000 0.81342  0.02704  0.93001  Biso   1.000  C
  C131     1.0000 0.35661  0.60013  0.94311  Biso   1.000  C
  C132     1.0000 0.75520  0.13354  0.94791  Biso   1.000  C
  Ne1      1.0000 0.45723  0.14094  0.11170  Biso   1.000  Ne
  He1      1.0000 0.37344  0.15375  0.14305  Biso   1.000  He
  He2      1.0000 0.00000  0.00000  0.00000  Biso   1.000  He
  He3      1.0000 0.32725  0.16623  0.06995  Biso   1.000  He
  Ar1      1.0000 0.45675  0.14000  0.11215  Biso   1.000  Ar
  Ne2      1.0000 0.54278  0.64094  0.38830  Biso   1.000  Ne
  He4      1.0000 0.63772  0.70197  0.40444  Biso   1.000  He
  He5      1.0000 0.43794  0.87473  0.38113  Biso   1.000  He
  He6      1.0000 0.49211  0.53026  0.36631  Biso   1.000  He
  Ar2      1.0000 0.54325  0.64000  0.38785  Biso   1.000  Ar
  Ne3      1.0000 0.45722  0.35906  0.61170  Biso   1.000  Ne
  He7      1.0000 0.50738  0.47029  0.63424  Biso   1.000  He
  He8      1.0000 0.54480  0.12691  0.61854  Biso   1.000  He
  He9      1.0000 0.35184  0.30293  0.59018  Biso   1.000  He
  Ar3      1.0000 0.45675  0.36000  0.61215  Biso   1.000  Ar
  Ne4      1.0000 0.54278  0.85906  0.88830  Biso   1.000  Ne
  He10     1.0000 0.67222  0.83303  0.92950  Biso   1.000  He
  He11     1.0000 0.42269  0.84456  0.88554  Biso   1.000  He
  He12     1.0000 0.62467  0.84423  0.85854  Biso   1.000  He
  Ar4      1.0000 0.54325  0.86000  0.88784  Biso   1.000  Ar
