data_image0
_cell_length_a       12.809
_cell_length_b       18.244
_cell_length_c       15.25
_cell_angle_alpha    90
_cell_angle_beta     92.83
_cell_angle_gamma    90

_symmetry_space_group_name_H-M    "P 1"
_symmetry_int_tables_number       1

loop_
  _symmetry_equiv_pos_as_xyz
  'x, y, z'

loop_
  _atom_site_label
  _atom_site_occupancy
  _atom_site_fract_x
  _atom_site_fract_y
  _atom_site_fract_z
  _atom_site_thermal_displace_type
  _atom_site_B_iso_or_equiv
  _atom_site_type_symbol
  C1       1.0000 0.45565  0.60080  0.54250  Biso   1.000  C
  C2       1.0000 0.36349  0.63308  0.58832  Biso   1.000  C
  H1       1.0000 0.45186  0.54769  0.54434  Biso   1.000  H
  H2       1.0000 0.52023  0.61571  0.57329  Biso   1.000  H
  C3       1.0000 0.45640  0.62629  0.44631  Biso   1.000  C
  N1       1.0000 0.26273  0.61121  0.54768  Biso   1.000  N
  C4       1.0000 0.35996  0.71952  0.57999  Biso   1.000  C
  N2       1.0000 0.37196  0.62251  0.68333  Biso   1.000  N
  C5       1.0000 0.44938  0.70971  0.43712  Biso   1.000  C
  H3       1.0000 0.39786  0.60420  0.41329  Biso   1.000  H
  H4       1.0000 0.52010  0.60941  0.42104  Biso   1.000  H
  C6       1.0000 0.23317  0.53601  0.52812  Biso   1.000  C
  C7       1.0000 0.20705  0.66833  0.51420  Biso   1.000  C
  N3       1.0000 0.25556  0.73202  0.53725  Biso   1.000  N
  C8       1.0000 0.44776  0.74901  0.52641  Biso   1.000  C
  N4       1.0000 0.36896  0.74326  0.67072  Biso   1.000  N
  C9       1.0000 0.37558  0.55262  0.72882  Biso   1.000  C
  C10      1.0000 0.37816  0.68664  0.72902  Biso   1.000  C
  H5       1.0000 0.38637  0.72221  0.40239  Biso   1.000  H
  H6       1.0000 0.50868  0.72709  0.40594  Biso   1.000  H
  H7       1.0000 0.18865  0.53530  0.47474  Biso   1.000  H
  H8       1.0000 0.29553  0.50800  0.51722  Biso   1.000  H
  N5       1.0000 0.17855  0.50093  0.59765  Biso   1.000  N
  O1       1.0000 0.12570  0.66329  0.46903  Biso   1.000  O
  C11      1.0000 0.21594  0.80070  0.50599  Biso   1.000  C
  H9       1.0000 0.51429  0.74172  0.55852  Biso   1.000  H
  H10      1.0000 0.43815  0.80119  0.51702  Biso   1.000  H
  C12      1.0000 0.36413  0.81819  0.70151  Biso   1.000  C
  N6       1.0000 0.27455  0.51962  0.73801  Biso   1.000  N
  H11      1.0000 0.41877  0.51902  0.69724  Biso   1.000  H
  H12      1.0000 0.40865  0.55964  0.78680  Biso   1.000  H
  O2       1.0000 0.39281  0.69256  0.80820  Biso   1.000  O
  C13      1.0000 0.23159  0.46739  0.67394  Biso   1.000  C
  C14      1.0000 0.07403  0.48553  0.59134  Biso   1.000  C
  H13      1.0000 0.17217  0.79221  0.45334  Biso   1.000  H
  H14      1.0000 0.27440  0.83090  0.48984  Biso   1.000  H
  N7       1.0000 0.15669  0.84061  0.56718  Biso   1.000  N
  H15      1.0000 0.40179  0.84921  0.66212  Biso   1.000  H
  H16      1.0000 0.39976  0.82109  0.75902  Biso   1.000  H
  N8       1.0000 0.25815  0.84691  0.70742  Biso   1.000  N
  C15      1.0000 0.22558  0.51710  0.81470  Biso   1.000  C
  C16      1.0000 0.13985  0.43203  0.72160  Biso   1.000  C
  H17      1.0000 0.28348  0.43099  0.65752  Biso   1.000  H
  N9       1.0000 0.05029  0.44590  0.66429  Biso   1.000  N
  O3       1.0000 0.01299  0.50230  0.53042  Biso   1.000  O
  C17      1.0000 0.20396  0.88533  0.63684  Biso   1.000  C
  C18      1.0000 0.05037  0.84833  0.56200  Biso   1.000  C
  C19      1.0000 0.21096  0.85261  0.78522  Biso   1.000  C
  N10      1.0000 0.14138  0.47029  0.80485  Biso   1.000  N
  O4       1.0000 0.25261  0.55010  0.88278  Biso   1.000  O
  H18      1.0000 0.15097  0.37930  0.73014  Biso   1.000  H
  C20      1.0000 0.95152  0.41022  0.67079  Biso   1.000  C
  H19      1.0000 0.24815  0.92354  0.61301  Biso   1.000  H
  C21      1.0000 0.10883  0.91921  0.68129  Biso   1.000  C
  N11      1.0000 0.02083  0.88994  0.63061  Biso   1.000  N
  O5       1.0000 0.99277  0.82224  0.50383  Biso   1.000  O
  N12      1.0000 0.12075  0.89092  0.76999  Biso   1.000  N
  O6       1.0000 0.24504  0.83123  0.85626  Biso   1.000  O
  C22      1.0000 0.08718  0.44299  0.87884  Biso   1.000  C
  H20      1.0000 0.96379  0.35891  0.68424  Biso   1.000  H
  H21      1.0000 0.91384  0.41268  0.61413  Biso   1.000  H
  N13      1.0000 0.88704  0.44069  0.73585  Biso   1.000  N
  H22      1.0000 0.11015  0.97292  0.67991  Biso   1.000  H
  C23      1.0000 0.91988  0.92359  0.63061  Biso   1.000  C
  C24      1.0000 0.06375  0.92019  0.84273  Biso   1.000  C
  H23      1.0000 0.12164  0.46152  0.93242  Biso   1.000  H
  H24      1.0000 0.09263  0.38988  0.87989  Biso   1.000  H
  N14      1.0000 0.97705  0.46311  0.87792  Biso   1.000  N
  C25      1.0000 0.89321  0.42343  0.82895  Biso   1.000  C
  C26      1.0000 0.80806  0.48712  0.71379  Biso   1.000  C
  H25      1.0000 0.88155  0.91153  0.57611  Biso   1.000  H
  H26      1.0000 0.92895  0.97643  0.63212  Biso   1.000  H
  N15      1.0000 0.85823  0.90232  0.70263  Biso   1.000  N
  H27      1.0000 0.09953  0.90600  0.89762  Biso   1.000  H
  H28      1.0000 0.06388  0.97331  0.83965  Biso   1.000  H
  N16      1.0000 0.95645  0.89460  0.84234  Biso   1.000  N
  C27      1.0000 0.93912  0.50548  0.94194  Biso   1.000  C
  C28      1.0000 0.79236  0.45960  0.86374  Biso   1.000  C
  C29      1.0000 0.89611  0.34170  0.84634  Biso   1.000  C
  N17      1.0000 0.75383  0.50340  0.78732  Biso   1.000  N
  O7       1.0000 0.78422  0.50948  0.64019  Biso   1.000  O
  C30      1.0000 0.87024  0.92891  0.79139  Biso   1.000  C
  C31      1.0000 0.77606  0.85573  0.68871  Biso   1.000  C
  C32      1.0000 0.92393  0.85392  0.91193  Biso   1.000  C
  N18      1.0000 0.83284  0.50400  0.93609  Biso   1.000  N
  O8       1.0000 0.99370  0.53722  0.99912  Biso   1.000  O
  C33      1.0000 0.71382  0.40293  0.88771  Biso   1.000  C
  C34      1.0000 0.80038  0.30158  0.80354  Biso   1.000  C
  H29      1.0000 0.89840  0.33332  0.90924  Biso   1.000  H
  H30      1.0000 0.95934  0.32142  0.82363  Biso   1.000  H
  C35      1.0000 0.65392  0.54029  0.78102  Biso   1.000  C
  C36      1.0000 0.77141  0.89503  0.83531  Biso   1.000  C
  C37      1.0000 0.87401  0.01140  0.79842  Biso   1.000  C
  N19      1.0000 0.72645  0.84954  0.76651  Biso   1.000  N
  O9       1.0000 0.74859  0.82602  0.61984  Biso   1.000  O
  N20      1.0000 0.81722  0.85392  0.90950  Biso   1.000  N
  O10      1.0000 0.98042  0.82444  0.96715  Biso   1.000  O
  C38      1.0000 0.77012  0.54813  0.99282  Biso   1.000  C
  H31      1.0000 0.64732  0.42633  0.89723  Biso   1.000  H
  H32      1.0000 0.73746  0.37870  0.94174  Biso   1.000  H
  C39      1.0000 0.70033  0.34631  0.81352  Biso   1.000  C
  H33      1.0000 0.81102  0.29380  0.74163  Biso   1.000  H
  H34      1.0000 0.79301  0.25411  0.83092  Biso   1.000  H
  H35      1.0000 0.62855  0.54051  0.72003  Biso   1.000  H
  H36      1.0000 0.60456  0.51250  0.81391  Biso   1.000  H
  N21      1.0000 0.65616  0.61363  0.81253  Biso   1.000  N
  C40      1.0000 0.69635  0.95681  0.86144  Biso   1.000  C
  H37      1.0000 0.93383  0.02938  0.76822  Biso   1.000  H
  H38      1.0000 0.88354  0.02510  0.85974  Biso   1.000  H
  C41      1.0000 0.77417  0.04840  0.75889  Biso   1.000  C
  C42      1.0000 0.63175  0.80662  0.77051  Biso   1.000  C
  C43      1.0000 0.75953  0.81610  0.97470  Biso   1.000  C
  N22      1.0000 0.74070  0.61982  0.95979  Biso   1.000  N
  H39      1.0000 0.70699  0.52121  0.00385  Biso   1.000  H
  H40      1.0000 0.80884  0.55432  0.04856  Biso   1.000  H
  H41      1.0000 0.64344  0.31342  0.82593  Biso   1.000  H
  H42      1.0000 0.68212  0.37130  0.75870  Biso   1.000  H
  C44      1.0000 0.64808  0.63363  0.90340  Biso   1.000  C
  C45      1.0000 0.65184  0.67354  0.75751  Biso   1.000  C
  H43      1.0000 0.63083  0.93560  0.87825  Biso   1.000  H
  H44      1.0000 0.72686  0.98339  0.91154  Biso   1.000  H
  C46      1.0000 0.67575  0.00970  0.78450  Biso   1.000  C
  H45      1.0000 0.77213  0.09888  0.77859  Biso   1.000  H
  H46      1.0000 0.77645  0.04867  0.69541  Biso   1.000  H
  N23      1.0000 0.64874  0.73460  0.80840  Biso   1.000  N
  H47      1.0000 0.58241  0.83310  0.80505  Biso   1.000  H
  H48      1.0000 0.60058  0.80119  0.71162  Biso   1.000  H
  N24      1.0000 0.73315  0.74123  0.95474  Biso   1.000  N
  H49      1.0000 0.69546  0.84302  0.98303  Biso   1.000  H
  H50      1.0000 0.80048  0.81731  0.02985  Biso   1.000  H
  C47      1.0000 0.78452  0.68329  0.99341  Biso   1.000  C
  C48      1.0000 0.64274  0.71722  0.90025  Biso   1.000  C
  H51      1.0000 0.58542  0.61253  0.92795  Biso   1.000  H
  O11      1.0000 0.64876  0.67052  0.67866  Biso   1.000  O
  H52      1.0000 0.64657  0.98262  0.73440  Biso   1.000  H
  H53      1.0000 0.62478  0.04588  0.80065  Biso   1.000  H
  O12      1.0000 0.85638  0.68631  0.04836  Biso   1.000  O
  H54      1.0000 0.57742  0.73520  0.92329  Biso   1.000  H
  C49      1.0000 0.55216  0.24901  0.47363  Biso   1.000  C
  C50      1.0000 0.63996  0.21952  0.41999  Biso   1.000  C
  C51      1.0000 0.55054  0.20971  0.56292  Biso   1.000  C
  H55      1.0000 0.48571  0.24172  0.44152  Biso   1.000  H
  H56      1.0000 0.56177  0.30119  0.48302  Biso   1.000  H
  N25      1.0000 0.63096  0.24326  0.32932  Biso   1.000  N
  C52      1.0000 0.63651  0.13308  0.41172  Biso   1.000  C
  N26      1.0000 0.74436  0.23202  0.46279  Biso   1.000  N
  C53      1.0000 0.54360  0.12629  0.55372  Biso   1.000  C
  H57      1.0000 0.61355  0.22221  0.59765  Biso   1.000  H
  H58      1.0000 0.49124  0.22709  0.59410  Biso   1.000  H
  C54      1.0000 0.62175  0.18658  0.27102  Biso   1.000  C
  C55      1.0000 0.63579  0.31819  0.29853  Biso   1.000  C
  N27      1.0000 0.62795  0.12251  0.31671  Biso   1.000  N
  C56      1.0000 0.54427  0.10080  0.45754  Biso   1.000  C
  N28      1.0000 0.73718  0.11121  0.45229  Biso   1.000  N
  C57      1.0000 0.79286  0.16833  0.48584  Biso   1.000  C
  C58      1.0000 0.78397  0.30070  0.49398  Biso   1.000  C
  H59      1.0000 0.60206  0.10420  0.58668  Biso   1.000  H
  H60      1.0000 0.47989  0.10941  0.57900  Biso   1.000  H
  O13      1.0000 0.60711  0.19256  0.19184  Biso   1.000  O
  H61      1.0000 0.59821  0.34921  0.33792  Biso   1.000  H
  H62      1.0000 0.60016  0.32109  0.24102  Biso   1.000  H
  N29      1.0000 0.74177  0.34691  0.29262  Biso   1.000  N
  C59      1.0000 0.62434  0.05262  0.27122  Biso   1.000  C
  H63      1.0000 0.54806  0.04769  0.45570  Biso   1.000  H
  H64      1.0000 0.47968  0.11571  0.42668  Biso   1.000  H
  C60      1.0000 0.76675  0.03601  0.47192  Biso   1.000  C
  O14      1.0000 0.87429  0.16329  0.53101  Biso   1.000  O
  H65      1.0000 0.82775  0.29221  0.54670  Biso   1.000  H
  H66      1.0000 0.72559  0.33090  0.51020  Biso   1.000  H
  N30      1.0000 0.84330  0.34061  0.43279  Biso   1.000  N
  C61      1.0000 0.78896  0.35261  0.21482  Biso   1.000  C
  C62      1.0000 0.79596  0.38533  0.36320  Biso   1.000  C
  H67      1.0000 0.58115  0.01902  0.30280  Biso   1.000  H
  H68      1.0000 0.59126  0.05958  0.21318  Biso   1.000  H
  N31      1.0000 0.72537  0.01962  0.26202  Biso   1.000  N
  N32      1.0000 0.82137  0.00088  0.40239  Biso   1.000  N
  H69      1.0000 0.81127  0.03530  0.52530  Biso   1.000  H
  H70      1.0000 0.70439  0.00800  0.48282  Biso   1.000  H
  C63      1.0000 0.94955  0.34828  0.43804  Biso   1.000  C
  N33      1.0000 0.87916  0.39092  0.22999  Biso   1.000  N
  O15      1.0000 0.75488  0.33123  0.14378  Biso   1.000  O
  H71      1.0000 0.75177  0.42348  0.38703  Biso   1.000  H
  C64      1.0000 0.89109  0.41921  0.31868  Biso   1.000  C
  C65      1.0000 0.77442  0.01710  0.18528  Biso   1.000  C
  C66      1.0000 0.76841  0.96744  0.32610  Biso   1.000  C
  C67      1.0000 0.92589  0.98553  0.40870  Biso   1.000  C
  N34      1.0000 0.97909  0.38988  0.36943  Biso   1.000  N
  O16      1.0000 0.00715  0.32219  0.49621  Biso   1.000  O
  C68      1.0000 0.93617  0.42019  0.15731  Biso   1.000  C
  H72      1.0000 0.88977  0.47292  0.32013  Biso   1.000  H
  O17      1.0000 0.74731  0.05010  0.11726  Biso   1.000  O
  N35      1.0000 0.85861  0.97029  0.19519  Biso   1.000  N
  C69      1.0000 0.86007  0.93203  0.27844  Biso   1.000  C
  H73      1.0000 0.71644  0.93099  0.34252  Biso   1.000  H
  N36      1.0000 0.94970  0.94590  0.33569  Biso   1.000  N
  O18      1.0000 0.98693  0.00225  0.46956  Biso   1.000  O
  C70      1.0000 0.08011  0.42359  0.36943  Biso   1.000  C
  H74      1.0000 0.90039  0.40600  0.10242  Biso   1.000  H
  H75      1.0000 0.93612  0.47331  0.16039  Biso   1.000  H
  N37      1.0000 0.04346  0.39460  0.15770  Biso   1.000  N
  C71      1.0000 0.91282  0.94299  0.12120  Biso   1.000  C
  H76      1.0000 0.84895  0.87930  0.26990  Biso   1.000  H
  C72      1.0000 0.04839  0.91022  0.32919  Biso   1.000  C
  H77      1.0000 0.11837  0.41153  0.42393  Biso   1.000  H
  H78      1.0000 0.07097  0.47643  0.36792  Biso   1.000  H
  N38      1.0000 0.14169  0.40232  0.29741  Biso   1.000  N
  C73      1.0000 0.07599  0.35392  0.08811  Biso   1.000  C
  C74      1.0000 0.12968  0.42891  0.20858  Biso   1.000  C
  H79      1.0000 0.87828  0.96152  0.06762  Biso   1.000  H
  H80      1.0000 0.90728  0.88994  0.12008  Biso   1.000  H
  N39      1.0000 0.02287  0.96311  0.12212  Biso   1.000  N
  H81      1.0000 0.03621  0.85891  0.31579  Biso   1.000  H
  H82      1.0000 0.08608  0.91274  0.38591  Biso   1.000  H
  N40      1.0000 0.11288  0.94069  0.26419  Biso   1.000  N
  C75      1.0000 0.22386  0.35568  0.31133  Biso   1.000  C
  N41      1.0000 0.18269  0.35392  0.09047  Biso   1.000  N
  O19      1.0000 0.01950  0.32444  0.03283  Biso   1.000  O
  C76      1.0000 0.22851  0.39498  0.16473  Biso   1.000  C
  C77      1.0000 0.12591  0.51140  0.20162  Biso   1.000  C
  C78      1.0000 0.10671  0.92343  0.17109  Biso   1.000  C
  C79      1.0000 0.06080  0.00548  0.05810  Biso   1.000  C
  C80      1.0000 0.19186  0.98712  0.28619  Biso   1.000  C
  N42      1.0000 0.27347  0.34948  0.23353  Biso   1.000  N
  O20      1.0000 0.25141  0.32602  0.38020  Biso   1.000  O
  C81      1.0000 0.24038  0.31610  0.02528  Biso   1.000  C
  C82      1.0000 0.30356  0.45681  0.13860  Biso   1.000  C
  H83      1.0000 0.06609  0.52943  0.23182  Biso   1.000  H
  H84      1.0000 0.11637  0.52510  0.14030  Biso   1.000  H
  C83      1.0000 0.22582  0.54840  0.24108  Biso   1.000  C
  C84      1.0000 0.20756  0.95960  0.13630  Biso   1.000  C
  C85      1.0000 0.10381  0.84170  0.15370  Biso   1.000  C
  N43      1.0000 0.16708  0.00400  0.06388  Biso   1.000  N
  O21      1.0000 0.00622  0.03722  0.00092  Biso   1.000  O
  N44      1.0000 0.24609  0.00340  0.21272  Biso   1.000  N
  O22      1.0000 0.21570  0.00948  0.35978  Biso   1.000  O
  C86      1.0000 0.36816  0.30662  0.22953  Biso   1.000  C
  H85      1.0000 0.19943  0.31731  0.97013  Biso   1.000  H
  H86      1.0000 0.30446  0.34302  0.01700  Biso   1.000  H
  N45      1.0000 0.26677  0.24123  0.04530  Biso   1.000  N
  C87      1.0000 0.32417  0.50970  0.21548  Biso   1.000  C
  H87      1.0000 0.36909  0.43560  0.12179  Biso   1.000  H
  H88      1.0000 0.27306  0.48339  0.08850  Biso   1.000  H
  H89      1.0000 0.22778  0.59894  0.22138  Biso   1.000  H
  H90      1.0000 0.22347  0.54873  0.30463  Biso   1.000  H
  C88      1.0000 0.28609  0.90293  0.11233  Biso   1.000  C
  C89      1.0000 0.19962  0.80163  0.19650  Biso   1.000  C
  H91      1.0000 0.10152  0.83332  0.09080  Biso   1.000  H
  H92      1.0000 0.04058  0.82142  0.17641  Biso   1.000  H
  C90      1.0000 0.22979  0.04813  0.00722  Biso   1.000  C
  C91      1.0000 0.34600  0.04029  0.21902  Biso   1.000  C
  H93      1.0000 0.41750  0.33310  0.19499  Biso   1.000  H
  H94      1.0000 0.39934  0.30119  0.28842  Biso   1.000  H
  N46      1.0000 0.35118  0.23460  0.19158  Biso   1.000  N
  C92      1.0000 0.21539  0.18329  0.00663  Biso   1.000  C
  C93      1.0000 0.35718  0.21722  0.09979  Biso   1.000  C
  H95      1.0000 0.35335  0.48262  0.26564  Biso   1.000  H
  H96      1.0000 0.37521  0.54593  0.19939  Biso   1.000  H
  H97      1.0000 0.35260  0.92633  0.10281  Biso   1.000  H
  H98      1.0000 0.26246  0.87870  0.05830  Biso   1.000  H
  C94      1.0000 0.29959  0.84631  0.18652  Biso   1.000  C
  H99      1.0000 0.18890  0.79380  0.25841  Biso   1.000  H
  H100     1.0000 0.20691  0.75411  0.16912  Biso   1.000  H
  H101     1.0000 0.29293  0.02121  0.99613  Biso   1.000  H
  H102     1.0000 0.19107  0.05432  0.95142  Biso   1.000  H
  N47      1.0000 0.25921  0.11982  0.04018  Biso   1.000  N
  H103     1.0000 0.37137  0.04051  0.28001  Biso   1.000  H
  H104     1.0000 0.39536  0.01250  0.18613  Biso   1.000  H
  N48      1.0000 0.34376  0.11363  0.18751  Biso   1.000  N
  C95      1.0000 0.34808  0.17348  0.24253  Biso   1.000  C
  O23      1.0000 0.14354  0.18631  0.95168  Biso   1.000  O
  C96      1.0000 0.35192  0.13358  0.09658  Biso   1.000  C
  H105     1.0000 0.42249  0.23520  0.07668  Biso   1.000  H
  H106     1.0000 0.35648  0.81342  0.17411  Biso   1.000  H
  H107     1.0000 0.31780  0.87130  0.24128  Biso   1.000  H
  O24      1.0000 0.35116  0.17052  0.32138  Biso   1.000  O
  H108     1.0000 0.41450  0.11248  0.07209  Biso   1.000  H
  Ne1      1.0000 0.99873  0.17621  0.25561  Biso   1.000  Ne
  He1      1.0000 0.13435  0.17021  0.43865  Biso   1.000  He
  He2      1.0000 0.87542  0.19260  0.08064  Biso   1.000  He
  Ar1      1.0000 0.00439  0.17798  0.25669  Biso   1.000  Ar
  Ne2      1.0000 0.00121  0.67622  0.74441  Biso   1.000  Ne
  He3      1.0000 0.13510  0.69380  0.93612  Biso   1.000  He
  He4      1.0000 0.88036  0.67186  0.58196  Biso   1.000  He
  Ar2      1.0000 0.99565  0.67796  0.74335  Biso   1.000  Ar
