data_image0
_cell_length_a       12.201
_cell_length_b       17.089
_cell_length_c       16.87
_cell_angle_alpha    90
_cell_angle_beta     99.08
_cell_angle_gamma    90

_symmetry_space_group_name_H-M    "P 1"
_symmetry_int_tables_number       1

loop_
  _symmetry_equiv_pos_as_xyz
  'x, y, z'

loop_
  _atom_site_label
  _atom_site_occupancy
  _atom_site_fract_x
  _atom_site_fract_y
  _atom_site_fract_z
  _atom_site_thermal_displace_type
  _atom_site_B_iso_or_equiv
  _atom_site_type_symbol
  O1       1.0000 0.30760  0.39107  0.35309  Biso   1.000  O
  C1       1.0000 0.27361  0.36310  0.28670  Biso   1.000  C
  N1       1.0000 0.20114  0.30288  0.27199  Biso   1.000  N
  N2       1.0000 0.30659  0.38481  0.21701  Biso   1.000  N
  C2       1.0000 0.17635  0.28393  0.18693  Biso   1.000  C
  C3       1.0000 0.15432  0.26391  0.33538  Biso   1.000  C
  C4       1.0000 0.26182  0.33460  0.14929  Biso   1.000  C
  C5       1.0000 0.39488  0.44180  0.21670  Biso   1.000  C
  C6       1.0000 0.18927  0.19592  0.17138  Biso   1.000  C
  N3       1.0000 0.07097  0.31552  0.14797  Biso   1.000  N
  H1       1.0000 0.14598  0.20879  0.32230  Biso   1.000  H
  H2       1.0000 0.20682  0.26818  0.38479  Biso   1.000  H
  N4       1.0000 0.04808  0.29370  0.34991  Biso   1.000  N
  C7       1.0000 0.35235  0.28533  0.11982  Biso   1.000  C
  N5       1.0000 0.19398  0.37609  0.08590  Biso   1.000  N
  H3       1.0000 0.43165  0.45011  0.27139  Biso   1.000  H
  H4       1.0000 0.44940  0.42103  0.18633  Biso   1.000  H
  N6       1.0000 0.35553  0.51618  0.18249  Biso   1.000  N
  C8       1.0000 0.30482  0.16871  0.20062  Biso   1.000  C
  H5       1.0000 0.13787  0.16672  0.19840  Biso   1.000  H
  H6       1.0000 0.17083  0.18567  0.11430  Biso   1.000  H
  C9       1.0000 0.08241  0.36468  0.08620  Biso   1.000  C
  C10      1.0000 0.96380  0.28299  0.15451  Biso   1.000  C
  C11      1.0000 0.03519  0.34291  0.41030  Biso   1.000  C
  C12      1.0000 0.94265  0.27310  0.30171  Biso   1.000  C
  H7       1.0000 0.32181  0.25870  0.07041  Biso   1.000  H
  H8       1.0000 0.41217  0.31892  0.10889  Biso   1.000  H
  C13      1.0000 0.39619  0.22588  0.18291  Biso   1.000  C
  C14      1.0000 0.23450  0.42413  0.02521  Biso   1.000  C
  C15      1.0000 0.35048  0.53239  0.09851  Biso   1.000  C
  C16      1.0000 0.36323  0.58260  0.22829  Biso   1.000  C
  H9       1.0000 0.31578  0.11867  0.17571  Biso   1.000  H
  H10      1.0000 0.31311  0.16028  0.25812  Biso   1.000  H
  O2       1.0000 0.00789  0.39359  0.03842  Biso   1.000  O
  H11      1.0000 0.96991  0.22652  0.15698  Biso   1.000  H
  H12      1.0000 0.91218  0.29633  0.10649  Biso   1.000  H
  N7       1.0000 0.91955  0.31049  0.22403  Biso   1.000  N
  O3       1.0000 0.10900  0.36661  0.46234  Biso   1.000  O
  N8       1.0000 0.92375  0.36041  0.40442  Biso   1.000  N
  H13      1.0000 0.93325  0.21628  0.29732  Biso   1.000  H
  C17      1.0000 0.85752  0.30979  0.34769  Biso   1.000  C
  H14      1.0000 0.42682  0.25291  0.23201  Biso   1.000  H
  H15      1.0000 0.45562  0.19638  0.16490  Biso   1.000  H
  H16      1.0000 0.30321  0.40172  0.01369  Biso   1.000  H
  N9       1.0000 0.25378  0.50413  0.04670  Biso   1.000  N
  H17      1.0000 0.18093  0.42191  0.97617  Biso   1.000  H
  C18      1.0000 0.33674  0.62309  0.09413  Biso   1.000  C
  H18      1.0000 0.41870  0.51583  0.07948  Biso   1.000  H
  N10      1.0000 0.34765  0.64550  0.17643  Biso   1.000  N
  O4       1.0000 0.38174  0.58663  0.30111  Biso   1.000  O
  C19      1.0000 0.81908  0.34870  0.21358  Biso   1.000  C
  C20      1.0000 0.87895  0.39792  0.46841  Biso   1.000  C
  H19      1.0000 0.81894  0.27000  0.37482  Biso   1.000  H
  N11      1.0000 0.78300  0.34970  0.28712  Biso   1.000  N
  C21      1.0000 0.18438  0.56323  0.01753  Biso   1.000  C
  N12      1.0000 0.22543  0.63128  0.04862  Biso   1.000  N
  H20      1.0000 0.39292  0.64790  0.06687  Biso   1.000  H
  C22      1.0000 0.35734  0.72608  0.20428  Biso   1.000  C
  O5       1.0000 0.77132  0.37428  0.15133  Biso   1.000  O
  H21      1.0000 0.93869  0.40699  0.51271  Biso   1.000  H
  H22      1.0000 0.82619  0.36281  0.48732  Biso   1.000  H
  N13      1.0000 0.82441  0.47130  0.44608  Biso   1.000  N
  C23      1.0000 0.67580  0.38112  0.29690  Biso   1.000  C
  O6       1.0000 0.09915  0.55433  0.96836  Biso   1.000  O
  C24      1.0000 0.17662  0.70519  0.02137  Biso   1.000  C
  H23      1.0000 0.40038  0.72690  0.25770  Biso   1.000  H
  H24      1.0000 0.39825  0.75552  0.16940  Biso   1.000  H
  N14      1.0000 0.25361  0.76482  0.20668  Biso   1.000  N
  C25      1.0000 0.70632  0.48072  0.41348  Biso   1.000  C
  C26      1.0000 0.87405  0.54070  0.46961  Biso   1.000  C
  H25      1.0000 0.62813  0.38071  0.24522  Biso   1.000  H
  H26      1.0000 0.64273  0.34689  0.33238  Biso   1.000  H
  N15      1.0000 0.67890  0.45942  0.32878  Biso   1.000  N
  H27      1.0000 0.23359  0.73802  0.00450  Biso   1.000  H
  N16      1.0000 0.12724  0.74650  0.08092  Biso   1.000  N
  H28      1.0000 0.12027  0.69624  0.97497  Biso   1.000  H
  C27      1.0000 0.18384  0.80233  0.13861  Biso   1.000  C
  C28      1.0000 0.21774  0.77968  0.27667  Biso   1.000  C
  C29      1.0000 0.69170  0.57212  0.41108  Biso   1.000  C
  C30      1.0000 0.63151  0.44110  0.46390  Biso   1.000  C
  N17      1.0000 0.80072  0.60015  0.44872  Biso   1.000  N
  O7       1.0000 0.96900  0.54778  0.50472  Biso   1.000  O
  C31      1.0000 0.65417  0.52379  0.27968  Biso   1.000  C
  C32      1.0000 0.01561  0.74539  0.08092  Biso   1.000  C
  C33      1.0000 0.08719  0.83832  0.17721  Biso   1.000  C
  C34      1.0000 0.24789  0.86389  0.09971  Biso   1.000  C
  N18      1.0000 0.11909  0.81789  0.26179  Biso   1.000  N
  O8       1.0000 0.26735  0.76429  0.34481  Biso   1.000  O
  C35      1.0000 0.60083  0.59810  0.45778  Biso   1.000  C
  N19      1.0000 0.66652  0.58950  0.32650  Biso   1.000  N
  H29      1.0000 0.64981  0.38592  0.46889  Biso   1.000  H
  H30      1.0000 0.55490  0.44578  0.43809  Biso   1.000  H
  C36      1.0000 0.64543  0.47861  0.54758  Biso   1.000  C
  C37      1.0000 0.83081  0.68102  0.46601  Biso   1.000  C
  O9       1.0000 0.62310  0.52209  0.20824  Biso   1.000  O
  N20      1.0000 0.99075  0.79501  0.13789  Biso   1.000  N
  O10      1.0000 0.94878  0.70858  0.03344  Biso   1.000  O
  C38      1.0000 0.07704  0.92568  0.16412  Biso   1.000  C
  C39      1.0000 0.28359  0.93101  0.15668  Biso   1.000  C
  H31      1.0000 0.31291  0.84013  0.08332  Biso   1.000  H
  H32      1.0000 0.20164  0.88390  0.05193  Biso   1.000  H
  C40      1.0000 0.06481  0.84669  0.32632  Biso   1.000  C
  C41      1.0000 0.62115  0.56633  0.54338  Biso   1.000  C
  H33      1.0000 0.52949  0.57961  0.43059  Biso   1.000  H
  H34      1.0000 0.59854  0.65481  0.45928  Biso   1.000  H
  C42      1.0000 0.63222  0.66511  0.29288  Biso   1.000  C
  H35      1.0000 0.59548  0.45333  0.57898  Biso   1.000  H
  H36      1.0000 0.72071  0.47019  0.57448  Biso   1.000  H
  H37      1.0000 0.89154  0.68260  0.51073  Biso   1.000  H
  H38      1.0000 0.76811  0.70782  0.48257  Biso   1.000  H
  N21      1.0000 0.86374  0.72263  0.39871  Biso   1.000  N
  C43      1.0000 0.87781  0.81333  0.14617  Biso   1.000  C
  H39      1.0000 0.02197  0.94640  0.19419  Biso   1.000  H
  H40      1.0000 0.05194  0.93622  0.10769  Biso   1.000  H
  C44      1.0000 0.18750  0.96694  0.19071  Biso   1.000  C
  H41      1.0000 0.33832  0.91211  0.20050  Biso   1.000  H
  H42      1.0000 0.31857  0.97103  0.12840  Biso   1.000  H
  H43      1.0000 0.04257  0.90064  0.31491  Biso   1.000  H
  H44      1.0000 0.11777  0.84639  0.37560  Biso   1.000  H
  N22      1.0000 0.96804  0.80192  0.33880  Biso   1.000  N
  H45      1.0000 0.55621  0.57663  0.56842  Biso   1.000  H
  H46      1.0000 0.68321  0.59401  0.57388  Biso   1.000  H
  H47      1.0000 0.58348  0.65732  0.24228  Biso   1.000  H
  H48      1.0000 0.58970  0.69150  0.32902  Biso   1.000  H
  N23      1.0000 0.72173  0.71520  0.27938  Biso   1.000  N
  C45      1.0000 0.78444  0.76441  0.34103  Biso   1.000  C
  C46      1.0000 0.96852  0.75060  0.40189  Biso   1.000  C
  H49      1.0000 0.82919  0.79654  0.09803  Biso   1.000  H
  H50      1.0000 0.87053  0.86962  0.15037  Biso   1.000  H
  N24      1.0000 0.84109  0.77699  0.21526  Biso   1.000  N
  H51      1.0000 0.20420  0.96571  0.24882  Biso   1.000  H
  H52      1.0000 0.18024  0.02130  0.17432  Biso   1.000  H
  C47      1.0000 0.85878  0.81280  0.29372  Biso   1.000  C
  C48      1.0000 0.75464  0.72561  0.20710  Biso   1.000  C
  H53      1.0000 0.73559  0.79771  0.36732  Biso   1.000  H
  O11      1.0000 0.04958  0.73468  0.45220  Biso   1.000  O
  H54      1.0000 0.83730  0.86822  0.29108  Biso   1.000  H
  O12      1.0000 0.71208  0.69483  0.14425  Biso   1.000  O
  O13      1.0000 0.73276  0.26426  0.65522  Biso   1.000  O
  C49      1.0000 0.78228  0.27971  0.72329  Biso   1.000  C
  N25      1.0000 0.88095  0.31792  0.73824  Biso   1.000  N
  N26      1.0000 0.74641  0.26479  0.79328  Biso   1.000  N
  C50      1.0000 0.93522  0.34671  0.67371  Biso   1.000  C
  C51      1.0000 0.91284  0.33829  0.82282  Biso   1.000  C
  C52      1.0000 0.81619  0.30230  0.86142  Biso   1.000  C
  C53      1.0000 0.64268  0.22611  0.79569  Biso   1.000  C
  H55      1.0000 0.95746  0.40061  0.68511  Biso   1.000  H
  H56      1.0000 0.88226  0.34642  0.62442  Biso   1.000  H
  N27      1.0000 0.03200  0.30189  0.66122  Biso   1.000  N
  C54      1.0000 0.92299  0.42571  0.83590  Biso   1.000  C
  N28      1.0000 0.00935  0.29499  0.86208  Biso   1.000  N
  C55      1.0000 0.75214  0.36392  0.90032  Biso   1.000  C
  N29      1.0000 0.87286  0.24647  0.91904  Biso   1.000  N
  H57      1.0000 0.59965  0.22693  0.74232  Biso   1.000  H
  H58      1.0000 0.60187  0.25549  0.83062  Biso   1.000  H
  N30      1.0000 0.65246  0.14547  0.82360  Biso   1.000  N
  C56      1.0000 0.14125  0.31283  0.70630  Biso   1.000  C
  C57      1.0000 0.03151  0.25063  0.59813  Biso   1.000  C
  H59      1.0000 0.97806  0.44643  0.80583  Biso   1.000  H
  H60      1.0000 0.94817  0.43619  0.89233  Biso   1.000  H
  C58      1.0000 0.81253  0.46691  0.80931  Biso   1.000  C
  C59      1.0000 0.98442  0.24542  0.91910  Biso   1.000  C
  C60      1.0000 0.12221  0.31330  0.85379  Biso   1.000  C
  C61      1.0000 0.71642  0.43098  0.84329  Biso   1.000  C
  H61      1.0000 0.68712  0.34010  0.91670  Biso   1.000  H
  H62      1.0000 0.79839  0.38393  0.94810  Biso   1.000  H
  C62      1.0000 0.82340  0.20522  0.97859  Biso   1.000  C
  C63      1.0000 0.66329  0.12312  0.90590  Biso   1.000  C
  C64      1.0000 0.63679  0.08263  0.77167  Biso   1.000  C
  C65      1.0000 0.21559  0.26438  0.65900  Biso   1.000  C
  H63      1.0000 0.16271  0.36819  0.70888  Biso   1.000  H
  N31      1.0000 0.15894  0.27702  0.78476  Biso   1.000  N
  O14      1.0000 0.95044  0.23465  0.54777  Biso   1.000  O
  N32      1.0000 0.13629  0.22260  0.60131  Biso   1.000  N
  H64      1.0000 0.81979  0.52133  0.82570  Biso   1.000  H
  H65      1.0000 0.79583  0.46568  0.75120  Biso   1.000  H
  O15      1.0000 0.05125  0.20856  0.96659  Biso   1.000  O
  H66      1.0000 0.17084  0.29651  0.90200  Biso   1.000  H
  H67      1.0000 0.12949  0.36959  0.84959  Biso   1.000  H
  H68      1.0000 0.66172  0.41208  0.79953  Biso   1.000  H
  H69      1.0000 0.68146  0.47100  0.87162  Biso   1.000  H
  H70      1.0000 0.76644  0.23799  0.99552  Biso   1.000  H
  N33      1.0000 0.77460  0.13131  0.95140  Biso   1.000  N
  H71      1.0000 0.87975  0.19621  0.02500  Biso   1.000  H
  H72      1.0000 0.60710  0.14787  0.93309  Biso   1.000  H
  C66      1.0000 0.64955  0.03242  0.90152  Biso   1.000  C
  N34      1.0000 0.64449  0.01621  0.81748  Biso   1.000  N
  O16      1.0000 0.61829  0.08661  0.69892  Biso   1.000  O
  H73      1.0000 0.26444  0.29768  0.63271  Biso   1.000  H
  N35      1.0000 0.27829  0.21523  0.72059  Biso   1.000  N
  C67      1.0000 0.24539  0.22558  0.79292  Biso   1.000  C
  C68      1.0000 0.16923  0.18099  0.53402  Biso   1.000  C
  C69      1.0000 0.81565  0.06320  0.98250  Biso   1.000  C
  H74      1.0000 0.58131  0.01580  0.92049  Biso   1.000  H
  N36      1.0000 0.74625  0.00410  0.95332  Biso   1.000  N
  C70      1.0000 0.60515  0.94183  0.78332  Biso   1.000  C
  C71      1.0000 0.36780  0.16508  0.70708  Biso   1.000  C
  O17      1.0000 0.28794  0.19480  0.85571  Biso   1.000  O
  H75      1.0000 0.10849  0.18257  0.48930  Biso   1.000  H
  H76      1.0000 0.23190  0.20779  0.51739  Biso   1.000  H
  N37      1.0000 0.19931  0.10012  0.55131  Biso   1.000  N
  O18      1.0000 0.90088  0.05430  0.03166  Biso   1.000  O
  C72      1.0000 0.76553  0.92410  0.97481  Biso   1.000  C
  H77      1.0000 0.56845  0.95008  0.72857  Biso   1.000  H
  H78      1.0000 0.55064  0.92100  0.81369  Biso   1.000  H
  N38      1.0000 0.69344  0.88484  0.78302  Biso   1.000  N
  H79      1.0000 0.41654  0.15729  0.75769  Biso   1.000  H
  H80      1.0000 0.41033  0.19153  0.67100  Biso   1.000  H
  N39      1.0000 0.33351  0.08947  0.67353  Biso   1.000  N
  C73      1.0000 0.30832  0.07209  0.58888  Biso   1.000  C
  C74      1.0000 0.12598  0.04073  0.53042  Biso   1.000  C
  H81      1.0000 0.69681  0.90169  0.98628  Biso   1.000  H
  N40      1.0000 0.80606  0.87612  0.91412  Biso   1.000  N
  H82      1.0000 0.81917  0.92194  0.02380  Biso   1.000  H
  C75      1.0000 0.73821  0.83463  0.85073  Biso   1.000  C
  C76      1.0000 0.72642  0.86313  0.71333  Biso   1.000  C
  C77      1.0000 0.34584  0.02382  0.72029  Biso   1.000  C
  C78      1.0000 0.29370  0.98069  0.58648  Biso   1.000  C
  C79      1.0000 0.39919  0.09807  0.54218  Biso   1.000  C
  N41      1.0000 0.17561  0.97133  0.55389  Biso   1.000  N
  O19      1.0000 0.03103  0.04781  0.49530  Biso   1.000  O
  C80      1.0000 0.91762  0.86471  0.91382  Biso   1.000  C
  C81      1.0000 0.82376  0.78390  0.81309  Biso   1.000  C
  C82      1.0000 0.64777  0.78530  0.88021  Biso   1.000  C
  N42      1.0000 0.79896  0.80291  0.72797  Biso   1.000  N
  O20      1.0000 0.69243  0.89104  0.64693  Biso   1.000  O
  N43      1.0000 0.32111  0.95939  0.67118  Biso   1.000  N
  O21      1.0000 0.37693  0.02212  0.79178  Biso   1.000  O
  C83      1.0000 0.36852  0.94113  0.53612  Biso   1.000  C
  C84      1.0000 0.37895  0.06630  0.45658  Biso   1.000  C
  H83      1.0000 0.47052  0.07958  0.56938  Biso   1.000  H
  H84      1.0000 0.40148  0.15478  0.54068  Biso   1.000  H
  C85      1.0000 0.12108  0.89789  0.53162  Biso   1.000  C
  N44      1.0000 0.92904  0.81550  0.85199  Biso   1.000  N
  O22      1.0000 0.99214  0.89362  0.96161  Biso   1.000  O
  C86      1.0000 0.81075  0.69589  0.82858  Biso   1.000  C
  H85      1.0000 0.67822  0.75873  0.92961  Biso   1.000  H
  H86      1.0000 0.58786  0.81889  0.89113  Biso   1.000  H
  C87      1.0000 0.60384  0.72591  0.81712  Biso   1.000  C
  C88      1.0000 0.84569  0.76388  0.66458  Biso   1.000  C
  C89      1.0000 0.32423  0.88109  0.70312  Biso   1.000  C
  H87      1.0000 0.35021  0.88589  0.53108  Biso   1.000  H
  H88      1.0000 0.44512  0.94581  0.56187  Biso   1.000  H
  C90      1.0000 0.35459  0.97858  0.45238  Biso   1.000  C
  H89      1.0000 0.44382  0.07660  0.43161  Biso   1.000  H
  H90      1.0000 0.31681  0.09398  0.42609  Biso   1.000  H
  H91      1.0000 0.06134  0.90702  0.48732  Biso   1.000  H
  H92      1.0000 0.17384  0.86284  0.51271  Biso   1.000  H
  N45      1.0000 0.07628  0.86044  0.59561  Biso   1.000  N
  C91      1.0000 0.03623  0.78302  0.84551  Biso   1.000  C
  C92      1.0000 0.69521  0.66873  0.79941  Biso   1.000  C
  H93      1.0000 0.86216  0.66669  0.80163  Biso   1.000  H
  H94      1.0000 0.82920  0.68570  0.88573  Biso   1.000  H
  H95      1.0000 0.57321  0.75288  0.76801  Biso   1.000  H
  H96      1.0000 0.54441  0.69641  0.83512  Biso   1.000  H
  H97      1.0000 0.85405  0.70882  0.67773  Biso   1.000  H
  H98      1.0000 0.79320  0.76821  0.61518  Biso   1.000  H
  N46      1.0000 0.95196  0.79373  0.65011  Biso   1.000  N
  H99      1.0000 0.37190  0.88068  0.75481  Biso   1.000  H
  H100     1.0000 0.35729  0.84692  0.66758  Biso   1.000  H
  N47      1.0000 0.21703  0.84973  0.71290  Biso   1.000  N
  H101     1.0000 0.40454  0.95330  0.42098  Biso   1.000  H
  H102     1.0000 0.27930  0.97021  0.42549  Biso   1.000  H
  C93      1.0000 0.96484  0.84288  0.58973  Biso   1.000  C
  C94      1.0000 0.14249  0.80982  0.65228  Biso   1.000  C
  H103     1.0000 0.03010  0.72649  0.84299  Biso   1.000  H
  H104     1.0000 0.08785  0.79630  0.89353  Biso   1.000  H
  N48      1.0000 0.08048  0.81052  0.77600  Biso   1.000  N
  H105     1.0000 0.68425  0.61870  0.82432  Biso   1.000  H
  H106     1.0000 0.68692  0.66031  0.74190  Biso   1.000  H
  C95      1.0000 0.05738  0.77313  0.69832  Biso   1.000  C
  C96      1.0000 0.18094  0.84873  0.78638  Biso   1.000  C
  O23      1.0000 0.89102  0.86664  0.53762  Biso   1.000  O
  H107     1.0000 0.18109  0.77003  0.62520  Biso   1.000  H
  H108     1.0000 0.06678  0.71631  0.70270  Biso   1.000  H
  O24      1.0000 0.22871  0.87431  0.84869  Biso   1.000  O
