data_image0
_cell_length_a       21.648
_cell_length_b       16.943
_cell_length_c       23.867
_cell_angle_alpha    90
_cell_angle_beta     90
_cell_angle_gamma    90

_symmetry_space_group_name_H-M    "P 1"
_symmetry_int_tables_number       1

loop_
  _symmetry_equiv_pos_as_xyz
  'x, y, z'

loop_
  _atom_site_label
  _atom_site_occupancy
  _atom_site_fract_x
  _atom_site_fract_y
  _atom_site_fract_z
  _atom_site_thermal_displace_type
  _atom_site_B_iso_or_equiv
  _atom_site_type_symbol
  C1       1.0000 0.31047  0.70041  0.35798  Biso   1.000  C
  C2       1.0000 0.30007  0.63159  0.31562  Biso   1.000  C
  N1       1.0000 0.29273  0.66541  0.41157  Biso   1.000  N
  H1       1.0000 0.28501  0.74650  0.34889  Biso   1.000  H
  N2       1.0000 0.37588  0.71788  0.35329  Biso   1.000  N
  N3       1.0000 0.27421  0.56938  0.35015  Biso   1.000  N
  N4       1.0000 0.36239  0.61671  0.29522  Biso   1.000  N
  H2       1.0000 0.27199  0.64682  0.28521  Biso   1.000  H
  C3       1.0000 0.26959  0.59080  0.40520  Biso   1.000  C
  C4       1.0000 0.27642  0.71280  0.46038  Biso   1.000  C
  C5       1.0000 0.40498  0.67001  0.31521  Biso   1.000  C
  C6       1.0000 0.40142  0.79331  0.36925  Biso   1.000  C
  C7       1.0000 0.25139  0.49590  0.32782  Biso   1.000  C
  C8       1.0000 0.37458  0.56920  0.24611  Biso   1.000  C
  O1       1.0000 0.24677  0.54961  0.44249  Biso   1.000  O
  H3       1.0000 0.24931  0.75542  0.44861  Biso   1.000  H
  H4       1.0000 0.25370  0.68022  0.48661  Biso   1.000  H
  N5       1.0000 0.32941  0.74597  0.48846  Biso   1.000  N
  O2       1.0000 0.45903  0.67355  0.30075  Biso   1.000  O
  H5       1.0000 0.37361  0.83480  0.35710  Biso   1.000  H
  H6       1.0000 0.44050  0.80092  0.35002  Biso   1.000  H
  N6       1.0000 0.41126  0.80039  0.42888  Biso   1.000  N
  N7       1.0000 0.29975  0.43829  0.31688  Biso   1.000  N
  H7       1.0000 0.22210  0.47341  0.35409  Biso   1.000  H
  H8       1.0000 0.22940  0.50640  0.29321  Biso   1.000  H
  N8       1.0000 0.38239  0.48622  0.25738  Biso   1.000  N
  H9       1.0000 0.41168  0.58880  0.22810  Biso   1.000  H
  H10      1.0000 0.34068  0.57569  0.22001  Biso   1.000  H
  C9       1.0000 0.33241  0.74367  0.54624  Biso   1.000  C
  C10      1.0000 0.36036  0.81638  0.46667  Biso   1.000  C
  C11      1.0000 0.46651  0.82512  0.45025  Biso   1.000  C
  C12      1.0000 0.30428  0.37089  0.34805  Biso   1.000  C
  C13      1.0000 0.33116  0.43210  0.26350  Biso   1.000  C
  C14      1.0000 0.43861  0.44980  0.25860  Biso   1.000  C
  N9       1.0000 0.37352  0.79968  0.56387  Biso   1.000  N
  O3       1.0000 0.30229  0.69958  0.57632  Biso   1.000  O
  H11      1.0000 0.33079  0.85380  0.45029  Biso   1.000  H
  C15      1.0000 0.39297  0.85150  0.51900  Biso   1.000  C
  N10      1.0000 0.45783  0.84672  0.50471  Biso   1.000  N
  O4       1.0000 0.51575  0.82813  0.42414  Biso   1.000  O
  N11      1.0000 0.34326  0.32001  0.32019  Biso   1.000  N
  O5       1.0000 0.27799  0.35743  0.39192  Biso   1.000  O
  C16      1.0000 0.36354  0.35041  0.26681  Biso   1.000  C
  H12      1.0000 0.30238  0.43528  0.23191  Biso   1.000  H
  N12      1.0000 0.42849  0.37001  0.26451  Biso   1.000  N
  O6       1.0000 0.48905  0.48232  0.25562  Biso   1.000  O
  C17      1.0000 0.37939  0.82140  0.62241  Biso   1.000  C
  H13      1.0000 0.38022  0.90610  0.52591  Biso   1.000  H
  C18      1.0000 0.50559  0.88509  0.53727  Biso   1.000  C
  C19      1.0000 0.34747  0.23668  0.33448  Biso   1.000  C
  H14      1.0000 0.35130  0.31588  0.23581  Biso   1.000  H
  C20      1.0000 0.47570  0.31211  0.25315  Biso   1.000  C
  H15      1.0000 0.37338  0.87788  0.62593  Biso   1.000  H
  H16      1.0000 0.34691  0.79549  0.64352  Biso   1.000  H
  N13      1.0000 0.43833  0.80068  0.64683  Biso   1.000  N
  H17      1.0000 0.49062  0.93608  0.54980  Biso   1.000  H
  H18      1.0000 0.54130  0.89417  0.51351  Biso   1.000  H
  N14      1.0000 0.52434  0.83869  0.58583  Biso   1.000  N
  H19      1.0000 0.33791  0.20581  0.30142  Biso   1.000  H
  H20      1.0000 0.31652  0.22481  0.36259  Biso   1.000  H
  N15      1.0000 0.40729  0.21277  0.35551  Biso   1.000  N
  N16      1.0000 0.49390  0.26642  0.30197  Biso   1.000  N
  H21      1.0000 0.46069  0.27622  0.22449  Biso   1.000  H
  H22      1.0000 0.51178  0.33878  0.23832  Biso   1.000  H
  C21      1.0000 0.49469  0.84601  0.64026  Biso   1.000  C
  C22      1.0000 0.44540  0.73812  0.68270  Biso   1.000  C
  C23      1.0000 0.58319  0.80912  0.59023  Biso   1.000  C
  C24      1.0000 0.41681  0.19088  0.40981  Biso   1.000  C
  C25      1.0000 0.45990  0.19613  0.31960  Biso   1.000  C
  C26      1.0000 0.55460  0.26188  0.31734  Biso   1.000  C
  H23      1.0000 0.48868  0.90138  0.65073  Biso   1.000  H
  C27      1.0000 0.54010  0.80387  0.68040  Biso   1.000  C
  N17      1.0000 0.50610  0.73358  0.69803  Biso   1.000  N
  O7       1.0000 0.40424  0.69368  0.69900  Biso   1.000  O
  N18      1.0000 0.59271  0.78717  0.64453  Biso   1.000  N
  O8       1.0000 0.62140  0.80369  0.55235  Biso   1.000  O
  N19      1.0000 0.47566  0.16131  0.41421  Biso   1.000  N
  O9       1.0000 0.37860  0.19631  0.44765  Biso   1.000  O
  C28      1.0000 0.50531  0.15399  0.35979  Biso   1.000  C
  H24      1.0000 0.44849  0.16260  0.28772  Biso   1.000  H
  N20      1.0000 0.56167  0.19932  0.35321  Biso   1.000  N
  O10      1.0000 0.59576  0.30632  0.30100  Biso   1.000  O
  H25      1.0000 0.55151  0.83740  0.71232  Biso   1.000  H
  C29      1.0000 0.52430  0.68789  0.74685  Biso   1.000  C
  C30      1.0000 0.65253  0.76332  0.66552  Biso   1.000  C
  C31      1.0000 0.49441  0.11491  0.46277  Biso   1.000  C
  H26      1.0000 0.51132  0.09862  0.34931  Biso   1.000  H
  C32      1.0000 0.62061  0.17860  0.37763  Biso   1.000  C
  N21      1.0000 0.57151  0.62999  0.73553  Biso   1.000  N
  H27      1.0000 0.53931  0.72378  0.77551  Biso   1.000  H
  H28      1.0000 0.48822  0.66122  0.76172  Biso   1.000  H
  N22      1.0000 0.65674  0.67999  0.67985  Biso   1.000  N
  H29      1.0000 0.66209  0.79419  0.69862  Biso   1.000  H
  H30      1.0000 0.68348  0.77519  0.63741  Biso   1.000  H
  H31      1.0000 0.50938  0.06392  0.45020  Biso   1.000  H
  H32      1.0000 0.45870  0.10583  0.48649  Biso   1.000  H
  N23      1.0000 0.54217  0.15328  0.49533  Biso   1.000  N
  H33      1.0000 0.62662  0.12212  0.37411  Biso   1.000  H
  H34      1.0000 0.65309  0.20451  0.35652  Biso   1.000  H
  N24      1.0000 0.62648  0.20032  0.43613  Biso   1.000  N
  C33      1.0000 0.56139  0.55020  0.74144  Biso   1.000  C
  C34      1.0000 0.63646  0.64959  0.73323  Biso   1.000  C
  C35      1.0000 0.69572  0.62911  0.65195  Biso   1.000  C
  C36      1.0000 0.60703  0.14850  0.48100  Biso   1.000  C
  C37      1.0000 0.53349  0.17488  0.54980  Biso   1.000  C
  C38      1.0000 0.66759  0.25627  0.45381  Biso   1.000  C
  N25      1.0000 0.61761  0.51378  0.74262  Biso   1.000  N
  O11      1.0000 0.51095  0.51762  0.74442  Biso   1.000  O
  C39      1.0000 0.66884  0.56790  0.73654  Biso   1.000  C
  H35      1.0000 0.64870  0.68412  0.76419  Biso   1.000  H
  N26      1.0000 0.70025  0.56171  0.68312  Biso   1.000  N
  O12      1.0000 0.72201  0.64257  0.60808  Biso   1.000  O
  C40      1.0000 0.63964  0.18362  0.53333  Biso   1.000  C
  H36      1.0000 0.61978  0.09390  0.47413  Biso   1.000  H
  N27      1.0000 0.58874  0.19961  0.57112  Biso   1.000  N
  O13      1.0000 0.48425  0.17187  0.57590  Biso   1.000  O
  N28      1.0000 0.67059  0.25397  0.51154  Biso   1.000  N
  O14      1.0000 0.69771  0.30042  0.42368  Biso   1.000  O
  C41      1.0000 0.62542  0.43080  0.75389  Biso   1.000  C
  H37      1.0000 0.69762  0.56472  0.76813  Biso   1.000  H
  C42      1.0000 0.74861  0.50410  0.67218  Biso   1.000  C
  H38      1.0000 0.66921  0.14620  0.54971  Biso   1.000  H
  C43      1.0000 0.59858  0.20669  0.63079  Biso   1.000  C
  C44      1.0000 0.72358  0.28720  0.53966  Biso   1.000  C
  N29      1.0000 0.63761  0.38329  0.70478  Biso   1.000  N
  H39      1.0000 0.58832  0.41120  0.77190  Biso   1.000  H
  H40      1.0000 0.65932  0.42431  0.78003  Biso   1.000  H
  N30      1.0000 0.72579  0.43062  0.64989  Biso   1.000  N
  H41      1.0000 0.77790  0.52659  0.64591  Biso   1.000  H
  H42      1.0000 0.77060  0.49360  0.70679  Biso   1.000  H
  H43      1.0000 0.62639  0.16520  0.64290  Biso   1.000  H
  H44      1.0000 0.55950  0.19908  0.65002  Biso   1.000  H
  N31      1.0000 0.62412  0.28212  0.64675  Biso   1.000  N
  H45      1.0000 0.75069  0.24458  0.55139  Biso   1.000  H
  H46      1.0000 0.74630  0.31978  0.51343  Biso   1.000  H
  N32      1.0000 0.70727  0.33459  0.58843  Biso   1.000  N
  C45      1.0000 0.59502  0.32999  0.68484  Biso   1.000  C
  C46      1.0000 0.69993  0.36841  0.68442  Biso   1.000  C
  C47      1.0000 0.73041  0.40920  0.59480  Biso   1.000  C
  C48      1.0000 0.68953  0.29959  0.64202  Biso   1.000  C
  O15      1.0000 0.54097  0.32645  0.69925  Biso   1.000  O
  H47      1.0000 0.72801  0.35318  0.71479  Biso   1.000  H
  O16      1.0000 0.75323  0.45039  0.55755  Biso   1.000  O
  H48      1.0000 0.71499  0.25350  0.65111  Biso   1.000  H
  C49      1.0000 0.15253  0.73671  0.33448  Biso   1.000  C
  H49      1.0000 0.16209  0.70578  0.30142  Biso   1.000  H
  H50      1.0000 0.18348  0.72478  0.36259  Biso   1.000  H
  N33      1.0000 0.09271  0.71280  0.35551  Biso   1.000  N
  N34      1.0000 0.15674  0.81998  0.32019  Biso   1.000  N
  C50      1.0000 0.08319  0.69090  0.40981  Biso   1.000  C
  C51      1.0000 0.04010  0.69610  0.31960  Biso   1.000  C
  C52      1.0000 0.19572  0.87092  0.34805  Biso   1.000  C
  C53      1.0000 0.13646  0.85038  0.26681  Biso   1.000  C
  N35      1.0000 0.02434  0.66128  0.41421  Biso   1.000  N
  O17      1.0000 0.12140  0.69633  0.44765  Biso   1.000  O
  H51      1.0000 0.05151  0.66257  0.28772  Biso   1.000  H
  N36      1.0000 0.00610  0.76639  0.30197  Biso   1.000  N
  C54      1.0000 0.99469  0.65402  0.35979  Biso   1.000  C
  N37      1.0000 0.20025  0.93832  0.31688  Biso   1.000  N
  O18      1.0000 0.22201  0.85740  0.39192  Biso   1.000  O
  H52      1.0000 0.14870  0.81591  0.23581  Biso   1.000  H
  C55      1.0000 0.16884  0.93207  0.26350  Biso   1.000  C
  N38      1.0000 0.07151  0.86998  0.26451  Biso   1.000  N
  C56      1.0000 0.00559  0.61489  0.46277  Biso   1.000  C
  C57      1.0000 0.02430  0.81208  0.25315  Biso   1.000  C
  C58      1.0000 0.94540  0.76191  0.31734  Biso   1.000  C
  H53      1.0000 0.98868  0.59860  0.34931  Biso   1.000  H
  N39      1.0000 0.93833  0.69929  0.35321  Biso   1.000  N
  C59      1.0000 0.24861  0.99587  0.32782  Biso   1.000  C
  H54      1.0000 0.19762  0.93531  0.23191  Biso   1.000  H
  N40      1.0000 0.11761  0.98619  0.25738  Biso   1.000  N
  C60      1.0000 0.06139  0.94977  0.25860  Biso   1.000  C
  H55      1.0000 0.04130  0.60580  0.48649  Biso   1.000  H
  H56      1.0000 0.99062  0.56389  0.45020  Biso   1.000  H
  N41      1.0000 0.95783  0.65331  0.49533  Biso   1.000  N
  H57      1.0000 0.03931  0.77619  0.22449  Biso   1.000  H
  H58      1.0000 0.98822  0.83881  0.23832  Biso   1.000  H
  O19      1.0000 0.90424  0.80629  0.30100  Biso   1.000  O
  C61      1.0000 0.87939  0.67857  0.37763  Biso   1.000  C
  H59      1.0000 0.27790  0.97338  0.35409  Biso   1.000  H
  H60      1.0000 0.27060  0.00637  0.29321  Biso   1.000  H
  N42      1.0000 0.22579  0.06941  0.35015  Biso   1.000  N
  C62      1.0000 0.12542  0.06917  0.24611  Biso   1.000  C
  O20      1.0000 0.01095  0.98235  0.25562  Biso   1.000  O
  C63      1.0000 0.89297  0.64847  0.48100  Biso   1.000  C
  C64      1.0000 0.96651  0.67491  0.54980  Biso   1.000  C
  H61      1.0000 0.87338  0.62209  0.37411  Biso   1.000  H
  H62      1.0000 0.84691  0.70448  0.35652  Biso   1.000  H
  N43      1.0000 0.87352  0.70029  0.43613  Biso   1.000  N
  C65      1.0000 0.23041  0.09077  0.40520  Biso   1.000  C
  C66      1.0000 0.19993  0.13162  0.31562  Biso   1.000  C
  H63      1.0000 0.08832  0.08883  0.22810  Biso   1.000  H
  H64      1.0000 0.15932  0.07572  0.22001  Biso   1.000  H
  N44      1.0000 0.13761  0.11669  0.29522  Biso   1.000  N
  C67      1.0000 0.86036  0.68359  0.53333  Biso   1.000  C
  H65      1.0000 0.88022  0.59387  0.47413  Biso   1.000  H
  O21      1.0000 0.01575  0.67190  0.57590  Biso   1.000  O
  N45      1.0000 0.91126  0.69958  0.57112  Biso   1.000  N
  C68      1.0000 0.83241  0.75630  0.45381  Biso   1.000  C
  N46      1.0000 0.20727  0.16538  0.41157  Biso   1.000  N
  O22      1.0000 0.25323  0.04958  0.44249  Biso   1.000  O
  H66      1.0000 0.22801  0.14679  0.28521  Biso   1.000  H
  C69      1.0000 0.18953  0.20038  0.35798  Biso   1.000  C
  C70      1.0000 0.09502  0.16998  0.31521  Biso   1.000  C
  H67      1.0000 0.83079  0.64623  0.54971  Biso   1.000  H
  N47      1.0000 0.82941  0.75400  0.51154  Biso   1.000  N
  C71      1.0000 0.90142  0.70672  0.63079  Biso   1.000  C
  O23      1.0000 0.80229  0.80039  0.42368  Biso   1.000  O
  C72      1.0000 0.22358  0.21277  0.46038  Biso   1.000  C
  H68      1.0000 0.21499  0.24647  0.34889  Biso   1.000  H
  N48      1.0000 0.12412  0.21791  0.35329  Biso   1.000  N
  O24      1.0000 0.04097  0.17352  0.30075  Biso   1.000  O
  C73      1.0000 0.77642  0.78717  0.53966  Biso   1.000  C
  H69      1.0000 0.87361  0.66517  0.64290  Biso   1.000  H
  H70      1.0000 0.94050  0.69911  0.65002  Biso   1.000  H
  N49      1.0000 0.87588  0.78209  0.64675  Biso   1.000  N
  H71      1.0000 0.25069  0.25539  0.44861  Biso   1.000  H
  H72      1.0000 0.24630  0.18019  0.48661  Biso   1.000  H
  N50      1.0000 0.17059  0.24600  0.48846  Biso   1.000  N
  C74      1.0000 0.09858  0.29328  0.36925  Biso   1.000  C
  H73      1.0000 0.74931  0.74461  0.55139  Biso   1.000  H
  H74      1.0000 0.75370  0.81981  0.51343  Biso   1.000  H
  N51      1.0000 0.79273  0.83462  0.58843  Biso   1.000  N
  C75      1.0000 0.81047  0.79962  0.64202  Biso   1.000  C
  C76      1.0000 0.90498  0.83002  0.68484  Biso   1.000  C
  C77      1.0000 0.16759  0.24370  0.54624  Biso   1.000  C
  C78      1.0000 0.13964  0.31641  0.46667  Biso   1.000  C
  H75      1.0000 0.12639  0.33477  0.35710  Biso   1.000  H
  H76      1.0000 0.05950  0.30089  0.35002  Biso   1.000  H
  N52      1.0000 0.08874  0.30042  0.42888  Biso   1.000  N
  C79      1.0000 0.76959  0.90917  0.59480  Biso   1.000  C
  C80      1.0000 0.80007  0.86838  0.68442  Biso   1.000  C
  H77      1.0000 0.78501  0.75347  0.65111  Biso   1.000  H
  N53      1.0000 0.86239  0.88331  0.70478  Biso   1.000  N
  O25      1.0000 0.95903  0.82648  0.69925  Biso   1.000  O
  N54      1.0000 0.12648  0.29971  0.56387  Biso   1.000  N
  O26      1.0000 0.19771  0.19961  0.57632  Biso   1.000  O
  H78      1.0000 0.16921  0.35377  0.45029  Biso   1.000  H
  C81      1.0000 0.10703  0.35147  0.51900  Biso   1.000  C
  C82      1.0000 0.03349  0.32509  0.45025  Biso   1.000  C
  N55      1.0000 0.77421  0.93059  0.64989  Biso   1.000  N
  O27      1.0000 0.74677  0.95042  0.55755  Biso   1.000  O
  H79      1.0000 0.77199  0.85321  0.71479  Biso   1.000  H
  C83      1.0000 0.87458  0.93077  0.75389  Biso   1.000  C
  C84      1.0000 0.12061  0.32137  0.62241  Biso   1.000  C
  H80      1.0000 0.11978  0.40613  0.52591  Biso   1.000  H
  N56      1.0000 0.04217  0.34669  0.50471  Biso   1.000  N
  O28      1.0000 0.98425  0.32810  0.42414  Biso   1.000  O
  C85      1.0000 0.75139  0.00407  0.67218  Biso   1.000  C
  H81      1.0000 0.91168  0.91117  0.77190  Biso   1.000  H
  H82      1.0000 0.84068  0.92428  0.78003  Biso   1.000  H
  N57      1.0000 0.88239  0.01381  0.74262  Biso   1.000  N
  H83      1.0000 0.12662  0.37791  0.62593  Biso   1.000  H
  H84      1.0000 0.15309  0.29552  0.64352  Biso   1.000  H
  N58      1.0000 0.06167  0.30071  0.64683  Biso   1.000  N
  C86      1.0000 0.99441  0.38511  0.53727  Biso   1.000  C
  H85      1.0000 0.72940  0.99357  0.70679  Biso   1.000  H
  H86      1.0000 0.72210  0.02662  0.64591  Biso   1.000  H
  N59      1.0000 0.79975  0.06168  0.68312  Biso   1.000  N
  C87      1.0000 0.83116  0.06787  0.73654  Biso   1.000  C
  C88      1.0000 0.93861  0.05023  0.74144  Biso   1.000  C
  C89      1.0000 0.00531  0.34598  0.64026  Biso   1.000  C
  C90      1.0000 0.05460  0.23809  0.68270  Biso   1.000  C
  H87      1.0000 0.95870  0.39420  0.51351  Biso   1.000  H
  N60      1.0000 0.97566  0.33872  0.58583  Biso   1.000  N
  H88      1.0000 0.00938  0.43611  0.54980  Biso   1.000  H
  C91      1.0000 0.80428  0.12908  0.65195  Biso   1.000  C
  C92      1.0000 0.86354  0.14962  0.73323  Biso   1.000  C
  H89      1.0000 0.80238  0.06469  0.76813  Biso   1.000  H
  N61      1.0000 0.92849  0.13002  0.73553  Biso   1.000  N
  O29      1.0000 0.98905  0.01765  0.74442  Biso   1.000  O
  C93      1.0000 0.95990  0.30390  0.68040  Biso   1.000  C
  H90      1.0000 0.01132  0.40140  0.65073  Biso   1.000  H
  N62      1.0000 0.99390  0.23361  0.69803  Biso   1.000  N
  O30      1.0000 0.09576  0.19371  0.69900  Biso   1.000  O
  C94      1.0000 0.91681  0.30910  0.59023  Biso   1.000  C
  N63      1.0000 0.84326  0.18002  0.67985  Biso   1.000  N
  O31      1.0000 0.77799  0.14260  0.60808  Biso   1.000  O
  H91      1.0000 0.85130  0.18409  0.76419  Biso   1.000  H
  C95      1.0000 0.97570  0.18792  0.74685  Biso   1.000  C
  H92      1.0000 0.94849  0.33743  0.71232  Biso   1.000  H
  N64      1.0000 0.90729  0.28720  0.64453  Biso   1.000  N
  O32      1.0000 0.87860  0.30367  0.55235  Biso   1.000  O
  C96      1.0000 0.84747  0.26329  0.66552  Biso   1.000  C
  H93      1.0000 0.96069  0.22381  0.77551  Biso   1.000  H
  H94      1.0000 0.01178  0.16119  0.76172  Biso   1.000  H
  H95      1.0000 0.83791  0.29422  0.69862  Biso   1.000  H
  H96      1.0000 0.81652  0.27522  0.63741  Biso   1.000  H
  O33      1.0000 0.40424  0.80629  0.19902  Biso   1.000  O
  C97      1.0000 0.44540  0.76191  0.18268  Biso   1.000  C
  N65      1.0000 0.43833  0.69929  0.14681  Biso   1.000  N
  N66      1.0000 0.50610  0.76639  0.19801  Biso   1.000  N
  C98      1.0000 0.37939  0.67857  0.12239  Biso   1.000  C
  C99      1.0000 0.49469  0.65402  0.14024  Biso   1.000  C
  C100     1.0000 0.54010  0.69610  0.18042  Biso   1.000  C
  C101     1.0000 0.52430  0.81208  0.24683  Biso   1.000  C
  H97      1.0000 0.37338  0.62209  0.12591  Biso   1.000  H
  H98      1.0000 0.34691  0.70448  0.14350  Biso   1.000  H
  N67      1.0000 0.37352  0.70029  0.06385  Biso   1.000  N
  H99      1.0000 0.48868  0.59860  0.15071  Biso   1.000  H
  N68      1.0000 0.52434  0.66128  0.08581  Biso   1.000  N
  H100     1.0000 0.55151  0.66257  0.21230  Biso   1.000  H
  N69      1.0000 0.59271  0.71280  0.14451  Biso   1.000  N
  H101     1.0000 0.53931  0.77619  0.27548  Biso   1.000  H
  H102     1.0000 0.48822  0.83881  0.26170  Biso   1.000  H
  N70      1.0000 0.57151  0.86998  0.23551  Biso   1.000  N
  C102     1.0000 0.33241  0.75630  0.04621  Biso   1.000  C
  C103     1.0000 0.39297  0.64847  0.01902  Biso   1.000  C
  C104     1.0000 0.58319  0.69090  0.09021  Biso   1.000  C
  C105     1.0000 0.50559  0.61489  0.03725  Biso   1.000  C
  C106     1.0000 0.65253  0.73671  0.16554  Biso   1.000  C
  C107     1.0000 0.63646  0.85038  0.23321  Biso   1.000  C
  C108     1.0000 0.56139  0.94977  0.24142  Biso   1.000  C
  O34      1.0000 0.30229  0.80039  0.07634  Biso   1.000  O
  N71      1.0000 0.32941  0.75400  0.98848  Biso   1.000  N
  H103     1.0000 0.38022  0.59387  0.02589  Biso   1.000  H
  N72      1.0000 0.45783  0.65331  0.00469  Biso   1.000  N
  C109     1.0000 0.36036  0.68359  0.96669  Biso   1.000  C
  O35      1.0000 0.62140  0.69633  0.05233  Biso   1.000  O
  H104     1.0000 0.49062  0.56389  0.04982  Biso   1.000  H
  H105     1.0000 0.54130  0.60580  0.01349  Biso   1.000  H
  H106     1.0000 0.66209  0.70578  0.19860  Biso   1.000  H
  H107     1.0000 0.68348  0.72478  0.13739  Biso   1.000  H
  N73      1.0000 0.65674  0.81998  0.17983  Biso   1.000  N
  H108     1.0000 0.64870  0.81591  0.26421  Biso   1.000  H
  C110     1.0000 0.66884  0.93207  0.23652  Biso   1.000  C
  N74      1.0000 0.61761  0.98619  0.24264  Biso   1.000  N
  O36      1.0000 0.51095  0.98235  0.24440  Biso   1.000  O
  C111     1.0000 0.27642  0.78717  0.96036  Biso   1.000  C
  C112     1.0000 0.46651  0.67491  0.95022  Biso   1.000  C
  H109     1.0000 0.33079  0.64623  0.95031  Biso   1.000  H
  N75      1.0000 0.41126  0.69958  0.92890  Biso   1.000  N
  C113     1.0000 0.69572  0.87092  0.15197  Biso   1.000  C
  N76      1.0000 0.70025  0.93832  0.18314  Biso   1.000  N
  H110     1.0000 0.69762  0.93531  0.26811  Biso   1.000  H
  C114     1.0000 0.62542  0.06917  0.25387  Biso   1.000  C
  H111     1.0000 0.24931  0.74461  0.94863  Biso   1.000  H
  H112     1.0000 0.25370  0.81981  0.98663  Biso   1.000  H
  N77      1.0000 0.29273  0.83462  0.91159  Biso   1.000  N
  O37      1.0000 0.51575  0.67190  0.92412  Biso   1.000  O
  C115     1.0000 0.40142  0.70672  0.86923  Biso   1.000  C
  O38      1.0000 0.72201  0.85740  0.10806  Biso   1.000  O
  C116     1.0000 0.74861  0.99587  0.17220  Biso   1.000  C
  H113     1.0000 0.58832  0.08883  0.27192  Biso   1.000  H
  H114     1.0000 0.65932  0.07572  0.28001  Biso   1.000  H
  N78      1.0000 0.63761  0.11669  0.20480  Biso   1.000  N
  C117     1.0000 0.26959  0.90917  0.90522  Biso   1.000  C
  C118     1.0000 0.31047  0.79962  0.85800  Biso   1.000  C
  H115     1.0000 0.37361  0.66517  0.85712  Biso   1.000  H
  H116     1.0000 0.44050  0.69911  0.85000  Biso   1.000  H
  N79      1.0000 0.37588  0.78209  0.85327  Biso   1.000  N
  H117     1.0000 0.77790  0.97338  0.14589  Biso   1.000  H
  H118     1.0000 0.77060  0.00637  0.20681  Biso   1.000  H
  N80      1.0000 0.72579  0.06941  0.14987  Biso   1.000  N
  C119     1.0000 0.69993  0.13162  0.18440  Biso   1.000  C
  C120     1.0000 0.59502  0.16998  0.18482  Biso   1.000  C
  N81      1.0000 0.27421  0.93059  0.85013  Biso   1.000  N
  O39      1.0000 0.24677  0.95042  0.94251  Biso   1.000  O
  C121     1.0000 0.30007  0.86838  0.81560  Biso   1.000  C
  H119     1.0000 0.28501  0.75347  0.84891  Biso   1.000  H
  C122     1.0000 0.40498  0.83002  0.81518  Biso   1.000  C
  C123     1.0000 0.73041  0.09077  0.09478  Biso   1.000  C
  H120     1.0000 0.72801  0.14679  0.21482  Biso   1.000  H
  C124     1.0000 0.68953  0.20038  0.14200  Biso   1.000  C
  N82      1.0000 0.62412  0.21791  0.14673  Biso   1.000  N
  O40      1.0000 0.54097  0.17352  0.19923  Biso   1.000  O
  C125     1.0000 0.25139  0.00407  0.82784  Biso   1.000  C
  H121     1.0000 0.27199  0.85321  0.78523  Biso   1.000  H
  N83      1.0000 0.36239  0.88331  0.79524  Biso   1.000  N
  O41      1.0000 0.45903  0.82648  0.80077  Biso   1.000  O
  N84      1.0000 0.70727  0.16538  0.08845  Biso   1.000  N
  O42      1.0000 0.75323  0.04958  0.05753  Biso   1.000  O
  H122     1.0000 0.71499  0.24647  0.15109  Biso   1.000  H
  C126     1.0000 0.59858  0.29328  0.13077  Biso   1.000  C
  H123     1.0000 0.22940  0.99357  0.79323  Biso   1.000  H
  H124     1.0000 0.22210  0.02662  0.85411  Biso   1.000  H
  N85      1.0000 0.29975  0.06168  0.81690  Biso   1.000  N
  C127     1.0000 0.37458  0.93077  0.74613  Biso   1.000  C
  C128     1.0000 0.72358  0.21277  0.03964  Biso   1.000  C
  H125     1.0000 0.62639  0.33477  0.14292  Biso   1.000  H
  H126     1.0000 0.55950  0.30089  0.15000  Biso   1.000  H
  N86      1.0000 0.58874  0.30042  0.07110  Biso   1.000  N
  C129     1.0000 0.30428  0.12908  0.84807  Biso   1.000  C
  C130     1.0000 0.33116  0.06787  0.76348  Biso   1.000  C
  H127     1.0000 0.41168  0.91117  0.72812  Biso   1.000  H
  H128     1.0000 0.34068  0.92428  0.72003  Biso   1.000  H
  N87      1.0000 0.38239  0.01381  0.75741  Biso   1.000  N
  H129     1.0000 0.75069  0.25539  0.05141  Biso   1.000  H
  H130     1.0000 0.74630  0.18019  0.01341  Biso   1.000  H
  N88      1.0000 0.67059  0.24600  0.01156  Biso   1.000  N
  C131     1.0000 0.63964  0.31641  0.03335  Biso   1.000  C
  C132     1.0000 0.53349  0.32509  0.04978  Biso   1.000  C
  N89      1.0000 0.34326  0.18002  0.82021  Biso   1.000  N
  O43      1.0000 0.27799  0.14260  0.89194  Biso   1.000  O
  C133     1.0000 0.36354  0.14962  0.76683  Biso   1.000  C
  H131     1.0000 0.30238  0.06469  0.73193  Biso   1.000  H
  C134     1.0000 0.43861  0.05023  0.75862  Biso   1.000  C
  C135     1.0000 0.66759  0.24370  0.95379  Biso   1.000  C
  C136     1.0000 0.60703  0.35147  0.98102  Biso   1.000  C
  H132     1.0000 0.66921  0.35377  0.04969  Biso   1.000  H
  N90      1.0000 0.54217  0.34669  0.99531  Biso   1.000  N
  O44      1.0000 0.48425  0.32810  0.07588  Biso   1.000  O
  C137     1.0000 0.34747  0.26329  0.83450  Biso   1.000  C
  H133     1.0000 0.35130  0.18409  0.73583  Biso   1.000  H
  N91      1.0000 0.42849  0.13002  0.76449  Biso   1.000  N
  O45      1.0000 0.48905  0.01765  0.75560  Biso   1.000  O
  N92      1.0000 0.62648  0.29971  0.93615  Biso   1.000  N
  O46      1.0000 0.69771  0.19961  0.92370  Biso   1.000  O
  H134     1.0000 0.61978  0.40613  0.97411  Biso   1.000  H
  C138     1.0000 0.49441  0.38511  0.96279  Biso   1.000  C
  H135     1.0000 0.33791  0.29422  0.80140  Biso   1.000  H
  H136     1.0000 0.31652  0.27522  0.86261  Biso   1.000  H
  N93      1.0000 0.40729  0.28720  0.85553  Biso   1.000  N
  C139     1.0000 0.47570  0.18792  0.75317  Biso   1.000  C
  C140     1.0000 0.62061  0.32137  0.87766  Biso   1.000  C
  N94      1.0000 0.47566  0.33872  0.91419  Biso   1.000  N
  H137     1.0000 0.50938  0.43611  0.95022  Biso   1.000  H
  H138     1.0000 0.45870  0.39420  0.98651  Biso   1.000  H
  C141     1.0000 0.41681  0.30910  0.90979  Biso   1.000  C
  C142     1.0000 0.45990  0.30390  0.81963  Biso   1.000  C
  H139     1.0000 0.46069  0.22381  0.72452  Biso   1.000  H
  H140     1.0000 0.51178  0.16119  0.73830  Biso   1.000  H
  N95      1.0000 0.49390  0.23361  0.80199  Biso   1.000  N
  N96      1.0000 0.56167  0.30071  0.85319  Biso   1.000  N
  H141     1.0000 0.62662  0.37791  0.87409  Biso   1.000  H
  H142     1.0000 0.65309  0.29552  0.85650  Biso   1.000  H
  C143     1.0000 0.50531  0.34598  0.85976  Biso   1.000  C
  O47      1.0000 0.37860  0.30367  0.94767  Biso   1.000  O
  H143     1.0000 0.44849  0.33743  0.78770  Biso   1.000  H
  C144     1.0000 0.55460  0.23809  0.81736  Biso   1.000  C
  H144     1.0000 0.51132  0.40140  0.84933  Biso   1.000  H
  O48      1.0000 0.59576  0.19371  0.80102  Biso   1.000  O
  O49      1.0000 0.98905  0.48232  0.24440  Biso   1.000  O
  C145     1.0000 0.93861  0.44980  0.24142  Biso   1.000  C
  N97      1.0000 0.92849  0.37001  0.23551  Biso   1.000  N
  N98      1.0000 0.88239  0.48622  0.24264  Biso   1.000  N
  C146     1.0000 0.97570  0.31211  0.24683  Biso   1.000  C
  C147     1.0000 0.86354  0.35041  0.23321  Biso   1.000  C
  C148     1.0000 0.83116  0.43210  0.23652  Biso   1.000  C
  C149     1.0000 0.87458  0.56920  0.25387  Biso   1.000  C
  N99      1.0000 0.99390  0.26642  0.19801  Biso   1.000  N
  H145     1.0000 0.01178  0.33878  0.26170  Biso   1.000  H
  H146     1.0000 0.96069  0.27622  0.27548  Biso   1.000  H
  N100     1.0000 0.84326  0.32001  0.17983  Biso   1.000  N
  H147     1.0000 0.85130  0.31588  0.26421  Biso   1.000  H
  H148     1.0000 0.80238  0.43528  0.26811  Biso   1.000  H
  N101     1.0000 0.79975  0.43829  0.18314  Biso   1.000  N
  H149     1.0000 0.91168  0.58880  0.27192  Biso   1.000  H
  H150     1.0000 0.84068  0.57569  0.28001  Biso   1.000  H
  N102     1.0000 0.86239  0.61671  0.20480  Biso   1.000  N
  C150     1.0000 0.05460  0.26188  0.18268  Biso   1.000  C
  C151     1.0000 0.95990  0.19613  0.18042  Biso   1.000  C
  C152     1.0000 0.84747  0.23668  0.16554  Biso   1.000  C
  C153     1.0000 0.80428  0.37089  0.15197  Biso   1.000  C
  C154     1.0000 0.75139  0.49590  0.17220  Biso   1.000  C
  C155     1.0000 0.80007  0.63159  0.18440  Biso   1.000  C
  C156     1.0000 0.90498  0.67001  0.18482  Biso   1.000  C
  O50      1.0000 0.09576  0.30632  0.19902  Biso   1.000  O
  N103     1.0000 0.06167  0.19932  0.14681  Biso   1.000  N
  C157     1.0000 0.00531  0.15399  0.14024  Biso   1.000  C
  H151     1.0000 0.94849  0.16260  0.21230  Biso   1.000  H
  N104     1.0000 0.90729  0.21277  0.14451  Biso   1.000  N
  H152     1.0000 0.83791  0.20581  0.19860  Biso   1.000  H
  H153     1.0000 0.81652  0.22481  0.13739  Biso   1.000  H
  O51      1.0000 0.77799  0.35743  0.10806  Biso   1.000  O
  H154     1.0000 0.72210  0.47341  0.14589  Biso   1.000  H
  H155     1.0000 0.72940  0.50640  0.20681  Biso   1.000  H
  N105     1.0000 0.77421  0.56938  0.14987  Biso   1.000  N
  H156     1.0000 0.77199  0.64682  0.21482  Biso   1.000  H
  C158     1.0000 0.81047  0.70041  0.14200  Biso   1.000  C
  N106     1.0000 0.87588  0.71788  0.14673  Biso   1.000  N
  O52      1.0000 0.95903  0.67355  0.19923  Biso   1.000  O
  C159     1.0000 0.12061  0.17860  0.12239  Biso   1.000  C
  H157     1.0000 0.01132  0.09862  0.15071  Biso   1.000  H
  N107     1.0000 0.97566  0.16131  0.08581  Biso   1.000  N
  C160     1.0000 0.91681  0.19088  0.09021  Biso   1.000  C
  C161     1.0000 0.76959  0.59080  0.09478  Biso   1.000  C
  N108     1.0000 0.79273  0.66541  0.08845  Biso   1.000  N
  H158     1.0000 0.78501  0.74650  0.15109  Biso   1.000  H
  C162     1.0000 0.90142  0.79331  0.13077  Biso   1.000  C
  H159     1.0000 0.12662  0.12212  0.12591  Biso   1.000  H
  H160     1.0000 0.15309  0.20451  0.14350  Biso   1.000  H
  N109     1.0000 0.12648  0.20032  0.06385  Biso   1.000  N
  C163     1.0000 0.99441  0.11491  0.03725  Biso   1.000  C
  O53      1.0000 0.87860  0.19631  0.05233  Biso   1.000  O
  O54      1.0000 0.74677  0.54961  0.05753  Biso   1.000  O
  C164     1.0000 0.77642  0.71280  0.03964  Biso   1.000  C
  H161     1.0000 0.87361  0.83480  0.14292  Biso   1.000  H
  H162     1.0000 0.94050  0.80092  0.15000  Biso   1.000  H
  N110     1.0000 0.91126  0.80039  0.07110  Biso   1.000  N
  C165     1.0000 0.16759  0.25627  0.04621  Biso   1.000  C
  C166     1.0000 0.10703  0.14850  0.01902  Biso   1.000  C
  H163     1.0000 0.00938  0.06392  0.04982  Biso   1.000  H
  N111     1.0000 0.04217  0.15328  0.00469  Biso   1.000  N
  H164     1.0000 0.95870  0.10583  0.01349  Biso   1.000  H
  H165     1.0000 0.74931  0.75542  0.05141  Biso   1.000  H
  H166     1.0000 0.75370  0.68022  0.01341  Biso   1.000  H
  N112     1.0000 0.82941  0.74597  0.01156  Biso   1.000  N
  C167     1.0000 0.86036  0.81638  0.03335  Biso   1.000  C
  C168     1.0000 0.96651  0.82512  0.04978  Biso   1.000  C
  O55      1.0000 0.19771  0.30042  0.07634  Biso   1.000  O
  N113     1.0000 0.17059  0.25397  0.98848  Biso   1.000  N
  H167     1.0000 0.11978  0.09390  0.02589  Biso   1.000  H
  C169     1.0000 0.13964  0.18362  0.96669  Biso   1.000  C
  C170     1.0000 0.03349  0.17488  0.95022  Biso   1.000  C
  C171     1.0000 0.83241  0.74367  0.95379  Biso   1.000  C
  C172     1.0000 0.89297  0.85150  0.98102  Biso   1.000  C
  H168     1.0000 0.83079  0.85380  0.04969  Biso   1.000  H
  O56      1.0000 0.01575  0.82813  0.07588  Biso   1.000  O
  N114     1.0000 0.95783  0.84672  0.99531  Biso   1.000  N
  C173     1.0000 0.22358  0.28720  0.96036  Biso   1.000  C
  H169     1.0000 0.16921  0.14620  0.95031  Biso   1.000  H
  N115     1.0000 0.08874  0.19961  0.92890  Biso   1.000  N
  O57      1.0000 0.98425  0.17187  0.92412  Biso   1.000  O
  N116     1.0000 0.87352  0.79968  0.93615  Biso   1.000  N
  O58      1.0000 0.80229  0.69958  0.92370  Biso   1.000  O
  H170     1.0000 0.88022  0.90610  0.97411  Biso   1.000  H
  C174     1.0000 0.00559  0.88509  0.96279  Biso   1.000  C
  H171     1.0000 0.25069  0.24458  0.94863  Biso   1.000  H
  H172     1.0000 0.24630  0.31978  0.98663  Biso   1.000  H
  N117     1.0000 0.20727  0.33459  0.91159  Biso   1.000  N
  C175     1.0000 0.09858  0.20669  0.86923  Biso   1.000  C
  C176     1.0000 0.87939  0.82140  0.87766  Biso   1.000  C
  H173     1.0000 0.99062  0.93608  0.95022  Biso   1.000  H
  H174     1.0000 0.04130  0.89417  0.98651  Biso   1.000  H
  N118     1.0000 0.02434  0.83869  0.91419  Biso   1.000  N
  C177     1.0000 0.23041  0.40920  0.90522  Biso   1.000  C
  C178     1.0000 0.18953  0.29959  0.85800  Biso   1.000  C
  H175     1.0000 0.12639  0.16520  0.85712  Biso   1.000  H
  H176     1.0000 0.05950  0.19908  0.85000  Biso   1.000  H
  N119     1.0000 0.12412  0.28212  0.85327  Biso   1.000  N
  H177     1.0000 0.87338  0.87788  0.87409  Biso   1.000  H
  H178     1.0000 0.84691  0.79549  0.85650  Biso   1.000  H
  N120     1.0000 0.93833  0.80068  0.85319  Biso   1.000  N
  C179     1.0000 0.08319  0.80912  0.90979  Biso   1.000  C
  C180     1.0000 0.99469  0.84601  0.85976  Biso   1.000  C
  N121     1.0000 0.22579  0.43062  0.85013  Biso   1.000  N
  O59      1.0000 0.25323  0.45039  0.94251  Biso   1.000  O
  C181     1.0000 0.19993  0.36841  0.81560  Biso   1.000  C
  H179     1.0000 0.21499  0.25350  0.84891  Biso   1.000  H
  C182     1.0000 0.09502  0.32999  0.81518  Biso   1.000  C
  C183     1.0000 0.94540  0.73812  0.81736  Biso   1.000  C
  N122     1.0000 0.09271  0.78717  0.85553  Biso   1.000  N
  O60      1.0000 0.12140  0.80369  0.94767  Biso   1.000  O
  C184     1.0000 0.04010  0.80387  0.81963  Biso   1.000  C
  H180     1.0000 0.98868  0.90138  0.84933  Biso   1.000  H
  C185     1.0000 0.24861  0.50410  0.82784  Biso   1.000  C
  H181     1.0000 0.22801  0.35318  0.78523  Biso   1.000  H
  N123     1.0000 0.13761  0.38329  0.79524  Biso   1.000  N
  O61      1.0000 0.04097  0.32645  0.80077  Biso   1.000  O
  N124     1.0000 0.00610  0.73358  0.80199  Biso   1.000  N
  O62      1.0000 0.90424  0.69368  0.80102  Biso   1.000  O
  C186     1.0000 0.15253  0.76332  0.83450  Biso   1.000  C
  H182     1.0000 0.05151  0.83740  0.78770  Biso   1.000  H
  H183     1.0000 0.27790  0.52659  0.85411  Biso   1.000  H
  H184     1.0000 0.27060  0.49360  0.79323  Biso   1.000  H
  N125     1.0000 0.20025  0.56171  0.81690  Biso   1.000  N
  C187     1.0000 0.12542  0.43080  0.74613  Biso   1.000  C
  C188     1.0000 0.02430  0.68789  0.75317  Biso   1.000  C
  N126     1.0000 0.15674  0.67999  0.82021  Biso   1.000  N
  H185     1.0000 0.16209  0.79419  0.80140  Biso   1.000  H
  H186     1.0000 0.18348  0.77519  0.86261  Biso   1.000  H
  C189     1.0000 0.19572  0.62911  0.84807  Biso   1.000  C
  C190     1.0000 0.16884  0.56790  0.76348  Biso   1.000  C
  H187     1.0000 0.08832  0.41120  0.72812  Biso   1.000  H
  H188     1.0000 0.15932  0.42431  0.72003  Biso   1.000  H
  N127     1.0000 0.11761  0.51378  0.75741  Biso   1.000  N
  N128     1.0000 0.07151  0.62999  0.76449  Biso   1.000  N
  H189     1.0000 0.98822  0.66122  0.73830  Biso   1.000  H
  H190     1.0000 0.03931  0.72378  0.72452  Biso   1.000  H
  C191     1.0000 0.13646  0.64959  0.76683  Biso   1.000  C
  O63      1.0000 0.22201  0.64257  0.89194  Biso   1.000  O
  H191     1.0000 0.19762  0.56472  0.73193  Biso   1.000  H
  C192     1.0000 0.06139  0.55020  0.75862  Biso   1.000  C
  H192     1.0000 0.14870  0.68412  0.73583  Biso   1.000  H
  O64      1.0000 0.01095  0.51762  0.75560  Biso   1.000  O
