data_image0
_cell_length_a       9.855
_cell_length_b       17.306
_cell_length_c       10.607
_cell_angle_alpha    90
_cell_angle_beta     114.29
_cell_angle_gamma    90

_symmetry_space_group_name_H-M    "P 1"
_symmetry_int_tables_number       1

loop_
  _symmetry_equiv_pos_as_xyz
  'x, y, z'

loop_
  _atom_site_label
  _atom_site_occupancy
  _atom_site_fract_x
  _atom_site_fract_y
  _atom_site_fract_z
  _atom_site_thermal_displace_type
  _atom_site_B_iso_or_equiv
  _atom_site_type_symbol
  C1       1.0000 0.66075  0.60129  0.65815  Biso   1.000  C
  C2       1.0000 0.80266  0.60025  0.78868  Biso   1.000  C
  H1       1.0000 0.60806  0.55362  0.65008  Biso   1.000  H
  H2       1.0000 0.68435  0.60748  0.57944  Biso   1.000  H
  H3       1.0000 0.59934  0.64359  0.66177  Biso   1.000  H
  C3       1.0000 0.79857  0.60158  0.91901  Biso   1.000  C
  C4       1.0000 0.94248  0.60083  0.78134  Biso   1.000  C
  C5       1.0000 0.65010  0.60765  0.93090  Biso   1.000  C
  C6       1.0000 0.93015  0.60314  0.04065  Biso   1.000  C
  C7       1.0000 0.94831  0.60673  0.64139  Biso   1.000  C
  C8       1.0000 0.07578  0.60054  0.90205  Biso   1.000  C
  N1       1.0000 0.62724  0.68780  0.96566  Biso   1.000  N
  H4       1.0000 0.56988  0.59280  0.84392  Biso   1.000  H
  H5       1.0000 0.64929  0.57281  0.00217  Biso   1.000  H
  C9       1.0000 0.92357  0.61100  0.17935  Biso   1.000  C
  C10      1.0000 0.06782  0.60193  0.03051  Biso   1.000  C
  N2       1.0000 0.92039  0.68739  0.59071  Biso   1.000  N
  H6       1.0000 0.87379  0.57298  0.57623  Biso   1.000  H
  H7       1.0000 0.04532  0.59020  0.64874  Biso   1.000  H
  C11      1.0000 0.22464  0.60268  0.89150  Biso   1.000  C
  C12      1.0000 0.65792  0.75003  0.90960  Biso   1.000  C
  C13      1.0000 0.57287  0.71114  0.05854  Biso   1.000  C
  H8       1.0000 0.94018  0.66387  0.20883  Biso   1.000  H
  H9       1.0000 0.99910  0.57911  0.24565  Biso   1.000  H
  H10      1.0000 0.82757  0.59482  0.17222  Biso   1.000  H
  C14      1.0000 0.20918  0.60569  0.16301  Biso   1.000  C
  C15      1.0000 0.84368  0.71120  0.45780  Biso   1.000  C
  C16      1.0000 0.96660  0.75003  0.66942  Biso   1.000  C
  H11      1.0000 0.23357  0.55819  0.84154  Biso   1.000  H
  H12      1.0000 0.30349  0.60262  0.98272  Biso   1.000  H
  H13      1.0000 0.23078  0.64879  0.84371  Biso   1.000  H
  N3       1.0000 0.62724  0.81220  0.96566  Biso   1.000  N
  H14      1.0000 0.69479  0.75003  0.84185  Biso   1.000  H
  C17      1.0000 0.57287  0.78886  0.05854  Biso   1.000  C
  H15      1.0000 0.54151  0.67930  0.11191  Biso   1.000  H
  N4       1.0000 0.25405  0.68751  0.20087  Biso   1.000  N
  H16      1.0000 0.19265  0.58072  0.23728  Biso   1.000  H
  H17      1.0000 0.28854  0.57830  0.15018  Biso   1.000  H
  C18      1.0000 0.84368  0.78880  0.45780  Biso   1.000  C
  H18      1.0000 0.79936  0.67948  0.38084  Biso   1.000  H
  N5       1.0000 0.92039  0.81261  0.59071  Biso   1.000  N
  H19      1.0000 0.02243  0.75003  0.76458  Biso   1.000  H
  C19      1.0000 0.65010  0.89235  0.93090  Biso   1.000  C
  H20      1.0000 0.54151  0.82070  0.11191  Biso   1.000  H
  C20      1.0000 0.37825  0.71137  0.31133  Biso   1.000  C
  C21      1.0000 0.18139  0.75003  0.13622  Biso   1.000  C
  H21      1.0000 0.79936  0.82052  0.38084  Biso   1.000  H
  C22      1.0000 0.94831  0.89327  0.64139  Biso   1.000  C
  H22      1.0000 0.56988  0.90720  0.84392  Biso   1.000  H
  C23      1.0000 0.79857  0.89842  0.91901  Biso   1.000  C
  H23      1.0000 0.64929  0.92719  0.00217  Biso   1.000  H
  C24      1.0000 0.37825  0.78863  0.31133  Biso   1.000  C
  H24      1.0000 0.44999  0.67971  0.37505  Biso   1.000  H
  N6       1.0000 0.25405  0.81249  0.20087  Biso   1.000  N
  H25      1.0000 0.09278  0.75003  0.05709  Biso   1.000  H
  H26      1.0000 0.87379  0.92702  0.57623  Biso   1.000  H
  C25      1.0000 0.94248  0.89917  0.78134  Biso   1.000  C
  H27      1.0000 0.04532  0.90980  0.64874  Biso   1.000  H
  C26      1.0000 0.80266  0.89975  0.78868  Biso   1.000  C
  C27      1.0000 0.93015  0.89686  0.04065  Biso   1.000  C
  H28      1.0000 0.44999  0.82029  0.37505  Biso   1.000  H
  C28      1.0000 0.20918  0.89431  0.16301  Biso   1.000  C
  C29      1.0000 0.07578  0.89946  0.90205  Biso   1.000  C
  C30      1.0000 0.66075  0.89871  0.65815  Biso   1.000  C
  C31      1.0000 0.92357  0.88900  0.17935  Biso   1.000  C
  C32      1.0000 0.06782  0.89807  0.03051  Biso   1.000  C
  H29      1.0000 0.19265  0.91928  0.23728  Biso   1.000  H
  H30      1.0000 0.28854  0.92170  0.15018  Biso   1.000  H
  C33      1.0000 0.22464  0.89732  0.89150  Biso   1.000  C
  H31      1.0000 0.60806  0.94638  0.65008  Biso   1.000  H
  H32      1.0000 0.68435  0.89252  0.57944  Biso   1.000  H
  H33      1.0000 0.59934  0.85641  0.66177  Biso   1.000  H
  H34      1.0000 0.94018  0.83613  0.20883  Biso   1.000  H
  H35      1.0000 0.99910  0.92089  0.24565  Biso   1.000  H
  H36      1.0000 0.82757  0.90518  0.17222  Biso   1.000  H
  H37      1.0000 0.23357  0.94181  0.84154  Biso   1.000  H
  H38      1.0000 0.30349  0.89738  0.98272  Biso   1.000  H
  H39      1.0000 0.23078  0.85121  0.84371  Biso   1.000  H
  C34      1.0000 0.33928  0.39871  0.34185  Biso   1.000  C
  C35      1.0000 0.19726  0.39975  0.21132  Biso   1.000  C
  H40      1.0000 0.39186  0.44638  0.34992  Biso   1.000  H
  H41      1.0000 0.31568  0.39252  0.42056  Biso   1.000  H
  H42      1.0000 0.40069  0.35641  0.33823  Biso   1.000  H
  C36      1.0000 0.20136  0.39842  0.08099  Biso   1.000  C
  C37      1.0000 0.05744  0.39917  0.21866  Biso   1.000  C
  C38      1.0000 0.34992  0.39235  0.06909  Biso   1.000  C
  C39      1.0000 0.06988  0.39686  0.95935  Biso   1.000  C
  C40      1.0000 0.05172  0.39327  0.35861  Biso   1.000  C
  C41      1.0000 0.92414  0.39946  0.09795  Biso   1.000  C
  N7       1.0000 0.37269  0.31220  0.03434  Biso   1.000  N
  H43      1.0000 0.43014  0.40720  0.15608  Biso   1.000  H
  H44      1.0000 0.35074  0.42719  0.99783  Biso   1.000  H
  C42      1.0000 0.93220  0.39807  0.96949  Biso   1.000  C
  C43      1.0000 0.07635  0.38900  0.82065  Biso   1.000  C
  N8       1.0000 0.07964  0.31261  0.40929  Biso   1.000  N
  H45      1.0000 0.12623  0.42702  0.42377  Biso   1.000  H
  H46      1.0000 0.95471  0.40980  0.35126  Biso   1.000  H
  C44      1.0000 0.77539  0.39732  0.10850  Biso   1.000  C
  C45      1.0000 0.34210  0.25003  0.09040  Biso   1.000  C
  C46      1.0000 0.42715  0.28886  0.94146  Biso   1.000  C
  C47      1.0000 0.79074  0.39431  0.83699  Biso   1.000  C
  H47      1.0000 0.05985  0.33613  0.79117  Biso   1.000  H
  H48      1.0000 0.00093  0.42089  0.75434  Biso   1.000  H
  H49      1.0000 0.17246  0.40518  0.82778  Biso   1.000  H
  C48      1.0000 0.03342  0.25003  0.33057  Biso   1.000  C
  C49      1.0000 0.15634  0.28880  0.54220  Biso   1.000  C
  H50      1.0000 0.76635  0.44181  0.15846  Biso   1.000  H
  H51      1.0000 0.69654  0.39738  0.01727  Biso   1.000  H
  H52      1.0000 0.76915  0.35121  0.15629  Biso   1.000  H
  N9       1.0000 0.37269  0.18780  0.03434  Biso   1.000  N
  H53      1.0000 0.30513  0.25003  0.15815  Biso   1.000  H
  C50      1.0000 0.42715  0.21114  0.94146  Biso   1.000  C
  H54      1.0000 0.45852  0.32070  0.88808  Biso   1.000  H
  N10      1.0000 0.74597  0.31249  0.79913  Biso   1.000  N
  H55      1.0000 0.80738  0.41928  0.76272  Biso   1.000  H
  H56      1.0000 0.71149  0.42170  0.84981  Biso   1.000  H
  N11      1.0000 0.07964  0.18739  0.40929  Biso   1.000  N
  H57      1.0000 0.97759  0.25003  0.23542  Biso   1.000  H
  C51      1.0000 0.15634  0.21120  0.54220  Biso   1.000  C
  H58      1.0000 0.20066  0.32052  0.61915  Biso   1.000  H
  C52      1.0000 0.34992  0.10765  0.06909  Biso   1.000  C
  H59      1.0000 0.45852  0.17930  0.88808  Biso   1.000  H
  C53      1.0000 0.81853  0.25003  0.86378  Biso   1.000  C
  C54      1.0000 0.62177  0.28863  0.68866  Biso   1.000  C
  C55      1.0000 0.05172  0.10673  0.35861  Biso   1.000  C
  H60      1.0000 0.20066  0.17948  0.61915  Biso   1.000  H
  H61      1.0000 0.43014  0.09280  0.15608  Biso   1.000  H
  C56      1.0000 0.20136  0.10158  0.08099  Biso   1.000  C
  H62      1.0000 0.35074  0.07281  0.99783  Biso   1.000  H
  N12      1.0000 0.74597  0.18751  0.79913  Biso   1.000  N
  H63      1.0000 0.90714  0.25003  0.94290  Biso   1.000  H
  C57      1.0000 0.62177  0.21137  0.68866  Biso   1.000  C
  H64      1.0000 0.55003  0.32029  0.62495  Biso   1.000  H
  C58      1.0000 0.05744  0.10083  0.21866  Biso   1.000  C
  H65      1.0000 0.12623  0.07298  0.42377  Biso   1.000  H
  H66      1.0000 0.95471  0.09020  0.35126  Biso   1.000  H
  C59      1.0000 0.19726  0.10025  0.21132  Biso   1.000  C
  C60      1.0000 0.06988  0.10314  0.95935  Biso   1.000  C
  C61      1.0000 0.79074  0.10569  0.83699  Biso   1.000  C
  H67      1.0000 0.55003  0.17971  0.62495  Biso   1.000  H
  C62      1.0000 0.92414  0.10054  0.09795  Biso   1.000  C
  C63      1.0000 0.33928  0.10129  0.34185  Biso   1.000  C
  C64      1.0000 0.93220  0.10193  0.96949  Biso   1.000  C
  C65      1.0000 0.07635  0.11100  0.82065  Biso   1.000  C
  H68      1.0000 0.80738  0.08072  0.76272  Biso   1.000  H
  H69      1.0000 0.71149  0.07830  0.84981  Biso   1.000  H
  C66      1.0000 0.77539  0.10268  0.10850  Biso   1.000  C
  H70      1.0000 0.39186  0.05362  0.34992  Biso   1.000  H
  H71      1.0000 0.31568  0.10748  0.42056  Biso   1.000  H
  H72      1.0000 0.40069  0.14359  0.33823  Biso   1.000  H
  H73      1.0000 0.05985  0.16387  0.79117  Biso   1.000  H
  H74      1.0000 0.00093  0.07911  0.75434  Biso   1.000  H
  H75      1.0000 0.17246  0.09482  0.82778  Biso   1.000  H
  H76      1.0000 0.76635  0.05819  0.15846  Biso   1.000  H
  H77      1.0000 0.69654  0.10262  0.01727  Biso   1.000  H
  H78      1.0000 0.76915  0.14879  0.15629  Biso   1.000  H
