data_image0
_cell_length_a       13.038
_cell_length_b       18.544
_cell_length_c       22.716
_cell_angle_alpha    113.67
_cell_angle_beta     91.15
_cell_angle_gamma    104.58

_symmetry_space_group_name_H-M    "P 1"
_symmetry_int_tables_number       1

loop_
  _symmetry_equiv_pos_as_xyz
  'x, y, z'

loop_
  _atom_site_label
  _atom_site_occupancy
  _atom_site_fract_x
  _atom_site_fract_y
  _atom_site_fract_z
  _atom_site_thermal_displace_type
  _atom_site_B_iso_or_equiv
  _atom_site_type_symbol
  C1       1.0000 0.14995  0.53233  0.21281  Biso   1.000  C
  O1       1.0000 0.25647  0.58355  0.23411  Biso   1.000  O
  O2       1.0000 0.08503  0.54704  0.26332  Biso   1.000  O
  H1       1.0000 0.15063  0.47531  0.19559  Biso   1.000  H
  H2       1.0000 0.11902  0.54124  0.17812  Biso   1.000  H
  C2       1.0000 0.27788  0.65725  0.22790  Biso   1.000  C
  C3       1.0000 0.02754  0.60304  0.26982  Biso   1.000  C
  C4       1.0000 0.32724  0.65962  0.17419  Biso   1.000  C
  C5       1.0000 0.25531  0.72536  0.27332  Biso   1.000  C
  C6       1.0000 0.07445  0.68663  0.30350  Biso   1.000  C
  C7       1.0000 0.91940  0.57133  0.24362  Biso   1.000  C
  O3       1.0000 0.33592  0.58930  0.12450  Biso   1.000  O
  C8       1.0000 0.35279  0.73312  0.16740  Biso   1.000  C
  C9       1.0000 0.28170  0.79764  0.26390  Biso   1.000  C
  C10      1.0000 0.19462  0.71906  0.32844  Biso   1.000  C
  C11      1.0000 0.01021  0.73796  0.30980  Biso   1.000  C
  C12      1.0000 0.85873  0.62413  0.25134  Biso   1.000  C
  O4       1.0000 0.87685  0.48892  0.20621  Biso   1.000  O
  C13      1.0000 0.41037  0.54964  0.13513  Biso   1.000  C
  C14      1.0000 0.33113  0.80311  0.21121  Biso   1.000  C
  O5       1.0000 0.40498  0.73454  0.11441  Biso   1.000  O
  H3       1.0000 0.26567  0.84375  0.29394  Biso   1.000  H
  H4       1.0000 0.21375  0.67707  0.33843  Biso   1.000  H
  C15      1.0000 0.22239  0.79794  0.39180  Biso   1.000  C
  H5       1.0000 0.04091  0.79437  0.33164  Biso   1.000  H
  C16      1.0000 0.90178  0.70896  0.28501  Biso   1.000  C
  O6       1.0000 0.75028  0.58985  0.22742  Biso   1.000  O
  C17      1.0000 0.84838  0.44067  0.24353  Biso   1.000  C
  C18      1.0000 0.36028  0.45763  0.09442  Biso   1.000  C
  H6       1.0000 0.42247  0.56122  0.18069  Biso   1.000  H
  H7       1.0000 0.47832  0.56830  0.12159  Biso   1.000  H
  C19      1.0000 0.35418  0.87944  0.19840  Biso   1.000  C
  C20      1.0000 0.33814  0.72289  0.05958  Biso   1.000  C
  H8       1.0000 0.29951  0.81788  0.40374  Biso   1.000  H
  H9       1.0000 0.19899  0.83976  0.38462  Biso   1.000  H
  C21      1.0000 0.17069  0.78475  0.44770  Biso   1.000  C
  C22      1.0000 0.83101  0.76347  0.28904  Biso   1.000  C
  C23      1.0000 0.71866  0.58385  0.16550  Biso   1.000  C
  H10      1.0000 0.78710  0.45165  0.26512  Biso   1.000  H
  H11      1.0000 0.90774  0.45378  0.27603  Biso   1.000  H
  C24      1.0000 0.82232  0.35262  0.19593  Biso   1.000  C
  N1       1.0000 0.44002  0.41380  0.07079  Biso   1.000  N
  H12      1.0000 0.31765  0.43434  0.12043  Biso   1.000  H
  H13      1.0000 0.31262  0.44980  0.05759  Biso   1.000  H
  C25      1.0000 0.25890  0.87194  0.15400  Biso   1.000  C
  H14      1.0000 0.41557  0.87955  0.17419  Biso   1.000  H
  C26      1.0000 0.38450  0.96066  0.26031  Biso   1.000  C
  H15      1.0000 0.36455  0.69142  0.02062  Biso   1.000  H
  H16      1.0000 0.26650  0.69119  0.05939  Biso   1.000  H
  O7       1.0000 0.33302  0.79743  0.05789  Biso   1.000  O
  H17      1.0000 0.09571  0.75506  0.43261  Biso   1.000  H
  H18      1.0000 0.20398  0.75058  0.45983  Biso   1.000  H
  C27      1.0000 0.17889  0.86250  0.50704  Biso   1.000  C
  C28      1.0000 0.83419  0.77775  0.22713  Biso   1.000  C
  H19      1.0000 0.75770  0.73175  0.28744  Biso   1.000  H
  C29      1.0000 0.85526  0.84245  0.35153  Biso   1.000  C
  O8       1.0000 0.68755  0.65362  0.16919  Biso   1.000  O
  H20      1.0000 0.65923  0.53483  0.14343  Biso   1.000  H
  H21      1.0000 0.77754  0.57832  0.14022  Biso   1.000  H
  H22      1.0000 0.79966  0.31817  0.21863  Biso   1.000  H
  H23      1.0000 0.76286  0.34111  0.16410  Biso   1.000  H
  N2       1.0000 0.91265  0.33043  0.16153  Biso   1.000  N
  S1       1.0000 0.48869  0.37444  0.11330  Biso   1.000  S
  C30      1.0000 0.46429  0.39640  0.00442  Biso   1.000  C
  C31      1.0000 0.25224  0.82991  0.08680  Biso   1.000  C
  C32      1.0000 0.17554  0.90481  0.17749  Biso   1.000  C
  H24      1.0000 0.32207  0.96622  0.28220  Biso   1.000  H
  H25      1.0000 0.43859  0.95915  0.28943  Biso   1.000  H
  C33      1.0000 0.42662  0.03417  0.24503  Biso   1.000  C
  H26      1.0000 0.14963  0.89830  0.49452  Biso   1.000  H
  H27      1.0000 0.25385  0.89048  0.52383  Biso   1.000  H
  C34      1.0000 0.12061  0.84848  0.56085  Biso   1.000  C
  C35      1.0000 0.90692  0.84536  0.22412  Biso   1.000  C
  C36      1.0000 0.76742  0.71982  0.16982  Biso   1.000  C
  H28      1.0000 0.93030  0.87214  0.35750  Biso   1.000  H
  H29      1.0000 0.81340  0.87698  0.34721  Biso   1.000  H
  C37      1.0000 0.83081  0.82637  0.41121  Biso   1.000  C
  C38      1.0000 0.93541  0.34829  0.10529  Biso   1.000  C
  S2       1.0000 0.99197  0.29878  0.19433  Biso   1.000  S
  C39      1.0000 0.40129  0.27629  0.09699  Biso   1.000  C
  O9       1.0000 0.48727  0.42653  0.17982  Biso   1.000  O
  O10      1.0000 0.58682  0.36200  0.09010  Biso   1.000  O
  H30      1.0000 0.53780  0.39403  0.00311  Biso   1.000  H
  H31      1.0000 0.46007  0.44229  0.99505  Biso   1.000  H
  C40      1.0000 0.39358  0.31789  0.95065  Biso   1.000  C
  C41      1.0000 0.16608  0.82363  0.04512  Biso   1.000  C
  H32      1.0000 0.17782  0.93144  0.22222  Biso   1.000  H
  C42      1.0000 0.08947  0.90025  0.13819  Biso   1.000  C
  H33      1.0000 0.38405  0.02574  0.20612  Biso   1.000  H
  H34      1.0000 0.49955  0.03696  0.23562  Biso   1.000  H
  C43      1.0000 0.42600  0.11625  0.29913  Biso   1.000  C
  H35      1.0000 0.04682  0.81699  0.54324  Biso   1.000  H
  H36      1.0000 0.15355  0.81628  0.57575  Biso   1.000  H
  C44      1.0000 0.12271  0.92660  0.61723  Biso   1.000  C
  C45      1.0000 0.91247  0.85881  0.16842  Biso   1.000  C
  H37      1.0000 0.95365  0.88314  0.26133  Biso   1.000  H
  C46      1.0000 0.77254  0.73090  0.11300  Biso   1.000  C
  H38      1.0000 0.75892  0.78988  0.40243  Biso   1.000  H
  H39      1.0000 0.87988  0.79860  0.41883  Biso   1.000  H
  C47      1.0000 0.83907  0.90326  0.47220  Biso   1.000  C
  C48      1.0000 0.84923  0.30150  0.04789  Biso   1.000  C
  H40      1.0000 0.00162  0.33592  0.09209  Biso   1.000  H
  H41      1.0000 0.94662  0.40664  0.11810  Biso   1.000  H
  O11      1.0000 0.00995  0.34634  0.26303  Biso   1.000  O
  O12      1.0000 0.08184  0.29511  0.15881  Biso   1.000  O
  C49      1.0000 0.91817  0.19832  0.18050  Biso   1.000  C
  C50      1.0000 0.31682  0.27105  0.13241  Biso   1.000  C
  C51      1.0000 0.41899  0.20680  0.04920  Biso   1.000  C
  H42      1.0000 0.42352  0.30693  0.91033  Biso   1.000  H
  H43      1.0000 0.38860  0.27184  0.96172  Biso   1.000  H
  O13      1.0000 0.29005  0.32847  0.94362  Biso   1.000  O
  C52      1.0000 0.08644  0.85935  0.07133  Biso   1.000  C
  O14      1.0000 0.15912  0.78457  0.97836  Biso   1.000  O
  C53      1.0000 0.99608  0.93215  0.16550  Biso   1.000  C
  H44      1.0000 0.45544  0.15955  0.28530  Biso   1.000  H
  H45      1.0000 0.35238  0.11546  0.30529  Biso   1.000  H
  C54      1.0000 0.48687  0.13696  0.36259  Biso   1.000  C
  H46      1.0000 0.08511  0.91419  0.64955  Biso   1.000  H
  H47      1.0000 0.08881  0.95821  0.60301  Biso   1.000  H
  H48      1.0000 0.19554  0.95750  0.63552  Biso   1.000  H
  C55      1.0000 0.84338  0.80150  0.11281  Biso   1.000  C
  O15      1.0000 0.71010  0.67171  0.05638  Biso   1.000  O
  H49      1.0000 0.79489  0.93348  0.46313  Biso   1.000  H
  H50      1.0000 0.91264  0.93761  0.48283  Biso   1.000  H
  C56      1.0000 0.80622  0.88867  0.53091  Biso   1.000  C
  O16      1.0000 0.84110  0.21558  0.02169  Biso   1.000  O
  H51      1.0000 0.78134  0.31002  0.06109  Biso   1.000  H
  H52      1.0000 0.86563  0.32163  0.01480  Biso   1.000  H
  C57      1.0000 0.86961  0.18522  0.23110  Biso   1.000  C
  C58      1.0000 0.90814  0.13399  0.12028  Biso   1.000  C
  C59      1.0000 0.24990  0.19321  0.12120  Biso   1.000  C
  H53      1.0000 0.30469  0.31835  0.16322  Biso   1.000  H
  C60      1.0000 0.35055  0.13064  0.03862  Biso   1.000  C
  H54      1.0000 0.47513  0.21109  0.02499  Biso   1.000  H
  C61      1.0000 0.22767  0.26925  0.88704  Biso   1.000  C
  O17      1.0000 0.00642  0.85641  0.02838  Biso   1.000  O
  C62      1.0000 0.15099  0.69865  0.95216  Biso   1.000  C
  H55      1.0000 0.96474  0.94712  0.13401  Biso   1.000  H
  C63      1.0000 0.02425  0.00706  0.23062  Biso   1.000  C
  H56      1.0000 0.45677  0.09415  0.37681  Biso   1.000  H
  H57      1.0000 0.47767  0.18788  0.39433  Biso   1.000  H
  C64      1.0000 0.60569  0.14616  0.36114  Biso   1.000  C
  O18      1.0000 0.83615  0.81381  0.05653  Biso   1.000  O
  C65      1.0000 0.60666  0.68231  0.04939  Biso   1.000  C
  H58      1.0000 0.73402  0.85220  0.51995  Biso   1.000  H
  H59      1.0000 0.85305  0.86138  0.54183  Biso   1.000  H
  C66      1.0000 0.80992  0.96651  0.58991  Biso   1.000  C
  C67      1.0000 0.83415  0.17657  0.95492  Biso   1.000  C
  H60      1.0000 0.88028  0.22814  0.27210  Biso   1.000  H
  C68      1.0000 0.80512  0.10735  0.21931  Biso   1.000  C
  C69      1.0000 0.84466  0.05663  0.11038  Biso   1.000  C
  H61      1.0000 0.94298  0.14241  0.08739  Biso   1.000  H
  H62      1.0000 0.19326  0.18866  0.14493  Biso   1.000  H
  C70      1.0000 0.26816  0.12363  0.07492  Biso   1.000  C
  H63      1.0000 0.36044  0.08342  0.00650  Biso   1.000  H
  C71      1.0000 0.15684  0.19865  0.88724  Biso   1.000  C
  C72      1.0000 0.23272  0.28033  0.83023  Biso   1.000  C
  C73      1.0000 0.91038  0.79123  0.01300  Biso   1.000  C
  C74      1.0000 0.06481  0.65186  0.89476  Biso   1.000  C
  H64      1.0000 0.21890  0.69018  0.93896  Biso   1.000  H
  H65      1.0000 0.13460  0.67857  0.98525  Biso   1.000  H
  H66      1.0000 0.05850  0.99384  0.26172  Biso   1.000  H
  H67      1.0000 0.95857  0.01837  0.24561  Biso   1.000  H
  C75      1.0000 0.09782  0.08475  0.22950  Biso   1.000  C
  H68      1.0000 0.63945  0.15940  0.40364  Biso   1.000  H
  H69      1.0000 0.63686  0.18928  0.34823  Biso   1.000  H
  H70      1.0000 0.61596  0.09555  0.33072  Biso   1.000  H
  C76      1.0000 0.53585  0.60375  0.99563  Biso   1.000  C
  H71      1.0000 0.57662  0.69322  0.08971  Biso   1.000  H
  H72      1.0000 0.61161  0.72828  0.03828  Biso   1.000  H
  H73      1.0000 0.78833  0.95308  0.62533  Biso   1.000  H
  H74      1.0000 0.76240  0.99329  0.58002  Biso   1.000  H
  H75      1.0000 0.88152  0.00250  0.60195  Biso   1.000  H
  C77      1.0000 0.91379  0.14085  0.92872  Biso   1.000  C
  C78      1.0000 0.74798  0.17024  0.91325  Biso   1.000  C
  H76      1.0000 0.77183  0.09852  0.25270  Biso   1.000  H
  C79      1.0000 0.79005  0.04271  0.15861  Biso   1.000  C
  H77      1.0000 0.83831  0.01281  0.07031  Biso   1.000  H
  C80      1.0000 0.19940  0.03998  0.06618  Biso   1.000  C
  O19      1.0000 0.16406  0.18633  0.94352  Biso   1.000  O
  C81      1.0000 0.08774  0.14133  0.83163  Biso   1.000  C
  O20      1.0000 0.31266  0.34653  0.83086  Biso   1.000  O
  C82      1.0000 0.16605  0.22245  0.77292  Biso   1.000  C
  H78      1.0000 0.87826  0.77565  0.96924  Biso   1.000  H
  H79      1.0000 0.92753  0.74389  0.01451  Biso   1.000  H
  H80      1.0000 0.99862  0.66428  0.90796  Biso   1.000  H
  N3       1.0000 0.08757  0.66971  0.83852  Biso   1.000  N
  H81      1.0000 0.05361  0.59356  0.88195  Biso   1.000  H
  H82      1.0000 0.16478  0.07453  0.21563  Biso   1.000  H
  H83      1.0000 0.06465  0.09842  0.19830  Biso   1.000  H
  C83      1.0000 0.12093  0.15696  0.29593  Biso   1.000  C
  N4       1.0000 0.56020  0.58634  0.92926  Biso   1.000  N
  H84      1.0000 0.46236  0.60617  0.99694  Biso   1.000  H
  H85      1.0000 0.54016  0.55791  0.00500  Biso   1.000  H
  O21      1.0000 0.99381  0.14379  0.97166  Biso   1.000  O
  C84      1.0000 0.91076  0.09993  0.86181  Biso   1.000  C
  C85      1.0000 0.74134  0.12827  0.84604  Biso   1.000  C
  O22      1.0000 0.66713  0.20275  0.94211  Biso   1.000  O
  C86      1.0000 0.71574  0.95863  0.14469  Biso   1.000  C
  H86      1.0000 0.12589  0.03482  0.05459  Biso   1.000  H
  H87      1.0000 0.20726  0.03424  0.10611  Biso   1.000  H
  H88      1.0000 0.22174  0.99812  0.03251  Biso   1.000  H
  C87      1.0000 0.08986  0.20897  0.98704  Biso   1.000  C
  C88      1.0000 0.09332  0.15485  0.77593  Biso   1.000  C
  C89      1.0000 0.00416  0.06805  0.83454  Biso   1.000  C
  C90      1.0000 0.28157  0.41636  0.83454  Biso   1.000  C
  C91      1.0000 0.16922  0.23673  0.71101  Biso   1.000  C
  C92      1.0000 0.17782  0.64752  0.80412  Biso   1.000  C
  S3       1.0000 0.00824  0.70136  0.80572  Biso   1.000  S
  H89      1.0000 0.15135  0.14184  0.32703  Biso   1.000  H
  H90      1.0000 0.05379  0.16738  0.30903  Biso   1.000  H
  C93      1.0000 0.19676  0.23628  0.29894  Biso   1.000  C
  C94      1.0000 0.63994  0.54252  0.90563  Biso   1.000  C
  S4       1.0000 0.51147  0.62576  0.88675  Biso   1.000  S
  C95      1.0000 0.82459  0.09531  0.82251  Biso   1.000  C
  C96      1.0000 0.64606  0.12077  0.80165  Biso   1.000  C
  C97      1.0000 0.66206  0.27723  0.94042  Biso   1.000  C
  H91      1.0000 0.71528  0.92181  0.10049  Biso   1.000  H
  H92      1.0000 0.64478  0.96282  0.15163  Biso   1.000  H
  H93      1.0000 0.74043  0.93803  0.17322  Biso   1.000  H
  H94      1.0000 0.12188  0.22450  0.03081  Biso   1.000  H
  H95      1.0000 0.07268  0.25626  0.98554  Biso   1.000  H
  H96      1.0000 0.04649  0.11701  0.73872  Biso   1.000  H
  C98      1.0000 0.97598  0.99314  0.76943  Biso   1.000  C
  H97      1.0000 0.03547  0.05303  0.86603  Biso   1.000  H
  H98      1.0000 0.34099  0.46531  0.85662  Biso   1.000  H
  H99      1.0000 0.22267  0.42183  0.85982  Biso   1.000  H
  O23      1.0000 0.24995  0.41035  0.77263  Biso   1.000  O
  C99      1.0000 0.09845  0.29125  0.71504  Biso   1.000  C
  H100     1.0000 0.24251  0.26839  0.71261  Biso   1.000  H
  C100     1.0000 0.14488  0.15770  0.64852  Biso   1.000  C
  C101     1.0000 0.15186  0.55953  0.75652  Biso   1.000  C
  H101     1.0000 0.20058  0.68203  0.78141  Biso   1.000  H
  H102     1.0000 0.23736  0.65904  0.83595  Biso   1.000  H
  O24      1.0000 0.99027  0.65380  0.73702  Biso   1.000  O
  O25      1.0000 0.91838  0.70504  0.84124  Biso   1.000  O
  C102     1.0000 0.08205  0.80182  0.81955  Biso   1.000  C
  H103     1.0000 0.17508  0.24755  0.26322  Biso   1.000  H
  H104     1.0000 0.26918  0.23166  0.29632  Biso   1.000  H
  C103     1.0000 0.19112  0.30619  0.36512  Biso   1.000  C
  H105     1.0000 0.15818  0.25993  0.27812  Biso   1.000  H
  H106     1.0000 0.25432  0.22274  0.27419  Biso   1.000  H
  C104     1.0000 0.24568  0.30088  0.36730  Biso   1.000  C
  C105     1.0000 0.58987  0.45056  0.86492  Biso   1.000  C
  H107     1.0000 0.68259  0.56586  0.87962  Biso   1.000  H
  H108     1.0000 0.68759  0.55034  0.94245  Biso   1.000  H
  O26      1.0000 0.51294  0.57362  0.82023  Biso   1.000  O
  O27      1.0000 0.41340  0.63815  0.90995  Biso   1.000  O
  C106     1.0000 0.59885  0.72386  0.90306  Biso   1.000  C
  H109     1.0000 0.82240  0.06871  0.77782  Biso   1.000  H
  C107     1.0000 0.66901  0.19703  0.78884  Biso   1.000  C
  H110     1.0000 0.58465  0.12063  0.82581  Biso   1.000  H
  C108     1.0000 0.61573  0.03954  0.73974  Biso   1.000  C
  O28      1.0000 0.59526  0.26566  0.88564  Biso   1.000  O
  H111     1.0000 0.63566  0.30873  0.97943  Biso   1.000  H
  H112     1.0000 0.73364  0.30896  0.94066  Biso   1.000  H
  C109     1.0000 0.90234  0.91545  0.77055  Biso   1.000  C
  H113     1.0000 0.94172  0.00631  0.73833  Biso   1.000  H
  H114     1.0000 0.04166  0.98183  0.75444  Biso   1.000  H
  C110     1.0000 0.14141  0.37601  0.74871  Biso   1.000  C
  C111     1.0000 0.99002  0.26224  0.69024  Biso   1.000  C
  H115     1.0000 0.06991  0.12798  0.64250  Biso   1.000  H
  H116     1.0000 0.18683  0.12322  0.65283  Biso   1.000  H
  C112     1.0000 0.16943  0.17383  0.58884  Biso   1.000  C
  O29      1.0000 0.12337  0.51122  0.79384  Biso   1.000  O
  H117     1.0000 0.21314  0.54855  0.73493  Biso   1.000  H
  H118     1.0000 0.09242  0.54643  0.72401  Biso   1.000  H
  C113     1.0000 0.13053  0.81492  0.76894  Biso   1.000  C
  C114     1.0000 0.09207  0.86613  0.87972  Biso   1.000  C
  H119     1.0000 0.23787  0.35734  0.36890  Biso   1.000  H
  H120     1.0000 0.21277  0.29425  0.40000  Biso   1.000  H
  H121     1.0000 0.11911  0.31009  0.36701  Biso   1.000  H
  H122     1.0000 0.18962  0.31607  0.39200  Biso   1.000  H
  H123     1.0000 0.29209  0.34849  0.36483  Biso   1.000  H
  H124     1.0000 0.28597  0.27880  0.38812  Biso   1.000  H
  O30      1.0000 0.66422  0.41085  0.87554  Biso   1.000  O
  H125     1.0000 0.57773  0.43890  0.81931  Biso   1.000  H
  H126     1.0000 0.52190  0.43185  0.87846  Biso   1.000  H
  C115     1.0000 0.68334  0.72915  0.86764  Biso   1.000  C
  C116     1.0000 0.58115  0.79334  0.95085  Biso   1.000  C
  C117     1.0000 0.71852  0.20251  0.73614  Biso   1.000  C
  C118     1.0000 0.64743  0.26702  0.83265  Biso   1.000  C
  C119     1.0000 0.57354  0.96604  0.75502  Biso   1.000  C
  H127     1.0000 0.67814  0.03390  0.71780  Biso   1.000  H
  H128     1.0000 0.56162  0.04100  0.71062  Biso   1.000  H
  H129     1.0000 0.83544  0.92561  0.78442  Biso   1.000  H
  H130     1.0000 0.93556  0.90173  0.80174  Biso   1.000  H
  C120     1.0000 0.87921  0.84319  0.70412  Biso   1.000  C
  C121     1.0000 0.08082  0.42882  0.75643  Biso   1.000  C
  H131     1.0000 0.95930  0.20578  0.66841  Biso   1.000  H
  C122     1.0000 0.92568  0.31349  0.69650  Biso   1.000  C
  H132     1.0000 0.24132  0.21032  0.59762  Biso   1.000  H
  H133     1.0000 0.12028  0.20160  0.58122  Biso   1.000  H
  C123     1.0000 0.16106  0.09686  0.52780  Biso   1.000  C
  H134     1.0000 0.11994  0.77201  0.72794  Biso   1.000  H
  C124     1.0000 0.19504  0.89285  0.78074  Biso   1.000  C
  C125     1.0000 0.15557  0.94355  0.88962  Biso   1.000  C
  H135     1.0000 0.05716  0.85777  0.91261  Biso   1.000  H
  C126     1.0000 0.67296  0.34050  0.82581  Biso   1.000  C
  H136     1.0000 0.69555  0.68185  0.83683  Biso   1.000  H
  C127     1.0000 0.75024  0.80694  0.87884  Biso   1.000  C
  C128     1.0000 0.64969  0.86957  0.96143  Biso   1.000  C
  H137     1.0000 0.52508  0.78905  0.97506  Biso   1.000  H
  C129     1.0000 0.74493  0.27484  0.72673  Biso   1.000  C
  H138     1.0000 0.73455  0.15639  0.70611  Biso   1.000  H
  H139     1.0000 0.61617  0.97441  0.79393  Biso   1.000  H
  H140     1.0000 0.50069  0.96324  0.76443  Biso   1.000  H
  C130     1.0000 0.57422  0.88389  0.70092  Biso   1.000  C
  H141     1.0000 0.84886  0.85830  0.67302  Biso   1.000  H
  H142     1.0000 0.94645  0.83283  0.69102  Biso   1.000  H
  C131     1.0000 0.80347  0.76392  0.70111  Biso   1.000  C
  C132     1.0000 0.97260  0.39711  0.73023  Biso   1.000  C
  C133     1.0000 0.80560  0.28109  0.67161  Biso   1.000  C
  H143     1.0000 0.20527  0.06672  0.53692  Biso   1.000  H
  H144     1.0000 0.08760  0.06260  0.51722  Biso   1.000  H
  C134     1.0000 0.19400  0.11147  0.46914  Biso   1.000  C
  H145     1.0000 0.22838  0.90160  0.74730  Biso   1.000  H
  C135     1.0000 0.21017  0.95744  0.84143  Biso   1.000  C
  H146     1.0000 0.16191  0.98734  0.92974  Biso   1.000  H
  C136     1.0000 0.72235  0.34295  0.77215  Biso   1.000  C
  H147     1.0000 0.80697  0.81154  0.85512  Biso   1.000  H
  C137     1.0000 0.73207  0.87657  0.92513  Biso   1.000  C
  H148     1.0000 0.63980  0.91679  0.99355  Biso   1.000  H
  H149     1.0000 0.54472  0.84065  0.71475  Biso   1.000  H
  H150     1.0000 0.64785  0.88471  0.69471  Biso   1.000  H
  C138     1.0000 0.51336  0.86322  0.63741  Biso   1.000  C
  H151     1.0000 0.82513  0.75259  0.73682  Biso   1.000  H
  H152     1.0000 0.73105  0.76854  0.70373  Biso   1.000  H
  C139     1.0000 0.80911  0.69402  0.63493  Biso   1.000  C
  H153     1.0000 0.84204  0.74022  0.72193  Biso   1.000  H
  H154     1.0000 0.74580  0.77738  0.72581  Biso   1.000  H
  C140     1.0000 0.75455  0.69929  0.63270  Biso   1.000  C
  O31      1.0000 0.91511  0.45311  0.73673  Biso   1.000  O
  H155     1.0000 0.78641  0.32313  0.66162  Biso   1.000  H
  C141     1.0000 0.77783  0.20221  0.60824  Biso   1.000  C
  H156     1.0000 0.26619  0.14795  0.48010  Biso   1.000  H
  H157     1.0000 0.14717  0.13877  0.45822  Biso   1.000  H
  C142     1.0000 0.19032  0.03369  0.41013  Biso   1.000  C
  C143     1.0000 0.28448  0.04154  0.85531  Biso   1.000  C
  O32      1.0000 0.74377  0.41665  0.76594  Biso   1.000  O
  C144     1.0000 0.80080  0.96014  0.93382  Biso   1.000  C
  H158     1.0000 0.54344  0.90600  0.62324  Biso   1.000  H
  H159     1.0000 0.52254  0.81227  0.60572  Biso   1.000  H
  C145     1.0000 0.39452  0.85399  0.63891  Biso   1.000  C
  H160     1.0000 0.76234  0.64280  0.63115  Biso   1.000  H
  H161     1.0000 0.78745  0.70589  0.60004  Biso   1.000  H
  H162     1.0000 0.88113  0.69011  0.63304  Biso   1.000  H
  H163     1.0000 0.81060  0.68410  0.60800  Biso   1.000  H
  H164     1.0000 0.70815  0.65171  0.63522  Biso   1.000  H
  H165     1.0000 0.71426  0.72141  0.61193  Biso   1.000  H
  C146     1.0000 0.85027  0.46782  0.78724  Biso   1.000  C
  H166     1.0000 0.70072  0.18232  0.59631  Biso   1.000  H
  H167     1.0000 0.80123  0.16039  0.61543  Biso   1.000  H
  C147     1.0000 0.82952  0.21537  0.55230  Biso   1.000  C
  H168     1.0000 0.11870  0.99765  0.39810  Biso   1.000  H
  H169     1.0000 0.21189  0.04706  0.37471  Biso   1.000  H
  H170     1.0000 0.23774  0.00686  0.42003  Biso   1.000  H
  H171     1.0000 0.28494  0.07836  0.89951  Biso   1.000  H
  H172     1.0000 0.35544  0.03732  0.84842  Biso   1.000  H
  H173     1.0000 0.25971  0.06212  0.82683  Biso   1.000  H
  H174     1.0000 0.87434  0.96539  0.94546  Biso   1.000  H
  H175     1.0000 0.79298  0.96596  0.89393  Biso   1.000  H
  H176     1.0000 0.77850  0.00209  0.96754  Biso   1.000  H
  H177     1.0000 0.36070  0.84081  0.59641  Biso   1.000  H
  H178     1.0000 0.36337  0.81092  0.65182  Biso   1.000  H
  H179     1.0000 0.38425  0.90460  0.66933  Biso   1.000  H
  H180     1.0000 0.84957  0.52481  0.80441  Biso   1.000  H
  H181     1.0000 0.88114  0.45896  0.82193  Biso   1.000  H
  H182     1.0000 0.90450  0.24509  0.56744  Biso   1.000  H
  H183     1.0000 0.79618  0.24962  0.54022  Biso   1.000  H
  C148     1.0000 0.82127  0.13771  0.49301  Biso   1.000  C
  H184     1.0000 0.85061  0.10190  0.50553  Biso   1.000  H
  H185     1.0000 0.74637  0.10967  0.47622  Biso   1.000  H
  C149     1.0000 0.87961  0.15167  0.43920  Biso   1.000  C
  H186     1.0000 0.95339  0.18315  0.45681  Biso   1.000  H
  H187     1.0000 0.84667  0.18387  0.42430  Biso   1.000  H
  C150     1.0000 0.87743  0.07355  0.38282  Biso   1.000  C
  H188     1.0000 0.91503  0.08596  0.35050  Biso   1.000  H
  H189     1.0000 0.91135  0.04199  0.39703  Biso   1.000  H
  H190     1.0000 0.80468  0.04265  0.36452  Biso   1.000  H
