data_image0
_cell_length_a       15.435
_cell_length_b       15.466
_cell_length_c       17.949
_cell_angle_alpha    99.31
_cell_angle_beta     113.16
_cell_angle_gamma    103.11

_symmetry_space_group_name_H-M    "P 1"
_symmetry_int_tables_number       1

loop_
  _symmetry_equiv_pos_as_xyz
  'x, y, z'

loop_
  _atom_site_label
  _atom_site_occupancy
  _atom_site_fract_x
  _atom_site_fract_y
  _atom_site_fract_z
  _atom_site_thermal_displace_type
  _atom_site_B_iso_or_equiv
  _atom_site_type_symbol
  C1       1.0000 0.47370  0.55179  0.61802  Biso   1.000  C
  C2       1.0000 0.37972  0.52600  0.52623  Biso   1.000  C
  C3       1.0000 0.54857  0.63962  0.62079  Biso   1.000  C
  H1       1.0000 0.50248  0.50138  0.62313  Biso   1.000  H
  O1       1.0000 0.44223  0.56839  0.67767  Biso   1.000  O
  O2       1.0000 0.31764  0.43747  0.51834  Biso   1.000  O
  H2       1.0000 0.34929  0.57429  0.52352  Biso   1.000  H
  C4       1.0000 0.41166  0.51100  0.45534  Biso   1.000  C
  C5       1.0000 0.57626  0.62126  0.55022  Biso   1.000  C
  H3       1.0000 0.51800  0.68870  0.61568  Biso   1.000  H
  O3       1.0000 0.63170  0.66730  0.69926  Biso   1.000  O
  H4       1.0000 0.41629  0.61918  0.67250  Biso   1.000  H
  C6       1.0000 0.21958  0.43078  0.49763  Biso   1.000  C
  H5       1.0000 0.43511  0.45718  0.45389  Biso   1.000  H
  C7       1.0000 0.33013  0.50109  0.37138  Biso   1.000  C
  O4       1.0000 0.49513  0.59946  0.47207  Biso   1.000  O
  H6       1.0000 0.62528  0.67823  0.55628  Biso   1.000  H
  O5       1.0000 0.62271  0.55110  0.55760  Biso   1.000  O
  H7       1.0000 0.66223  0.62998  0.70141  Biso   1.000  H
  O6       1.0000 0.15169  0.36803  0.41651  Biso   1.000  O
  C8       1.0000 0.19297  0.39639  0.56379  Biso   1.000  C
  H8       1.0000 0.20707  0.48947  0.49807  Biso   1.000  H
  H9       1.0000 0.35688  0.50263  0.33079  Biso   1.000  H
  H10      1.0000 0.28000  0.44121  0.35301  Biso   1.000  H
  O7       1.0000 0.28441  0.57000  0.37119  Biso   1.000  O
  C9       1.0000 0.71722  0.56920  0.55861  Biso   1.000  C
  C10      1.0000 0.15618  0.27592  0.40907  Biso   1.000  C
  C11      1.0000 0.20540  0.30251  0.56354  Biso   1.000  C
  H11      1.0000 0.12379  0.39179  0.55009  Biso   1.000  H
  O8       1.0000 0.25735  0.46061  0.64516  Biso   1.000  O
  H12      1.0000 0.32138  0.61852  0.37308  Biso   1.000  H
  C12      1.0000 0.78284  0.55101  0.63449  Biso   1.000  C
  H13      1.0000 0.74284  0.63343  0.55893  Biso   1.000  H
  C13      1.0000 0.70389  0.50048  0.47794  Biso   1.000  C
  C14      1.0000 0.07346  0.21578  0.31829  Biso   1.000  C
  C15      1.0000 0.12958  0.23588  0.47434  Biso   1.000  C
  H14      1.0000 0.22199  0.27432  0.41620  Biso   1.000  H
  H15      1.0000 0.27370  0.30478  0.57547  Biso   1.000  H
  O9       1.0000 0.17754  0.26779  0.62256  Biso   1.000  O
  H16      1.0000 0.23091  0.44887  0.68411  Biso   1.000  H
  C16      1.0000 0.88112  0.56173  0.63525  Biso   1.000  C
  H17      1.0000 0.75382  0.48879  0.63683  Biso   1.000  H
  O10      1.0000 0.79796  0.62211  0.70886  Biso   1.000  O
  H18      1.0000 0.66965  0.43686  0.47377  Biso   1.000  H
  C17      1.0000 0.64967  0.52588  0.39549  Biso   1.000  C
  O11      1.0000 0.80235  0.50920  0.48362  Biso   1.000  O
  H19      1.0000 0.08788  0.23841  0.27568  Biso   1.000  H
  H20      1.0000 0.07232  0.15191  0.31027  Biso   1.000  H
  O12      1.0000 0.98075  0.22145  0.30996  Biso   1.000  O
  H21      1.0000 0.06508  0.22757  0.46891  Biso   1.000  H
  O13      1.0000 0.14913  0.15067  0.47402  Biso   1.000  O
  H22      1.0000 0.19983  0.22543  0.63273  Biso   1.000  H
  C18      1.0000 0.87241  0.49492  0.55861  Biso   1.000  C
  H23      1.0000 0.90873  0.62498  0.63430  Biso   1.000  H
  O14      1.0000 0.95309  0.54417  0.70842  Biso   1.000  O
  H24      1.0000 0.82882  0.60934  0.75223  Biso   1.000  H
  H25      1.0000 0.65542  0.48839  0.34991  Biso   1.000  H
  H26      1.0000 0.57957  0.51103  0.38148  Biso   1.000  H
  O15      1.0000 0.68514  0.61336  0.40124  Biso   1.000  O
  H27      1.0000 0.98438  0.28018  0.34253  Biso   1.000  H
  C19      1.0000 0.06105  0.06856  0.43968  Biso   1.000  C
  H28      1.0000 0.93727  0.50408  0.55861  Biso   1.000  H
  O16      1.0000 0.83207  0.40268  0.56158  Biso   1.000  O
  H29      1.0000 0.94530  0.56261  0.75008  Biso   1.000  H
  H30      1.0000 0.71470  0.61881  0.36342  Biso   1.000  H
  H31      1.0000 0.00210  0.08851  0.42680  Biso   1.000  H
  C20      1.0000 0.07418  0.01919  0.51304  Biso   1.000  C
  O17      1.0000 0.04932  0.01134  0.36879  Biso   1.000  O
  C21      1.0000 0.89000  0.34327  0.55230  Biso   1.000  C
  O18      1.0000 0.08680  0.07697  0.58487  Biso   1.000  O
  H32      1.0000 0.01503  0.96539  0.49372  Biso   1.000  H
  C22      1.0000 0.16522  0.98529  0.52566  Biso   1.000  C
  C23      1.0000 0.13072  0.97762  0.37895  Biso   1.000  C
  C24      1.0000 0.90560  0.30112  0.62692  Biso   1.000  C
  H33      1.0000 0.95372  0.37909  0.55653  Biso   1.000  H
  C25      1.0000 0.82920  0.26590  0.46746  Biso   1.000  C
  H34      1.0000 0.04894  0.04412  0.60893  Biso   1.000  H
  H35      1.0000 0.22480  0.03914  0.54643  Biso   1.000  H
  C26      1.0000 0.15083  0.92581  0.44612  Biso   1.000  C
  O19      1.0000 0.17779  0.93513  0.58910  Biso   1.000  O
  H36      1.0000 0.19022  0.03059  0.39688  Biso   1.000  H
  C27      1.0000 0.10842  0.91717  0.29323  Biso   1.000  C
  C28      1.0000 0.95538  0.22940  0.61884  Biso   1.000  C
  H37      1.0000 0.84112  0.27202  0.62490  Biso   1.000  H
  O20      1.0000 0.96559  0.36968  0.70318  Biso   1.000  O
  H38      1.0000 0.76156  0.23781  0.45988  Biso   1.000  H
  C29      1.0000 0.82599  0.30832  0.39827  Biso   1.000  C
  O21      1.0000 0.87669  0.19750  0.46632  Biso   1.000  O
  H39      1.0000 0.09499  0.86901  0.42718  Biso   1.000  H
  O22      1.0000 0.24108  0.90333  0.45786  Biso   1.000  O
  H40      1.0000 0.23639  0.93877  0.61372  Biso   1.000  H
  H41      1.0000 0.16379  0.89590  0.29638  Biso   1.000  H
  H42      1.0000 0.09404  0.95072  0.25093  Biso   1.000  H
  O23      1.0000 0.01553  0.83512  0.27271  Biso   1.000  O
  C30      1.0000 0.88438  0.15076  0.53355  Biso   1.000  C
  O24      1.0000 0.96878  0.18419  0.68348  Biso   1.000  O
  H43      1.0000 0.01944  0.25752  0.61941  Biso   1.000  H
  H44      1.0000 0.02242  0.38769  0.70842  Biso   1.000  H
  H45      1.0000 0.79632  0.35722  0.39947  Biso   1.000  H
  H46      1.0000 0.78620  0.26217  0.34398  Biso   1.000  H
  O25      1.0000 0.92964  0.34668  0.41077  Biso   1.000  O
  C31      1.0000 0.22780  0.80397  0.43741  Biso   1.000  C
  H47      1.0000 0.99412  0.84641  0.30711  Biso   1.000  H
  O26      1.0000 0.79302  0.11455  0.53084  Biso   1.000  O
  H48      1.0000 0.91410  0.10203  0.52812  Biso   1.000  H
  H49      1.0000 0.92242  0.13604  0.66612  Biso   1.000  H
  H50      1.0000 0.95811  0.30802  0.41999  Biso   1.000  H
  H51      1.0000 0.16018  0.76622  0.42321  Biso   1.000  H
  C32      1.0000 0.30711  0.79120  0.51644  Biso   1.000  C
  O27      1.0000 0.25379  0.78385  0.37037  Biso   1.000  O
  C33      1.0000 0.75688  0.01129  0.50937  Biso   1.000  C
  H52      1.0000 0.30398  0.72627  0.50262  Biso   1.000  H
  C34      1.0000 0.41050  0.84778  0.53987  Biso   1.000  C
  O28      1.0000 0.28179  0.80546  0.58431  Biso   1.000  O
  C35      1.0000 0.35187  0.83408  0.38476  Biso   1.000  C
  C36      1.0000 0.73761  0.98770  0.58279  Biso   1.000  C
  C37      1.0000 0.65578  0.97968  0.42826  Biso   1.000  C
  H53      1.0000 0.80477  0.98397  0.50060  Biso   1.000  H
  H54      1.0000 0.41819  0.91386  0.55401  Biso   1.000  H
  C38      1.0000 0.42971  0.82132  0.46582  Biso   1.000  C
  O29      1.0000 0.47759  0.82625  0.60899  Biso   1.000  O
  H55      1.0000 0.32261  0.85247  0.62130  Biso   1.000  H
  H56      1.0000 0.35935  0.89979  0.39057  Biso   1.000  H
  C39      1.0000 0.35771  0.79149  0.30749  Biso   1.000  C
  C40      1.0000 0.69082  0.87940  0.55527  Biso   1.000  C
  H57      1.0000 0.69109  0.01719  0.59150  Biso   1.000  H
  O30      1.0000 0.82616  0.01463  0.65665  Biso   1.000  O
  O31      1.0000 0.61905  0.87955  0.40919  Biso   1.000  O
  H58      1.0000 0.60860  0.00981  0.43451  Biso   1.000  H
  C41      1.0000 0.68038  0.99656  0.35396  Biso   1.000  C
  H59      1.0000 0.43090  0.75739  0.45628  Biso   1.000  H
  O32      1.0000 0.52599  0.88557  0.48349  Biso   1.000  O
  H60      1.0000 0.53456  0.84970  0.61638  Biso   1.000  H
  H61      1.0000 0.30179  0.79357  0.25870  Biso   1.000  H
  H62      1.0000 0.41801  0.82830  0.30800  Biso   1.000  H
  O33      1.0000 0.35741  0.69826  0.29834  Biso   1.000  O
  C42      1.0000 0.59588  0.85208  0.47346  Biso   1.000  C
  H63      1.0000 0.73761  0.85049  0.54630  Biso   1.000  H
  O34      1.0000 0.66985  0.85195  0.61896  Biso   1.000  O
  H64      1.0000 0.84972  0.97213  0.65943  Biso   1.000  H
  H65      1.0000 0.70569  0.06294  0.36342  Biso   1.000  H
  H66      1.0000 0.61873  0.97301  0.30213  Biso   1.000  H
  O35      1.0000 0.74625  0.95879  0.34209  Biso   1.000  O
  H67      1.0000 0.30939  0.66757  0.30238  Biso   1.000  H
  H68      1.0000 0.56850  0.78451  0.45553  Biso   1.000  H
  H69      1.0000 0.70183  0.81799  0.63721  Biso   1.000  H
  H70      1.0000 0.74346  0.90421  0.36128  Biso   1.000  H
  O36      1.0000 0.59148  0.62819  0.84906  Biso   1.000  O
  C43      1.0000 0.56813  0.58739  0.90581  Biso   1.000  C
  H71      1.0000 0.55669  0.66082  0.83341  Biso   1.000  H
  C44      1.0000 0.47723  0.59421  0.90682  Biso   1.000  C
  H72      1.0000 0.56262  0.52187  0.89092  Biso   1.000  H
  C45      1.0000 0.65821  0.63678  0.99552  Biso   1.000  C
  C46      1.0000 0.46059  0.55912  0.97740  Biso   1.000  C
  H73      1.0000 0.48341  0.65989  0.91901  Biso   1.000  H
  O37      1.0000 0.39502  0.54956  0.82716  Biso   1.000  O
  C47      1.0000 0.63561  0.59760  0.05991  Biso   1.000  C
  O38      1.0000 0.74517  0.62285  0.99426  Biso   1.000  O
  H74      1.0000 0.66754  0.70326  0.00922  Biso   1.000  H
  O39      1.0000 0.44564  0.45922  0.95215  Biso   1.000  O
  H75      1.0000 0.40069  0.56901  0.97892  Biso   1.000  H
  O40      1.0000 0.53960  0.60064  0.05360  Biso   1.000  O
  H76      1.0000 0.38671  0.59229  0.79357  Biso   1.000  H
  H77      1.0000 0.63814  0.53422  0.05372  Biso   1.000  H
  C48      1.0000 0.70483  0.65727  0.14873  Biso   1.000  C
  C49      1.0000 0.82969  0.69982  0.02266  Biso   1.000  C
  C50      1.0000 0.35204  0.39658  0.94123  Biso   1.000  C
  H78      1.0000 0.68726  0.62964  0.18780  Biso   1.000  H
  H79      1.0000 0.77224  0.65856  0.16091  Biso   1.000  H
  O41      1.0000 0.70211  0.74786  0.16224  Biso   1.000  O
  C51      1.0000 0.86645  0.70114  0.95108  Biso   1.000  C
  H80      1.0000 0.81211  0.75601  0.03377  Biso   1.000  H
  O42      1.0000 0.91005  0.70056  0.09728  Biso   1.000  O
  C52      1.0000 0.31040  0.32827  0.85822  Biso   1.000  C
  H81      1.0000 0.30600  0.43012  0.94388  Biso   1.000  H
  C53      1.0000 0.37980  0.34792  0.01237  Biso   1.000  C
  H82      1.0000 0.64586  0.74746  0.15403  Biso   1.000  H
  H83      1.0000 0.92508  0.75558  0.97077  Biso   1.000  H
  C54      1.0000 0.89401  0.61720  0.93889  Biso   1.000  C
  O43      1.0000 0.78799  0.70690  0.87753  Biso   1.000  O
  C55      1.0000 0.94461  0.62792  0.08882  Biso   1.000  C
  O44      1.0000 0.28156  0.37734  0.79231  Biso   1.000  O
  C56      1.0000 0.21178  0.25443  0.84389  Biso   1.000  C
  H84      1.0000 0.35869  0.29851  0.85449  Biso   1.000  H
  O45      1.0000 0.28915  0.27463  0.99508  Biso   1.000  O
  H85      1.0000 0.43321  0.32241  0.01490  Biso   1.000  H
  C57      1.0000 0.40781  0.41365  0.09690  Biso   1.000  C
  H86      1.0000 0.83580  0.56256  0.92008  Biso   1.000  H
  O46      1.0000 0.92999  0.61625  0.87311  Biso   1.000  O
  C58      1.0000 0.97763  0.61507  0.01951  Biso   1.000  C
  H87      1.0000 0.81333  0.72233  0.83871  Biso   1.000  H
  H88      1.0000 0.88870  0.57223  0.07329  Biso   1.000  H
  C59      1.0000 0.02225  0.63334  0.17499  Biso   1.000  C
  H89      1.0000 0.23401  0.39350  0.79067  Biso   1.000  H
  C60      1.0000 0.24512  0.21010  0.91812  Biso   1.000  C
  H90      1.0000 0.16462  0.28583  0.84799  Biso   1.000  H
  O47      1.0000 0.16875  0.19015  0.76687  Biso   1.000  O
  H91      1.0000 0.41501  0.37860  0.13800  Biso   1.000  H
  H92      1.0000 0.47212  0.45891  0.11502  Biso   1.000  H
  O48      1.0000 0.34142  0.46020  0.09804  Biso   1.000  O
  H93      1.0000 0.92253  0.56278  0.85051  Biso   1.000  H
  O49      1.0000 0.99438  0.52835  0.00347  Biso   1.000  O
  H94      1.0000 0.03835  0.66563  0.03478  Biso   1.000  H
  H95      1.0000 0.99283  0.63616  0.21381  Biso   1.000  H
  H96      1.0000 0.03930  0.57661  0.17120  Biso   1.000  H
  O50      1.0000 0.09965  0.69925  0.20523  Biso   1.000  O
  H97      1.0000 0.18700  0.16367  0.91371  Biso   1.000  H
  O51      1.0000 0.31499  0.16415  0.90815  Biso   1.000  O
  H98      1.0000 0.19284  0.14804  0.77091  Biso   1.000  H
  H99      1.0000 0.28621  0.42272  0.08150  Biso   1.000  H
  C61      1.0000 0.09356  0.52935  0.02531  Biso   1.000  C
  H100     1.0000 0.11572  0.70791  0.16792  Biso   1.000  H
  C62      1.0000 0.29362  0.07190  0.90544  Biso   1.000  C
  C63      1.0000 0.09080  0.47267  0.94603  Biso   1.000  C
  H101     1.0000 0.13800  0.59281  0.04280  Biso   1.000  H
  O52      1.0000 0.12639  0.48561  0.08825  Biso   1.000  O
  C64      1.0000 0.29574  0.01913  0.82482  Biso   1.000  C
  H102     1.0000 0.22909  0.04752  0.90537  Biso   1.000  H
  C65      1.0000 0.37798  0.06030  0.98049  Biso   1.000  C
  H103     1.0000 0.15791  0.47071  0.95802  Biso   1.000  H
  C66      1.0000 0.01866  0.37087  0.92021  Biso   1.000  C
  O53      1.0000 0.05689  0.51150  0.87810  Biso   1.000  O
  C67      1.0000 0.07492  0.39715  0.07563  Biso   1.000  C
  H104     1.0000 0.35797  0.04657  0.82230  Biso   1.000  H
  O54      1.0000 0.21059  0.02389  0.75469  Biso   1.000  O
  C68      1.0000 0.27871  0.91688  0.82324  Biso   1.000  C
  H105     1.0000 0.44346  0.09108  0.98498  Biso   1.000  H
  O55      1.0000 0.36041  0.96028  0.97279  Biso   1.000  O
  C69      1.0000 0.36943  0.09522  0.06243  Biso   1.000  C
  H106     1.0000 0.95119  0.37088  0.90922  Biso   1.000  H
  C70      1.0000 0.06347  0.33517  0.99527  Biso   1.000  C
  O56      1.0000 0.01845  0.31635  0.84881  Biso   1.000  O
  H107     1.0000 0.00409  0.47530  0.84041  Biso   1.000  H
  H108     1.0000 0.00901  0.39386  0.07140  Biso   1.000  H
  C71      1.0000 0.13352  0.37353  0.15372  Biso   1.000  C
  H109     1.0000 0.22752  0.03960  0.71959  Biso   1.000  H
  C72      1.0000 0.36260  0.91233  0.89969  Biso   1.000  C
  H110     1.0000 0.21513  0.89042  0.82400  Biso   1.000  H
  O57      1.0000 0.27908  0.86714  0.74819  Biso   1.000  O
  H111     1.0000 0.41113  0.07294  0.10618  Biso   1.000  H
  H112     1.0000 0.39556  0.16221  0.08061  Biso   1.000  H
  O58      1.0000 0.27924  0.06989  0.05562  Biso   1.000  O
  O59      1.0000 0.99104  0.24171  0.97456  Biso   1.000  O
  H113     1.0000 0.12805  0.32966  0.00221  Biso   1.000  H
  H114     1.0000 0.06528  0.28350  0.86680  Biso   1.000  H
  H115     1.0000 0.14695  0.42153  0.20258  Biso   1.000  H
  H116     1.0000 0.09361  0.31600  0.15510  Biso   1.000  H
  O60      1.0000 0.22290  0.36403  0.15952  Biso   1.000  O
  H117     1.0000 0.35408  0.84738  0.89919  Biso   1.000  H
  O61      1.0000 0.45407  0.95153  0.89805  Biso   1.000  O
  H118     1.0000 0.22545  0.85691  0.70753  Biso   1.000  H
  H119     1.0000 0.24741  0.01906  0.02090  Biso   1.000  H
  C73      1.0000 0.03569  0.16947  0.98838  Biso   1.000  C
  H120     1.0000 0.26913  0.42385  0.17209  Biso   1.000  H
  C74      1.0000 0.51702  0.89528  0.90512  Biso   1.000  C
  C75      1.0000 0.97669  0.09442  0.90461  Biso   1.000  C
  O62      1.0000 0.01104  0.13236  0.04911  Biso   1.000  O
  H121     1.0000 0.10745  0.19053  0.00549  Biso   1.000  H
  C76      1.0000 0.54660  0.89428  0.83656  Biso   1.000  C
  H122     1.0000 0.48198  0.83232  0.90158  Biso   1.000  H
  C77      1.0000 0.61169  0.93847  0.99022  Biso   1.000  C
  C78      1.0000 0.86433  0.05669  0.87772  Biso   1.000  C
  O63      1.0000 0.99402  0.12984  0.83877  Biso   1.000  O
  H123     1.0000 0.00309  0.04262  0.91017  Biso   1.000  H
  C79      1.0000 0.91296  0.09825  0.03251  Biso   1.000  C
  C80      1.0000 0.61757  0.84458  0.84206  Biso   1.000  C
  H124     1.0000 0.57423  0.95770  0.83600  Biso   1.000  H
  O64      1.0000 0.45386  0.84311  0.75513  Biso   1.000  O
  H125     1.0000 0.63972  0.00511  0.99968  Biso   1.000  H
  O65      1.0000 0.68527  0.89150  0.99312  Biso   1.000  O
  C81      1.0000 0.58608  0.91902  0.06048  Biso   1.000  C
  C82      1.0000 0.85828  0.02038  0.94628  Biso   1.000  C
  H126     1.0000 0.83222  0.10450  0.86888  Biso   1.000  H
  O66      1.0000 0.82006  0.97816  0.80210  Biso   1.000  O
  H127     1.0000 0.94483  0.09019  0.78423  Biso   1.000  H
  H128     1.0000 0.88334  0.14801  0.02702  Biso   1.000  H
  C83      1.0000 0.90527  0.06286  0.10170  Biso   1.000  C
  C84      1.0000 0.71531  0.89491  0.92791  Biso   1.000  C
  H129     1.0000 0.58883  0.78098  0.84142  Biso   1.000  H
  O67      1.0000 0.64813  0.84321  0.77470  Biso   1.000  O
  H130     1.0000 0.43728  0.78791  0.75197  Biso   1.000  H
  H131     1.0000 0.64562  0.94735  0.11382  Biso   1.000  H
  H132     1.0000 0.53776  0.94880  0.06212  Biso   1.000  H
  O68      1.0000 0.54844  0.82638  0.05410  Biso   1.000  O
  O69      1.0000 0.75018  0.98535  0.92494  Biso   1.000  O
  H133     1.0000 0.88693  0.96993  0.95082  Biso   1.000  H
  H134     1.0000 0.78080  0.99061  0.76220  Biso   1.000  H
  O70      1.0000 0.94123  0.98605  0.11098  Biso   1.000  O
  H135     1.0000 0.94284  0.11221  0.15409  Biso   1.000  H
  H136     1.0000 0.83610  0.04433  0.09128  Biso   1.000  H
  H137     1.0000 0.76511  0.86346  0.93359  Biso   1.000  H
  H138     1.0000 0.63271  0.88248  0.75122  Biso   1.000  H
  H139     1.0000 0.48951  0.81363  0.04349  Biso   1.000  H
  H140     1.0000 0.89644  0.93994  0.12038  Biso   1.000  H
