data_image0
_cell_length_a       18.247
_cell_length_b       19.06
_cell_length_c       20.798
_cell_angle_alpha    90.15
_cell_angle_beta     91.85
_cell_angle_gamma    108.68

_symmetry_space_group_name_H-M    "P 1"
_symmetry_int_tables_number       1

loop_
  _symmetry_equiv_pos_as_xyz
  'x, y, z'

loop_
  _atom_site_label
  _atom_site_occupancy
  _atom_site_fract_x
  _atom_site_fract_y
  _atom_site_fract_z
  _atom_site_thermal_displace_type
  _atom_site_B_iso_or_equiv
  _atom_site_type_symbol
  C1       1.0000 0.62156  0.59993  0.61260  Biso   1.000  C
  N1       1.0000 0.67425  0.59478  0.66889  Biso   1.000  N
  H1       1.0000 0.56905  0.58681  0.62737  Biso   1.000  H
  H2       1.0000 0.62236  0.56309  0.58051  Biso   1.000  H
  C2       1.0000 0.64085  0.67441  0.58017  Biso   1.000  C
  H3       1.0000 0.68465  0.63621  0.69400  Biso   1.000  H
  C3       1.0000 0.74745  0.59081  0.64209  Biso   1.000  C
  C4       1.0000 0.63685  0.52712  0.70868  Biso   1.000  C
  N2       1.0000 0.62518  0.72943  0.62068  Biso   1.000  N
  H4       1.0000 0.69513  0.69119  0.56988  Biso   1.000  H
  H5       1.0000 0.61053  0.66912  0.54019  Biso   1.000  H
  H6       1.0000 0.76313  0.62773  0.60889  Biso   1.000  H
  H7       1.0000 0.73692  0.54258  0.62160  Biso   1.000  H
  C5       1.0000 0.81474  0.60248  0.69049  Biso   1.000  C
  H8       1.0000 0.61825  0.48452  0.67991  Biso   1.000  H
  H9       1.0000 0.67632  0.51893  0.73730  Biso   1.000  H
  C6       1.0000 0.57111  0.53068  0.74827  Biso   1.000  C
  C7       1.0000 0.67589  0.78881  0.64570  Biso   1.000  C
  C8       1.0000 0.54757  0.72388  0.64127  Biso   1.000  C
  N3       1.0000 0.84926  0.67949  0.70949  Biso   1.000  N
  H10      1.0000 0.79644  0.57328  0.72831  Biso   1.000  H
  H11      1.0000 0.85386  0.58502  0.67178  Biso   1.000  H
  N4       1.0000 0.59714  0.57732  0.80528  Biso   1.000  N
  H12      1.0000 0.53707  0.54993  0.72220  Biso   1.000  H
  H13      1.0000 0.54162  0.48109  0.76117  Biso   1.000  H
  N5       1.0000 0.64680  0.82672  0.68260  Biso   1.000  N
  H14      1.0000 0.72835  0.80253  0.63757  Biso   1.000  H
  C9       1.0000 0.56233  0.79238  0.68611  Biso   1.000  C
  H15      1.0000 0.52454  0.67839  0.66427  Biso   1.000  H
  H16      1.0000 0.51385  0.72603  0.60490  Biso   1.000  H
  C10      1.0000 0.84488  0.70833  0.76487  Biso   1.000  C
  C11      1.0000 0.89185  0.73979  0.66639  Biso   1.000  C
  C12      1.0000 0.59094  0.64298  0.81438  Biso   1.000  C
  C13      1.0000 0.63831  0.55898  0.86080  Biso   1.000  C
  C14      1.0000 0.69039  0.89280  0.71849  Biso   1.000  C
  H17      1.0000 0.53506  0.82531  0.67028  Biso   1.000  H
  H18      1.0000 0.54734  0.77800  0.72970  Biso   1.000  H
  N6       1.0000 0.87705  0.77931  0.77021  Biso   1.000  N
  H19      1.0000 0.81993  0.67979  0.79889  Biso   1.000  H
  C15      1.0000 0.91308  0.80832  0.70978  Biso   1.000  C
  H20      1.0000 0.85927  0.74453  0.62997  Biso   1.000  H
  H21      1.0000 0.93777  0.73118  0.65080  Biso   1.000  H
  N7       1.0000 0.62374  0.67589  0.86749  Biso   1.000  N
  H22      1.0000 0.56517  0.66451  0.78508  Biso   1.000  H
  C16      1.0000 0.65428  0.62703  0.90540  Biso   1.000  C
  H23      1.0000 0.68635  0.55191  0.84830  Biso   1.000  H
  H24      1.0000 0.60676  0.51450  0.88140  Biso   1.000  H
  H25      1.0000 0.66925  0.93230  0.70829  Biso   1.000  H
  H26      1.0000 0.74368  0.90838  0.70550  Biso   1.000  H
  C17      1.0000 0.68856  0.88092  0.79027  Biso   1.000  C
  C18      1.0000 0.87396  0.82562  0.82371  Biso   1.000  C
  H27      1.0000 0.96875  0.82990  0.71570  Biso   1.000  H
  H28      1.0000 0.89219  0.84542  0.69227  Biso   1.000  H
  C19      1.0000 0.62935  0.75103  0.88770  Biso   1.000  C
  H29      1.0000 0.62742  0.61409  0.94538  Biso   1.000  H
  H30      1.0000 0.70923  0.64950  0.91498  Biso   1.000  H
  N8       1.0000 0.73388  0.83062  0.81409  Biso   1.000  N
  H31      1.0000 0.63519  0.85962  0.80230  Biso   1.000  H
  H32      1.0000 0.70957  0.92872  0.81188  Biso   1.000  H
  H33      1.0000 0.92579  0.85889  0.83357  Biso   1.000  H
  H34      1.0000 0.85738  0.79458  0.86090  Biso   1.000  H
  C20      1.0000 0.82104  0.87059  0.81308  Biso   1.000  C
  H35      1.0000 0.61357  0.75012  0.93177  Biso   1.000  H
  H36      1.0000 0.59388  0.76800  0.86109  Biso   1.000  H
  C21      1.0000 0.71036  0.80500  0.88279  Biso   1.000  C
  H37      1.0000 0.72204  0.79010  0.78768  Biso   1.000  H
  H38      1.0000 0.83230  0.89453  0.77180  Biso   1.000  H
  H39      1.0000 0.83399  0.90948  0.84570  Biso   1.000  H
  H40      1.0000 0.74686  0.78208  0.90050  Biso   1.000  H
  H41      1.0000 0.71468  0.84829  0.90911  Biso   1.000  H
  C22      1.0000 0.37850  0.40010  0.38739  Biso   1.000  C
  C23      1.0000 0.35922  0.32562  0.41982  Biso   1.000  C
  N9       1.0000 0.32585  0.40520  0.33110  Biso   1.000  N
  H42      1.0000 0.43101  0.41321  0.37257  Biso   1.000  H
  H43      1.0000 0.37774  0.43688  0.41948  Biso   1.000  H
  N10      1.0000 0.37494  0.27060  0.37931  Biso   1.000  N
  H44      1.0000 0.30491  0.30878  0.43011  Biso   1.000  H
  H45      1.0000 0.38953  0.33090  0.45980  Biso   1.000  H
  C24      1.0000 0.25261  0.40922  0.35790  Biso   1.000  C
  C25      1.0000 0.36327  0.47291  0.29131  Biso   1.000  C
  H46      1.0000 0.31542  0.36382  0.30599  Biso   1.000  H
  C26      1.0000 0.32423  0.21122  0.35429  Biso   1.000  C
  C27      1.0000 0.45253  0.27609  0.35872  Biso   1.000  C
  C28      1.0000 0.18531  0.39749  0.30950  Biso   1.000  C
  H47      1.0000 0.23693  0.37230  0.39110  Biso   1.000  H
  H48      1.0000 0.26313  0.45739  0.37839  Biso   1.000  H
  C29      1.0000 0.42894  0.46930  0.25172  Biso   1.000  C
  H49      1.0000 0.38187  0.51551  0.32008  Biso   1.000  H
  H50      1.0000 0.32374  0.48110  0.26269  Biso   1.000  H
  N11      1.0000 0.35332  0.17331  0.31739  Biso   1.000  N
  H51      1.0000 0.27171  0.19750  0.36237  Biso   1.000  H
  C30      1.0000 0.43772  0.20759  0.31388  Biso   1.000  C
  H52      1.0000 0.47550  0.32158  0.33567  Biso   1.000  H
  H53      1.0000 0.48621  0.27400  0.39509  Biso   1.000  H
  N12      1.0000 0.15084  0.32048  0.29049  Biso   1.000  N
  H54      1.0000 0.20360  0.42669  0.27168  Biso   1.000  H
  H55      1.0000 0.14626  0.41501  0.32821  Biso   1.000  H
  N13      1.0000 0.40293  0.42271  0.19471  Biso   1.000  N
  H56      1.0000 0.46305  0.45010  0.27779  Biso   1.000  H
  H57      1.0000 0.45843  0.51888  0.23878  Biso   1.000  H
  C31      1.0000 0.30973  0.10723  0.28150  Biso   1.000  C
  H58      1.0000 0.46501  0.17472  0.32971  Biso   1.000  H
  H59      1.0000 0.45272  0.22203  0.27029  Biso   1.000  H
  C32      1.0000 0.15523  0.29170  0.23512  Biso   1.000  C
  C33      1.0000 0.10820  0.26019  0.33360  Biso   1.000  C
  C34      1.0000 0.40910  0.35699  0.18561  Biso   1.000  C
  C35      1.0000 0.36173  0.44100  0.13919  Biso   1.000  C
  C36      1.0000 0.31150  0.11911  0.20972  Biso   1.000  C
  H60      1.0000 0.33079  0.06768  0.29170  Biso   1.000  H
  H61      1.0000 0.25642  0.09159  0.29449  Biso   1.000  H
  N14      1.0000 0.12302  0.22072  0.22978  Biso   1.000  N
  H62      1.0000 0.18012  0.32018  0.20110  Biso   1.000  H
  C37      1.0000 0.08704  0.19171  0.29021  Biso   1.000  C
  H63      1.0000 0.14080  0.25550  0.36997  Biso   1.000  H
  H64      1.0000 0.06233  0.26879  0.34919  Biso   1.000  H
  N15      1.0000 0.37630  0.32409  0.13250  Biso   1.000  N
  H65      1.0000 0.43495  0.33552  0.21491  Biso   1.000  H
  C38      1.0000 0.34584  0.37300  0.09459  Biso   1.000  C
  H66      1.0000 0.31372  0.44812  0.15169  Biso   1.000  H
  H67      1.0000 0.39334  0.48548  0.11859  Biso   1.000  H
  N16      1.0000 0.26624  0.16941  0.18590  Biso   1.000  N
  H68      1.0000 0.36493  0.14041  0.19769  Biso   1.000  H
  H69      1.0000 0.29049  0.07131  0.18811  Biso   1.000  H
  C39      1.0000 0.12611  0.17441  0.17628  Biso   1.000  C
  H70      1.0000 0.03130  0.17008  0.28429  Biso   1.000  H
  H71      1.0000 0.10793  0.15460  0.30772  Biso   1.000  H
  C40      1.0000 0.37072  0.24900  0.11229  Biso   1.000  C
  H72      1.0000 0.37263  0.38589  0.05461  Biso   1.000  H
  H73      1.0000 0.29082  0.35048  0.08501  Biso   1.000  H
  H74      1.0000 0.27802  0.20993  0.21231  Biso   1.000  H
  C41      1.0000 0.17901  0.12939  0.18691  Biso   1.000  C
  C42      1.0000 0.28970  0.19502  0.11720  Biso   1.000  C
  H75      1.0000 0.07431  0.14108  0.16642  Biso   1.000  H
  H76      1.0000 0.14272  0.20539  0.13909  Biso   1.000  H
  H77      1.0000 0.38650  0.24991  0.06822  Biso   1.000  H
  H78      1.0000 0.40622  0.23197  0.13890  Biso   1.000  H
  H79      1.0000 0.16782  0.10550  0.22819  Biso   1.000  H
  H80      1.0000 0.16611  0.09049  0.15429  Biso   1.000  H
  H81      1.0000 0.25319  0.21790  0.09949  Biso   1.000  H
  H82      1.0000 0.28542  0.15169  0.09088  Biso   1.000  H
  C43      1.0000 0.67184  0.68902  0.37228  Biso   1.000  C
  C44      1.0000 0.62525  0.64230  0.31729  Biso   1.000  C
  N17      1.0000 0.69749  0.77243  0.36170  Biso   1.000  N
  H83      1.0000 0.71767  0.67453  0.38061  Biso   1.000  H
  H84      1.0000 0.64136  0.67821  0.41048  Biso   1.000  H
  N18      1.0000 0.67175  0.63789  0.26269  Biso   1.000  N
  H85      1.0000 0.59981  0.59258  0.33259  Biso   1.000  H
  H86      1.0000 0.58522  0.66279  0.30310  Biso   1.000  H
  H87      1.0000 0.71653  0.78198  0.32157  Biso   1.000  H
  C45      1.0000 0.62924  0.80031  0.36680  Biso   1.000  C
  C46      1.0000 0.76017  0.81169  0.41077  Biso   1.000  C
  C47      1.0000 0.67526  0.67242  0.20808  Biso   1.000  C
  C48      1.0000 0.72534  0.59442  0.26298  Biso   1.000  C
  H88      1.0000 0.58565  0.76670  0.34260  Biso   1.000  H
  H89      1.0000 0.61537  0.79830  0.41149  Biso   1.000  H
  C49      1.0000 0.64106  0.87803  0.34308  Biso   1.000  C
  H90      1.0000 0.74298  0.79380  0.45311  Biso   1.000  H
  H91      1.0000 0.76636  0.86418  0.41010  Biso   1.000  H
  C50      1.0000 0.83855  0.80229  0.40129  Biso   1.000  C
  N19      1.0000 0.72623  0.66361  0.16901  Biso   1.000  N
  H92      1.0000 0.64384  0.70100  0.19788  Biso   1.000  H
  C51      1.0000 0.76282  0.61139  0.19788  Biso   1.000  C
  H93      1.0000 0.69767  0.54192  0.26678  Biso   1.000  H
  H94      1.0000 0.76366  0.60992  0.29800  Biso   1.000  H
  N20      1.0000 0.64429  0.88381  0.27409  Biso   1.000  N
  H95      1.0000 0.59908  0.89431  0.35751  Biso   1.000  H
  H96      1.0000 0.68898  0.91089  0.36228  Biso   1.000  H
  N21      1.0000 0.88467  0.84788  0.35241  Biso   1.000  N
  H97      1.0000 0.86786  0.81301  0.44190  Biso   1.000  H
  H98      1.0000 0.83056  0.75078  0.39037  Biso   1.000  H
  C52      1.0000 0.74386  0.69803  0.10729  Biso   1.000  C
  H99      1.0000 0.81853  0.63418  0.20308  Biso   1.000  H
  H100     1.0000 0.75192  0.56679  0.17171  Biso   1.000  H
  C53      1.0000 0.70507  0.91291  0.24051  Biso   1.000  C
  C54      1.0000 0.57738  0.84938  0.22987  Biso   1.000  C
  C55      1.0000 0.89846  0.82539  0.29579  Biso   1.000  C
  C56      1.0000 0.92076  0.92870  0.35718  Biso   1.000  C
  H101     1.0000 0.70266  0.71709  0.09382  Biso   1.000  H
  H102     1.0000 0.74526  0.66059  0.07611  Biso   1.000  H
  C57      1.0000 0.81986  0.76022  0.10748  Biso   1.000  C
  N22      1.0000 0.69320  0.90722  0.17820  Biso   1.000  N
  H103     1.0000 0.75378  0.93619  0.25951  Biso   1.000  H
  C58      1.0000 0.60989  0.86973  0.16440  Biso   1.000  C
  H104     1.0000 0.53557  0.86921  0.23728  Biso   1.000  H
  H105     1.0000 0.55845  0.79602  0.23488  Biso   1.000  H
  N23      1.0000 0.93519  0.87741  0.25802  Biso   1.000  N
  H106     1.0000 0.88307  0.77563  0.28381  Biso   1.000  H
  C59      1.0000 0.95478  0.94970  0.29098  Biso   1.000  C
  H107     1.0000 0.96099  0.94219  0.39100  Biso   1.000  H
  H108     1.0000 0.88257  0.95282  0.36589  Biso   1.000  H
  N24      1.0000 0.82027  0.83148  0.13798  Biso   1.000  N
  H109     1.0000 0.83525  0.76978  0.06341  Biso   1.000  H
  H110     1.0000 0.85875  0.74363  0.12980  Biso   1.000  H
  C60      1.0000 0.75245  0.93029  0.13101  Biso   1.000  C
  H111     1.0000 0.60158  0.82588  0.13760  Biso   1.000  H
  H112     1.0000 0.58627  0.90273  0.14289  Biso   1.000  H
  C61      1.0000 0.95546  0.86751  0.19269  Biso   1.000  C
  H113     1.0000 0.93130  0.98220  0.26889  Biso   1.000  H
  H114     1.0000 0.01038  0.97363  0.29449  Biso   1.000  H
  H115     1.0000 0.80138  0.82220  0.17820  Biso   1.000  H
  C62      1.0000 0.77015  0.86582  0.09911  Biso   1.000  C
  C63      1.0000 0.90175  0.88490  0.14342  Biso   1.000  C
  H116     1.0000 0.79956  0.96268  0.15169  Biso   1.000  H
  H117     1.0000 0.73597  0.95851  0.09810  Biso   1.000  H
  H118     1.0000 0.95417  0.81669  0.18657  Biso   1.000  H
  H119     1.0000 0.00798  0.89942  0.18609  Biso   1.000  H
  H120     1.0000 0.72146  0.82760  0.08838  Biso   1.000  H
  H121     1.0000 0.79528  0.88291  0.05898  Biso   1.000  H
  H122     1.0000 0.89887  0.93369  0.15328  Biso   1.000  H
  H123     1.0000 0.92455  0.88751  0.10171  Biso   1.000  H
  C64      1.0000 0.32822  0.31101  0.62771  Biso   1.000  C
  N25      1.0000 0.30262  0.22760  0.63829  Biso   1.000  N
  H124     1.0000 0.28240  0.32550  0.61938  Biso   1.000  H
  H125     1.0000 0.35871  0.32182  0.58951  Biso   1.000  H
  C65      1.0000 0.37479  0.35768  0.68270  Biso   1.000  C
  C66      1.0000 0.23993  0.18828  0.58917  Biso   1.000  C
  H126     1.0000 0.28351  0.21799  0.67837  Biso   1.000  H
  C67      1.0000 0.37082  0.19972  0.63319  Biso   1.000  C
  N26      1.0000 0.32830  0.36208  0.73730  Biso   1.000  N
  H127     1.0000 0.40023  0.40739  0.66740  Biso   1.000  H
  H128     1.0000 0.41482  0.33719  0.69689  Biso   1.000  H
  H129     1.0000 0.25714  0.20622  0.54688  Biso   1.000  H
  H130     1.0000 0.23368  0.13579  0.58989  Biso   1.000  H
  C68      1.0000 0.16149  0.19768  0.59869  Biso   1.000  C
  H131     1.0000 0.41439  0.23328  0.65739  Biso   1.000  H
  H132     1.0000 0.38470  0.20173  0.58850  Biso   1.000  H
  C69      1.0000 0.35901  0.12200  0.65691  Biso   1.000  C
  C70      1.0000 0.32485  0.32761  0.79191  Biso   1.000  C
  C71      1.0000 0.27472  0.40561  0.73697  Biso   1.000  C
  N27      1.0000 0.11543  0.15210  0.64758  Biso   1.000  N
  H133     1.0000 0.13221  0.18702  0.55809  Biso   1.000  H
  H134     1.0000 0.16953  0.24919  0.60957  Biso   1.000  H
  N28      1.0000 0.35583  0.11622  0.72590  Biso   1.000  N
  H135     1.0000 0.40104  0.10571  0.64248  Biso   1.000  H
  H136     1.0000 0.31112  0.08908  0.63771  Biso   1.000  H
  N29      1.0000 0.27383  0.33642  0.83098  Biso   1.000  N
  H137     1.0000 0.35622  0.29902  0.80211  Biso   1.000  H
  C72      1.0000 0.23723  0.38858  0.80211  Biso   1.000  C
  H138     1.0000 0.30245  0.45811  0.73317  Biso   1.000  H
  H139     1.0000 0.23641  0.39010  0.70199  Biso   1.000  H
  C73      1.0000 0.10158  0.17459  0.70420  Biso   1.000  C
  C74      1.0000 0.07930  0.07133  0.64281  Biso   1.000  C
  C75      1.0000 0.29499  0.08712  0.75948  Biso   1.000  C
  C76      1.0000 0.42272  0.15059  0.77007  Biso   1.000  C
  C77      1.0000 0.25621  0.30200  0.89270  Biso   1.000  C
  H140     1.0000 0.18151  0.36579  0.79686  Biso   1.000  H
  H141     1.0000 0.24813  0.43319  0.82828  Biso   1.000  H
  N30      1.0000 0.06493  0.12262  0.74197  Biso   1.000  N
  H142     1.0000 0.11699  0.22440  0.71618  Biso   1.000  H
  C78      1.0000 0.04534  0.05033  0.70901  Biso   1.000  C
  H143     1.0000 0.03911  0.05778  0.60899  Biso   1.000  H
  H144     1.0000 0.11750  0.04721  0.63410  Biso   1.000  H
  N31      1.0000 0.30692  0.09281  0.82179  Biso   1.000  N
  H145     1.0000 0.24632  0.06378  0.74048  Biso   1.000  H
  C79      1.0000 0.39023  0.13030  0.83559  Biso   1.000  C
  H146     1.0000 0.46450  0.13081  0.76271  Biso   1.000  H
  H147     1.0000 0.44161  0.20401  0.76511  Biso   1.000  H
  H148     1.0000 0.29744  0.28289  0.90617  Biso   1.000  H
  H149     1.0000 0.25484  0.33938  0.92388  Biso   1.000  H
  C80      1.0000 0.18020  0.23980  0.89251  Biso   1.000  C
  C81      1.0000 0.04461  0.13251  0.80730  Biso   1.000  C
  H150     1.0000 0.06880  0.01778  0.73110  Biso   1.000  H
  H151     1.0000 0.98969  0.02640  0.70550  Biso   1.000  H
  C82      1.0000 0.24759  0.06968  0.86898  Biso   1.000  C
  H152     1.0000 0.39852  0.17409  0.86239  Biso   1.000  H
  H153     1.0000 0.41379  0.09730  0.85710  Biso   1.000  H
  N32      1.0000 0.17983  0.16849  0.86201  Biso   1.000  N
  H154     1.0000 0.16480  0.23020  0.93658  Biso   1.000  H
  H155     1.0000 0.14131  0.25640  0.87019  Biso   1.000  H
  H156     1.0000 0.04592  0.18328  0.81337  Biso   1.000  H
  C83      1.0000 0.09831  0.11512  0.85657  Biso   1.000  C
  H157     1.0000 0.99209  0.10061  0.81390  Biso   1.000  H
  H158     1.0000 0.20048  0.03729  0.84830  Biso   1.000  H
  H159     1.0000 0.26410  0.04151  0.90189  Biso   1.000  H
  C84      1.0000 0.22991  0.13421  0.90088  Biso   1.000  C
  H160     1.0000 0.19873  0.17782  0.82179  Biso   1.000  H
  H161     1.0000 0.10118  0.06629  0.84671  Biso   1.000  H
  H162     1.0000 0.07552  0.11251  0.89828  Biso   1.000  H
  H163     1.0000 0.27860  0.17243  0.91161  Biso   1.000  H
  H164     1.0000 0.20484  0.11712  0.94101  Biso   1.000  H
  C85      1.0000 0.72262  0.39129  0.44671  Biso   1.000  C
  C86      1.0000 0.66013  0.31701  0.43209  Biso   1.000  C
  N33      1.0000 0.79365  0.37062  0.45311  Biso   1.000  N
  H165     1.0000 0.71291  0.41329  0.48631  Biso   1.000  H
  H166     1.0000 0.72571  0.42568  0.41178  Biso   1.000  H
  N34      1.0000 0.70641  0.26848  0.41698  Biso   1.000  N
  H167     1.0000 0.62690  0.32048  0.39571  Biso   1.000  H
  H168     1.0000 0.62864  0.29943  0.46908  Biso   1.000  H
  C87      1.0000 0.77866  0.30232  0.43132  Biso   1.000  C
  C88      1.0000 0.86951  0.42081  0.47529  Biso   1.000  C
  C89      1.0000 0.67232  0.19180  0.39759  Biso   1.000  C
  H169     1.0000 0.81685  0.28021  0.42670  Biso   1.000  H
  H170     1.0000 0.90902  0.39900  0.46499  Biso   1.000  H
  H171     1.0000 0.88031  0.46708  0.45229  Biso   1.000  H
  C90      1.0000 0.87392  0.43678  0.54659  Biso   1.000  C
  C91      1.0000 0.62804  0.14330  0.45128  Biso   1.000  C
  H172     1.0000 0.63711  0.18873  0.36088  Biso   1.000  H
  H173     1.0000 0.71281  0.17292  0.38422  Biso   1.000  H
  N35      1.0000 0.88053  0.37572  0.59047  Biso   1.000  N
  H174     1.0000 0.91826  0.48051  0.55568  Biso   1.000  H
  H175     1.0000 0.82813  0.44892  0.55761  Biso   1.000  H
  N36      1.0000 0.67651  0.12899  0.50627  Biso   1.000  N
  H176     1.0000 0.59730  0.09593  0.43247  Biso   1.000  H
  H177     1.0000 0.59242  0.16649  0.46831  Biso   1.000  H
  H178     1.0000 0.84431  0.33248  0.57719  Biso   1.000  H
  C92      1.0000 0.86540  0.39109  0.65907  Biso   1.000  C
  C93      1.0000 0.95934  0.36728  0.58537  Biso   1.000  C
  H179     1.0000 0.71169  0.17268  0.51979  Biso   1.000  H
  C94      1.0000 0.62619  0.09519  0.56141  Biso   1.000  C
  C95      1.0000 0.71908  0.07859  0.48159  Biso   1.000  C
  C96      1.0000 0.78232  0.38052  0.67341  Biso   1.000  C
  H180     1.0000 0.89593  0.44183  0.67009  Biso   1.000  H
  H181     1.0000 0.88376  0.35902  0.68698  Biso   1.000  H
  C97      1.0000 0.96762  0.29580  0.61130  Biso   1.000  C
  H182     1.0000 0.97260  0.37089  0.54048  Biso   1.000  H
  H183     1.0000 0.99674  0.40840  0.60827  Biso   1.000  H
  H184     1.0000 0.58339  0.05361  0.54481  Biso   1.000  H
  H185     1.0000 0.65629  0.07572  0.59148  Biso   1.000  H
  C98      1.0000 0.59340  0.14649  0.59788  Biso   1.000  C
  H186     1.0000 0.68141  0.03090  0.47082  Biso   1.000  H
  H187     1.0000 0.74391  0.09929  0.44229  Biso   1.000  H
  C99      1.0000 0.78052  0.06630  0.52788  Biso   1.000  C
  N37      1.0000 0.73542  0.30370  0.67351  Biso   1.000  N
  H188     1.0000 0.76113  0.40621  0.64127  Biso   1.000  H
  H189     1.0000 0.78023  0.40260  0.71498  Biso   1.000  H
  N38      1.0000 0.93554  0.23238  0.56920  Biso   1.000  N
  H190     1.0000 0.94243  0.28548  0.65219  Biso   1.000  H
  H191     1.0000 0.02212  0.30268  0.61938  Biso   1.000  H
  N39      1.0000 0.65050  0.19878  0.64060  Biso   1.000  N
  H192     1.0000 0.55103  0.11699  0.62328  Biso   1.000  H
  H193     1.0000 0.57253  0.17398  0.56728  Biso   1.000  H
  N40      1.0000 0.85170  0.12967  0.53221  Biso   1.000  N
  H194     1.0000 0.79291  0.02299  0.51368  Biso   1.000  H
  H195     1.0000 0.75939  0.05628  0.57031  Biso   1.000  H
  C100     1.0000 0.68251  0.26940  0.63021  Biso   1.000  C
  C101     1.0000 0.74230  0.25210  0.72350  Biso   1.000  C
  C102     1.0000 0.87089  0.17908  0.57781  Biso   1.000  C
  C103     1.0000 0.96841  0.21881  0.50902  Biso   1.000  C
  C104     1.0000 0.67890  0.18009  0.70228  Biso   1.000  C
  C105     1.0000 0.90983  0.14950  0.48270  Biso   1.000  C
  H196     1.0000 0.66881  0.29310  0.59499  Biso   1.000  H
  H197     1.0000 0.79315  0.24591  0.72441  Biso   1.000  H
  H198     1.0000 0.73271  0.26860  0.76559  Biso   1.000  H
  H199     1.0000 0.84124  0.17693  0.61371  Biso   1.000  H
  H200     1.0000 0.97461  0.25961  0.47957  Biso   1.000  H
  H201     1.0000 0.01821  0.21168  0.51681  Biso   1.000  H
  H202     1.0000 0.63793  0.16612  0.73297  Biso   1.000  H
  H203     1.0000 0.70011  0.13981  0.69761  Biso   1.000  H
  H204     1.0000 0.93280  0.11069  0.47669  Biso   1.000  H
  H205     1.0000 0.88734  0.15849  0.44190  Biso   1.000  H
  C106     1.0000 0.27743  0.60869  0.55328  Biso   1.000  C
  N41      1.0000 0.20647  0.62941  0.54688  Biso   1.000  N
  H206     1.0000 0.28714  0.58668  0.51368  Biso   1.000  H
  H207     1.0000 0.27433  0.57429  0.58821  Biso   1.000  H
  C107     1.0000 0.33994  0.68302  0.56790  Biso   1.000  C
  C108     1.0000 0.13055  0.57921  0.52470  Biso   1.000  C
  C109     1.0000 0.22146  0.69771  0.56867  Biso   1.000  C
  N42      1.0000 0.29363  0.73150  0.58301  Biso   1.000  N
  H208     1.0000 0.37314  0.67949  0.60428  Biso   1.000  H
  H209     1.0000 0.37148  0.70060  0.53091  Biso   1.000  H
  C110     1.0000 0.12613  0.56319  0.45340  Biso   1.000  C
  H210     1.0000 0.09102  0.60098  0.53500  Biso   1.000  H
  H211     1.0000 0.11973  0.53289  0.54770  Biso   1.000  H
  H212     1.0000 0.18327  0.71982  0.57329  Biso   1.000  H
  C111     1.0000 0.32775  0.80823  0.60240  Biso   1.000  C
  N43      1.0000 0.11953  0.62431  0.40947  Biso   1.000  N
  H213     1.0000 0.08186  0.51952  0.44431  Biso   1.000  H
  H214     1.0000 0.17194  0.55111  0.44238  Biso   1.000  H
  C112     1.0000 0.37208  0.85673  0.54871  Biso   1.000  C
  H215     1.0000 0.36295  0.81130  0.63911  Biso   1.000  H
  H216     1.0000 0.28726  0.82711  0.61577  Biso   1.000  H
  C113     1.0000 0.13465  0.60888  0.34092  Biso   1.000  C
  H217     1.0000 0.15573  0.66750  0.42280  Biso   1.000  H
  C114     1.0000 0.04076  0.63270  0.41457  Biso   1.000  C
  N44      1.0000 0.32359  0.87098  0.49372  Biso   1.000  N
  H218     1.0000 0.40276  0.90410  0.56747  Biso   1.000  H
  H219     1.0000 0.40763  0.83348  0.53168  Biso   1.000  H
  C115     1.0000 0.21774  0.61951  0.32658  Biso   1.000  C
  H220     1.0000 0.10413  0.55820  0.32990  Biso   1.000  H
  H221     1.0000 0.11636  0.64101  0.31301  Biso   1.000  H
  C116     1.0000 0.03243  0.70418  0.38869  Biso   1.000  C
  H222     1.0000 0.02745  0.62908  0.45951  Biso   1.000  H
  H223     1.0000 0.00338  0.59163  0.39167  Biso   1.000  H
  C117     1.0000 0.37386  0.90479  0.43858  Biso   1.000  C
  H224     1.0000 0.28836  0.82730  0.48020  Biso   1.000  H
  C118     1.0000 0.28096  0.92138  0.51840  Biso   1.000  C
  N45      1.0000 0.26465  0.69633  0.32648  Biso   1.000  N
  H225     1.0000 0.23894  0.59382  0.35872  Biso   1.000  H
  H226     1.0000 0.21984  0.59742  0.28501  Biso   1.000  H
  N46      1.0000 0.06456  0.76759  0.43079  Biso   1.000  N
  H227     1.0000 0.05767  0.71450  0.34780  Biso   1.000  H
  H228     1.0000 0.97793  0.69729  0.38061  Biso   1.000  H
  C119     1.0000 0.40665  0.85348  0.40211  Biso   1.000  C
  H229     1.0000 0.41668  0.94642  0.45518  Biso   1.000  H
  H230     1.0000 0.34377  0.92430  0.40851  Biso   1.000  H
  H231     1.0000 0.31871  0.96913  0.52917  Biso   1.000  H
  H232     1.0000 0.25614  0.90068  0.55770  Biso   1.000  H
  C120     1.0000 0.21960  0.93373  0.47211  Biso   1.000  C
  C121     1.0000 0.31756  0.73063  0.36978  Biso   1.000  C
  C122     1.0000 0.25775  0.74788  0.27649  Biso   1.000  C
  C123     1.0000 0.12916  0.82090  0.42218  Biso   1.000  C
  C124     1.0000 0.03166  0.78122  0.49097  Biso   1.000  C
  N47      1.0000 0.34955  0.80119  0.35939  Biso   1.000  N
  H233     1.0000 0.44907  0.88299  0.37671  Biso   1.000  H
  H234     1.0000 0.42757  0.82599  0.43271  Biso   1.000  H
  N48      1.0000 0.14835  0.87030  0.46778  Biso   1.000  N
  H235     1.0000 0.20719  0.97698  0.48631  Biso   1.000  H
  H236     1.0000 0.24066  0.94369  0.42968  Biso   1.000  H
  H237     1.0000 0.33125  0.70693  0.40500  Biso   1.000  H
  H238     1.0000 0.20697  0.75412  0.27558  Biso   1.000  H
  H239     1.0000 0.26734  0.73138  0.23440  Biso   1.000  H
  C125     1.0000 0.32114  0.81988  0.29771  Biso   1.000  C
  H240     1.0000 0.15888  0.82310  0.38628  Biso   1.000  H
  H241     1.0000 0.02545  0.74042  0.52037  Biso   1.000  H
  C126     1.0000 0.09029  0.85053  0.51729  Biso   1.000  C
  H242     1.0000 0.98184  0.78830  0.48318  Biso   1.000  H
  H243     1.0000 0.36219  0.83391  0.26702  Biso   1.000  H
  H244     1.0000 0.29996  0.86022  0.30238  Biso   1.000  H
  H245     1.0000 0.06725  0.88928  0.52330  Biso   1.000  H
  H246     1.0000 0.11276  0.84148  0.55809  Biso   1.000  H
  C127     1.0000 0.77232  0.25172  0.21429  Biso   1.000  C
  C128     1.0000 0.69601  0.19220  0.19480  Biso   1.000  C
  N49      1.0000 0.82672  0.24188  0.16632  Biso   1.000  N
  H247     1.0000 0.76744  0.30080  0.21188  Biso   1.000  H
  H248     1.0000 0.78924  0.24381  0.25759  Biso   1.000  H
  N50      1.0000 0.71623  0.15669  0.13789  Biso   1.000  N
  H249     1.0000 0.67834  0.15691  0.22901  Biso   1.000  H
  H250     1.0000 0.65600  0.21419  0.18398  Biso   1.000  H
  C129     1.0000 0.78912  0.18791  0.12648  Biso   1.000  C
  C130     1.0000 0.90722  0.28772  0.16189  Biso   1.000  C
  C131     1.0000 0.66003  0.10030  0.09868  Biso   1.000  C
  H251     1.0000 0.81280  0.17298  0.09252  Biso   1.000  H
  C132     1.0000 0.91695  0.36659  0.14111  Biso   1.000  C
  H252     1.0000 0.93203  0.26497  0.13130  Biso   1.000  H
  H253     1.0000 0.93331  0.28921  0.20351  Biso   1.000  H
  C133     1.0000 0.60131  0.12760  0.06279  Biso   1.000  C
  H254     1.0000 0.63279  0.05992  0.12610  Biso   1.000  H
  H255     1.0000 0.68741  0.08071  0.06769  Biso   1.000  H
  N51      1.0000 0.89525  0.37470  0.07202  Biso   1.000  N
  H256     1.0000 0.88564  0.38651  0.16800  Biso   1.000  H
  H257     1.0000 0.97062  0.39640  0.14900  Biso   1.000  H
  N52      1.0000 0.63130  0.17592  0.00500  Biso   1.000  N
  H258     1.0000 0.58134  0.15570  0.09261  Biso   1.000  H
  H259     1.0000 0.55830  0.08500  0.04830  Biso   1.000  H
  C134     1.0000 0.89212  0.45163  0.06182  Biso   1.000  C
  H260     1.0000 0.84795  0.34120  0.06211  Biso   1.000  H
  C135     1.0000 0.95492  0.36101  0.02930  Biso   1.000  C
  C136     1.0000 0.57491  0.21560  0.98537  Biso   1.000  C
  H261     1.0000 0.67819  0.20959  0.01549  Biso   1.000  H
  C137     1.0000 0.63980  0.12710  0.95020  Biso   1.000  C
  C138     1.0000 0.82013  0.46498  0.08698  Biso   1.000  C
  H262     1.0000 0.89472  0.46182  0.01612  Biso   1.000  H
  H263     1.0000 0.93756  0.48652  0.08290  Biso   1.000  H
  H264     1.0000 0.96492  0.31638  0.04388  Biso   1.000  H
  C139     1.0000 0.93489  0.35229  0.95737  Biso   1.000  C
  H265     1.0000 0.00273  0.40181  0.03560  Biso   1.000  H
  C140     1.0000 0.57303  0.27930  0.02848  Biso   1.000  C
  H266     1.0000 0.52336  0.17956  0.98311  Biso   1.000  H
  H267     1.0000 0.58676  0.23447  0.94241  Biso   1.000  H
  C141     1.0000 0.68677  0.16660  0.89488  Biso   1.000  C
  H268     1.0000 0.66359  0.09197  0.96728  Biso   1.000  H
  H269     1.0000 0.58846  0.09897  0.93351  Biso   1.000  H
  N53      1.0000 0.75036  0.42722  0.04888  Biso   1.000  N
  H270     1.0000 0.81325  0.44840  0.13110  Biso   1.000  H
  H271     1.0000 0.82784  0.51782  0.08708  Biso   1.000  H
  N54      1.0000 0.87940  0.28040  0.93991  Biso   1.000  N
  H272     1.0000 0.91369  0.39079  0.94409  Biso   1.000  H
  H273     1.0000 0.98187  0.35896  0.93428  Biso   1.000  H
  N55      1.0000 0.63960  0.34379  0.02252  Biso   1.000  N
  H274     1.0000 0.52683  0.29209  0.01770  Biso   1.000  H
  H275     1.0000 0.56994  0.26339  0.07279  Biso   1.000  H
  N56      1.0000 0.76849  0.19719  0.91032  Biso   1.000  N
  H276     1.0000 0.67916  0.13208  0.85899  Biso   1.000  H
  H277     1.0000 0.66758  0.20626  0.88121  Biso   1.000  H
  C142     1.0000 0.69400  0.36918  0.06659  Biso   1.000  C
  C143     1.0000 0.73241  0.44975  0.98480  Biso   1.000  C
  C144     1.0000 0.80671  0.26698  0.92129  Biso   1.000  C
  C145     1.0000 0.89918  0.21150  0.93620  Biso   1.000  C
  C146     1.0000 0.65477  0.39236  0.96627  Biso   1.000  C
  C147     1.0000 0.81901  0.15337  0.92721  Biso   1.000  C
  H278     1.0000 0.69311  0.34800  0.10690  Biso   1.000  H
  H279     1.0000 0.77172  0.44850  0.95492  Biso   1.000  H
  H280     1.0000 0.72831  0.49928  0.98590  Biso   1.000  H
  H281     1.0000 0.78427  0.30418  0.91629  Biso   1.000  H
  H282     1.0000 0.92551  0.20348  0.97551  Biso   1.000  H
  H283     1.0000 0.93137  0.21148  0.89988  Biso   1.000  H
  H284     1.0000 0.61479  0.41529  0.95968  Biso   1.000  H
  H285     1.0000 0.65820  0.36528  0.92759  Biso   1.000  H
  H286     1.0000 0.81848  0.11855  0.89300  Biso   1.000  H
  H287     1.0000 0.80325  0.12636  0.96661  Biso   1.000  H
  C148     1.0000 0.22775  0.74831  0.78570  Biso   1.000  C
  N57      1.0000 0.17338  0.75810  0.83367  Biso   1.000  N
  C149     1.0000 0.30405  0.80783  0.80519  Biso   1.000  C
  H288     1.0000 0.23268  0.69923  0.78811  Biso   1.000  H
  H289     1.0000 0.21088  0.75622  0.74240  Biso   1.000  H
  C150     1.0000 0.09284  0.71231  0.83810  Biso   1.000  C
  C151     1.0000 0.21094  0.81211  0.87351  Biso   1.000  C
  N58      1.0000 0.28387  0.84328  0.86210  Biso   1.000  N
  H290     1.0000 0.32178  0.84312  0.77098  Biso   1.000  H
  H291     1.0000 0.34404  0.78579  0.81596  Biso   1.000  H
  C152     1.0000 0.08315  0.63338  0.85888  Biso   1.000  C
  H292     1.0000 0.06807  0.73500  0.86869  Biso   1.000  H
  H293     1.0000 0.06675  0.71082  0.79648  Biso   1.000  H
  H294     1.0000 0.18725  0.82699  0.90747  Biso   1.000  H
  C153     1.0000 0.34009  0.89972  0.90127  Biso   1.000  C
  N59      1.0000 0.10485  0.62528  0.92797  Biso   1.000  N
  H295     1.0000 0.11448  0.61352  0.83199  Biso   1.000  H
  H296     1.0000 0.02944  0.60363  0.85099  Biso   1.000  H
  H297     1.0000 0.36728  0.94011  0.87389  Biso   1.000  H
  H298     1.0000 0.31266  0.91932  0.93230  Biso   1.000  H
  C154     1.0000 0.39876  0.87243  0.93720  Biso   1.000  C
  H299     1.0000 0.15217  0.65883  0.93788  Biso   1.000  H
  C155     1.0000 0.10794  0.54840  0.93817  Biso   1.000  C
  C156     1.0000 0.04514  0.63902  0.97069  Biso   1.000  C
  N60      1.0000 0.36877  0.82411  0.99499  Biso   1.000  N
  H300     1.0000 0.41878  0.84433  0.90738  Biso   1.000  H
  H301     1.0000 0.44176  0.91503  0.95169  Biso   1.000  H
  H302     1.0000 0.10534  0.53821  0.98387  Biso   1.000  H
  H303     1.0000 0.06256  0.51351  0.91709  Biso   1.000  H
  C157     1.0000 0.17991  0.53499  0.91300  Biso   1.000  C
  H304     1.0000 0.03513  0.68360  0.95606  Biso   1.000  H
  H305     1.0000 0.99733  0.59822  0.96439  Biso   1.000  H
  C158     1.0000 0.06517  0.64774  0.04257  Biso   1.000  C
  H306     1.0000 0.32186  0.79038  0.98450  Biso   1.000  H
  C159     1.0000 0.42521  0.78443  0.01457  Biso   1.000  C
  C160     1.0000 0.36032  0.87293  0.04978  Biso   1.000  C
  N61      1.0000 0.24976  0.57281  0.95111  Biso   1.000  N
  H307     1.0000 0.18687  0.55163  0.86889  Biso   1.000  H
  H308     1.0000 0.17223  0.48221  0.91291  Biso   1.000  H
  N62      1.0000 0.12067  0.71963  0.06008  Biso   1.000  N
  H309     1.0000 0.08638  0.60924  0.05589  Biso   1.000  H
  H310     1.0000 0.01818  0.64102  0.06571  Biso   1.000  H
  C161     1.0000 0.42708  0.72072  0.97151  Biso   1.000  C
  H311     1.0000 0.47668  0.82041  0.01688  Biso   1.000  H
  H312     1.0000 0.41328  0.76550  0.05758  Biso   1.000  H
  C162     1.0000 0.31330  0.83343  0.10506  Biso   1.000  C
  H313     1.0000 0.33653  0.90805  0.03271  Biso   1.000  H
  H314     1.0000 0.41161  0.90105  0.06648  Biso   1.000  H
  C163     1.0000 0.30605  0.63079  0.93340  Biso   1.000  C
  C164     1.0000 0.26769  0.55022  0.01519  Biso   1.000  C
  C165     1.0000 0.19341  0.73305  0.07870  Biso   1.000  C
  C166     1.0000 0.10089  0.78853  0.06379  Biso   1.000  C
  N63      1.0000 0.36044  0.65619  0.97747  Biso   1.000  N
  H315     1.0000 0.47327  0.70788  0.98228  Biso   1.000  H
  H316     1.0000 0.43016  0.73659  0.92720  Biso   1.000  H
  N64      1.0000 0.23158  0.80284  0.08967  Biso   1.000  N
  H317     1.0000 0.32090  0.86795  0.14100  Biso   1.000  H
  H318     1.0000 0.33246  0.79371  0.11878  Biso   1.000  H
  H319     1.0000 0.30694  0.65198  0.89309  Biso   1.000  H
  C167     1.0000 0.34528  0.60761  0.03367  Biso   1.000  C
  H320     1.0000 0.22839  0.55152  0.04507  Biso   1.000  H
  H321     1.0000 0.27176  0.50075  0.01409  Biso   1.000  H
  H322     1.0000 0.21579  0.69585  0.08370  Biso   1.000  H
  C168     1.0000 0.18111  0.84666  0.07278  Biso   1.000  C
  H323     1.0000 0.07461  0.79655  0.02448  Biso   1.000  H
  H324     1.0000 0.06869  0.78855  0.10011  Biso   1.000  H
  H325     1.0000 0.38527  0.58473  0.04031  Biso   1.000  H
  H326     1.0000 0.34192  0.63475  0.07240  Biso   1.000  H
  H327     1.0000 0.18162  0.88142  0.10699  Biso   1.000  H
  H328     1.0000 0.19679  0.87362  0.03338  Biso   1.000  H
