data_image0
_cell_length_a       12.938
_cell_length_b       14.613
_cell_length_c       25.703
_cell_angle_alpha    88.61
_cell_angle_beta     89.88
_cell_angle_gamma    76.15

_symmetry_space_group_name_H-M    "P 1"
_symmetry_int_tables_number       1

loop_
  _symmetry_equiv_pos_as_xyz
  'x, y, z'

loop_
  _atom_site_label
  _atom_site_occupancy
  _atom_site_fract_x
  _atom_site_fract_y
  _atom_site_fract_z
  _atom_site_thermal_displace_type
  _atom_site_B_iso_or_equiv
  _atom_site_type_symbol
  N1       1.0000 0.64648  0.18905  0.32551  Biso   1.000  N
  C1       1.0000 0.56227  0.21839  0.28690  Biso   1.000  C
  C2       1.0000 0.74956  0.13334  0.31189  Biso   1.000  C
  C3       1.0000 0.63306  0.25154  0.36439  Biso   1.000  C
  N2       1.0000 0.50035  0.15223  0.27842  Biso   1.000  N
  C4       1.0000 0.48671  0.30079  0.31220  Biso   1.000  C
  H1       1.0000 0.59081  0.23855  0.25339  Biso   1.000  H
  N3       1.0000 0.75566  0.03276  0.31041  Biso   1.000  N
  H2       1.0000 0.80228  0.14405  0.33749  Biso   1.000  H
  H3       1.0000 0.76934  0.15503  0.27741  Biso   1.000  H
  N4       1.0000 0.53859  0.31571  0.35890  Biso   1.000  N
  O1       1.0000 0.69855  0.24973  0.40031  Biso   1.000  O
  C5       1.0000 0.40141  0.17939  0.29862  Biso   1.000  C
  C6       1.0000 0.52984  0.07455  0.24378  Biso   1.000  C
  N5       1.0000 0.39169  0.26472  0.32130  Biso   1.000  N
  H4       1.0000 0.47105  0.35821  0.28889  Biso   1.000  H
  C7       1.0000 0.72022  0.99015  0.26519  Biso   1.000  C
  C8       1.0000 0.83257  0.96882  0.33940  Biso   1.000  C
  C9       1.0000 0.51211  0.40094  0.38711  Biso   1.000  C
  O2       1.0000 0.33096  0.13495  0.29791  Biso   1.000  O
  H5       1.0000 0.46534  0.05281  0.23499  Biso   1.000  H
  H6       1.0000 0.55730  0.09699  0.21121  Biso   1.000  H
  N6       1.0000 0.60870  0.99581  0.26460  Biso   1.000  N
  C10      1.0000 0.29139  0.32155  0.33831  Biso   1.000  C
  H7       1.0000 0.74487  0.01439  0.23179  Biso   1.000  H
  C11      1.0000 0.77082  0.88605  0.27468  Biso   1.000  C
  N7       1.0000 0.84126  0.88297  0.31881  Biso   1.000  N
  O3       1.0000 0.88390  0.98766  0.37540  Biso   1.000  O
  N8       1.0000 0.43317  0.40416  0.42568  Biso   1.000  N
  H8       1.0000 0.57734  0.41013  0.40389  Biso   1.000  H
  H9       1.0000 0.48699  0.45421  0.36201  Biso   1.000  H
  C12      1.0000 0.58629  0.91046  0.27410  Biso   1.000  C
  N9       1.0000 0.28737  0.33986  0.39280  Biso   1.000  N
  H10      1.0000 0.27625  0.38240  0.31870  Biso   1.000  H
  H11      1.0000 0.23454  0.28923  0.32979  Biso   1.000  H
  N10      1.0000 0.67932  0.84664  0.28601  Biso   1.000  N
  H12      1.0000 0.81051  0.85692  0.24339  Biso   1.000  H
  C13      1.0000 0.91868  0.80080  0.33438  Biso   1.000  C
  C14      1.0000 0.31948  0.42203  0.41362  Biso   1.000  C
  C15      1.0000 0.45274  0.40073  0.47760  Biso   1.000  C
  O4       1.0000 0.49780  0.89331  0.27309  Biso   1.000  O
  C16      1.0000 0.21589  0.31274  0.42428  Biso   1.000  C
  C17      1.0000 0.68699  0.74653  0.28659  Biso   1.000  C
  N11      1.0000 0.87894  0.73936  0.37042  Biso   1.000  N
  H13      1.0000 0.97897  0.81994  0.35100  Biso   1.000  H
  H14      1.0000 0.94617  0.76504  0.30309  Biso   1.000  H
  C18      1.0000 0.26770  0.43202  0.46810  Biso   1.000  C
  H15      1.0000 0.29430  0.48005  0.39120  Biso   1.000  H
  N12      1.0000 0.35776  0.41086  0.50360  Biso   1.000  N
  O5       1.0000 0.53946  0.38866  0.49861  Biso   1.000  O
  O6       1.0000 0.16777  0.25216  0.41401  Biso   1.000  O
  N13      1.0000 0.20820  0.35935  0.46989  Biso   1.000  N
  N14      1.0000 0.71720  0.70006  0.33640  Biso   1.000  N
  H16      1.0000 0.73992  0.71725  0.26028  Biso   1.000  H
  H17      1.0000 0.61730  0.73572  0.27620  Biso   1.000  H
  C19      1.0000 0.82561  0.66642  0.35431  Biso   1.000  C
  C20      1.0000 0.89375  0.73843  0.42160  Biso   1.000  C
  H18      1.0000 0.22105  0.49643  0.47320  Biso   1.000  H
  C21      1.0000 0.34499  0.43814  0.55602  Biso   1.000  C
  C22      1.0000 0.11700  0.36651  0.50391  Biso   1.000  C
  C23      1.0000 0.64671  0.67125  0.36789  Biso   1.000  C
  H19      1.0000 0.86946  0.62301  0.32882  Biso   1.000  H
  C24      1.0000 0.81287  0.61356  0.40688  Biso   1.000  C
  N15      1.0000 0.85411  0.66884  0.44452  Biso   1.000  N
  O7       1.0000 0.93728  0.79144  0.44530  Biso   1.000  O
  N16      1.0000 0.29925  0.37666  0.58980  Biso   1.000  N
  H20      1.0000 0.41533  0.44047  0.57011  Biso   1.000  H
  H21      1.0000 0.29877  0.50273  0.55691  Biso   1.000  H
  N17      1.0000 0.14588  0.33124  0.55551  Biso   1.000  N
  H22      1.0000 0.06860  0.33081  0.48888  Biso   1.000  H
  H23      1.0000 0.07779  0.43347  0.50539  Biso   1.000  H
  O8       1.0000 0.55001  0.68427  0.36042  Biso   1.000  O
  N18      1.0000 0.70067  0.62342  0.41019  Biso   1.000  N
  H24      1.0000 0.85339  0.54602  0.40720  Biso   1.000  H
  C25      1.0000 0.88299  0.63357  0.49608  Biso   1.000  C
  C26      1.0000 0.18705  0.38652  0.59311  Biso   1.000  C
  C27      1.0000 0.35328  0.32883  0.63210  Biso   1.000  C
  C28      1.0000 0.10617  0.26164  0.57839  Biso   1.000  C
  C29      1.0000 0.65501  0.56194  0.44401  Biso   1.000  C
  N19      1.0000 0.79179  0.64073  0.53010  Biso   1.000  N
  H25      1.0000 0.93140  0.66927  0.51111  Biso   1.000  H
  H26      1.0000 0.92218  0.56668  0.49461  Biso   1.000  H
  C30      1.0000 0.17438  0.33365  0.64568  Biso   1.000  C
  H27      1.0000 0.14653  0.45406  0.59279  Biso   1.000  H
  N20      1.0000 0.28270  0.30009  0.66359  Biso   1.000  N
  O9       1.0000 0.44996  0.31588  0.63961  Biso   1.000  O
  O10      1.0000 0.06263  0.20864  0.55469  Biso   1.000  O
  N21      1.0000 0.12095  0.26078  0.62961  Biso   1.000  N
  N22      1.0000 0.64216  0.58922  0.49640  Biso   1.000  N
  H28      1.0000 0.58457  0.55968  0.42988  Biso   1.000  H
  H29      1.0000 0.70115  0.49735  0.44312  Biso   1.000  H
  C31      1.0000 0.73229  0.56805  0.53189  Biso   1.000  C
  C32      1.0000 0.78410  0.68734  0.57571  Biso   1.000  C
  H30      1.0000 0.13046  0.37707  0.67121  Biso   1.000  H
  C33      1.0000 0.31293  0.25355  0.71340  Biso   1.000  C
  C34      1.0000 0.08124  0.19928  0.66561  Biso   1.000  C
  C35      1.0000 0.54718  0.59935  0.52239  Biso   1.000  C
  H31      1.0000 0.77886  0.50365  0.52679  Biso   1.000  H
  C36      1.0000 0.68044  0.57804  0.58641  Biso   1.000  C
  N23      1.0000 0.71252  0.66029  0.60719  Biso   1.000  N
  O11      1.0000 0.83214  0.74792  0.58598  Biso   1.000  O
  N24      1.0000 0.32067  0.15344  0.71398  Biso   1.000  N
  H32      1.0000 0.26007  0.28283  0.73971  Biso   1.000  H
  H33      1.0000 0.38262  0.26436  0.72379  Biso   1.000  H
  N25      1.0000 0.15863  0.11718  0.68122  Biso   1.000  N
  H34      1.0000 0.02094  0.18014  0.64899  Biso   1.000  H
  H35      1.0000 0.05374  0.23504  0.69690  Biso   1.000  H
  O12      1.0000 0.46045  0.61141  0.50142  Biso   1.000  O
  N26      1.0000 0.56673  0.59599  0.57431  Biso   1.000  N
  H36      1.0000 0.70569  0.52003  0.60879  Biso   1.000  H
  C37      1.0000 0.70859  0.67859  0.66172  Biso   1.000  C
  C38      1.0000 0.22918  0.11403  0.72531  Biso   1.000  C
  C39      1.0000 0.41360  0.08969  0.72589  Biso   1.000  C
  C40      1.0000 0.16734  0.03126  0.66059  Biso   1.000  C
  C41      1.0000 0.48788  0.59914  0.61291  Biso   1.000  C
  N27      1.0000 0.60822  0.73535  0.67869  Biso   1.000  N
  H37      1.0000 0.72366  0.61768  0.68129  Biso   1.000  H
  H38      1.0000 0.76537  0.71085  0.67020  Biso   1.000  H
  C42      1.0000 0.27977  0.00993  0.73481  Biso   1.000  C
  H39      1.0000 0.18940  0.14316  0.75660  Biso   1.000  H
  O13      1.0000 0.50212  0.10677  0.72690  Biso   1.000  O
  N28      1.0000 0.39121  0.00427  0.73539  Biso   1.000  N
  O14      1.0000 0.11609  0.01242  0.62459  Biso   1.000  O
  N29      1.0000 0.24424  0.96739  0.68958  Biso   1.000  N
  N30      1.0000 0.46132  0.68437  0.64109  Biso   1.000  N
  H40      1.0000 0.42258  0.58995  0.59610  Biso   1.000  H
  H41      1.0000 0.51293  0.54587  0.63802  Biso   1.000  H
  C43      1.0000 0.51329  0.69929  0.68779  Biso   1.000  C
  C44      1.0000 0.59858  0.82069  0.70141  Biso   1.000  C
  H42      1.0000 0.25504  0.98568  0.76820  Biso   1.000  H
  C45      1.0000 0.47005  0.92560  0.75621  Biso   1.000  C
  C46      1.0000 0.25036  0.86674  0.68810  Biso   1.000  C
  C47      1.0000 0.36686  0.74854  0.63560  Biso   1.000  C
  C48      1.0000 0.43765  0.78169  0.71309  Biso   1.000  C
  H43      1.0000 0.52887  0.64187  0.71110  Biso   1.000  H
  N31      1.0000 0.49957  0.84784  0.72161  Biso   1.000  N
  O15      1.0000 0.66896  0.86513  0.70211  Biso   1.000  O
  H44      1.0000 0.53457  0.94727  0.76501  Biso   1.000  H
  H45      1.0000 0.44262  0.90308  0.78878  Biso   1.000  H
  N32      1.0000 0.35343  0.81103  0.67448  Biso   1.000  N
  H46      1.0000 0.19763  0.85603  0.66250  Biso   1.000  H
  H47      1.0000 0.23057  0.84505  0.72258  Biso   1.000  H
  O16      1.0000 0.30136  0.75035  0.59968  Biso   1.000  O
  H48      1.0000 0.40916  0.76159  0.74660  Biso   1.000  H
  O17      1.0000 0.82570  0.13828  0.19241  Biso   1.000  O
  C49      1.0000 0.89440  0.18300  0.18860  Biso   1.000  C
  N33      1.0000 0.88459  0.26798  0.16349  Biso   1.000  N
  N34      1.0000 0.99330  0.15534  0.20988  Biso   1.000  N
  C50      1.0000 0.78239  0.32403  0.14730  Biso   1.000  C
  C51      1.0000 0.97611  0.30501  0.17100  Biso   1.000  C
  C52      1.0000 0.05540  0.22453  0.20082  Biso   1.000  C
  C53      1.0000 0.02296  0.08251  0.24861  Biso   1.000  C
  N35      1.0000 0.77630  0.34428  0.09118  Biso   1.000  N
  H49      1.0000 0.76712  0.38424  0.16591  Biso   1.000  H
  H50      1.0000 0.72719  0.29019  0.15699  Biso   1.000  H
  H51      1.0000 0.95829  0.36371  0.19171  Biso   1.000  H
  N36      1.0000 0.03170  0.31879  0.12391  Biso   1.000  N
  N37      1.0000 0.13965  0.19423  0.16248  Biso   1.000  N
  H52      1.0000 0.08210  0.24591  0.23370  Biso   1.000  H
  H53      1.0000 0.95903  0.06035  0.25869  Biso   1.000  H
  N38      1.0000 0.10468  0.00260  0.23242  Biso   1.000  N
  H54      1.0000 0.04841  0.10911  0.27982  Biso   1.000  H
  C54      1.0000 0.70250  0.31840  0.06130  Biso   1.000  C
  C55      1.0000 0.81018  0.42147  0.06702  Biso   1.000  C
  C56      1.0000 0.00472  0.40081  0.09099  Biso   1.000  C
  C57      1.0000 0.12902  0.25508  0.12068  Biso   1.000  C
  C58      1.0000 0.24429  0.14058  0.17879  Biso   1.000  C
  C59      1.0000 0.08367  0.91401  0.22740  Biso   1.000  C
  C60      1.0000 0.21657  0.00072  0.23179  Biso   1.000  C
  O18      1.0000 0.65035  0.26034  0.07519  Biso   1.000  O
  N39      1.0000 0.69533  0.36392  0.01541  Biso   1.000  N
  C61      1.0000 0.75368  0.43571  0.01452  Biso   1.000  C
  N40      1.0000 0.92372  0.39967  0.05308  Biso   1.000  N
  H55      1.0000 0.78999  0.47952  0.08819  Biso   1.000  H
  H56      1.0000 0.98027  0.45658  0.11290  Biso   1.000  H
  H57      1.0000 0.06960  0.40812  0.07250  Biso   1.000  H
  O19      1.0000 0.19150  0.25321  0.08492  Biso   1.000  O
  N41      1.0000 0.24970  0.04130  0.18451  Biso   1.000  N
  H58      1.0000 0.29741  0.15033  0.15271  Biso   1.000  H
  H59      1.0000 0.26279  0.16453  0.21241  Biso   1.000  H
  O20      1.0000 0.99851  0.89621  0.22981  Biso   1.000  O
  N42      1.0000 0.18005  0.85329  0.21872  Biso   1.000  N
  C62      1.0000 0.26883  0.89442  0.22732  Biso   1.000  C
  H60      1.0000 0.23977  0.02792  0.26378  Biso   1.000  H
  C63      1.0000 0.60594  0.36947  0.98070  Biso   1.000  C
  H61      1.0000 0.70581  0.50017  0.01039  Biso   1.000  H
  N43      1.0000 0.84053  0.42038  0.97719  Biso   1.000  N
  C64      1.0000 0.93679  0.40500  0.00121  Biso   1.000  C
  C65      1.0000 0.32988  0.97611  0.16050  Biso   1.000  C
  C66      1.0000 0.19227  0.75170  0.22249  Biso   1.000  C
  N44      1.0000 0.33952  0.89119  0.18420  Biso   1.000  N
  H62      1.0000 0.30831  0.86824  0.25989  Biso   1.000  H
  N45      1.0000 0.63629  0.33174  0.93042  Biso   1.000  N
  H63      1.0000 0.56693  0.43634  0.97630  Biso   1.000  H
  H64      1.0000 0.55674  0.33478  0.99693  Biso   1.000  H
  C67      1.0000 0.82752  0.44819  0.92220  Biso   1.000  C
  O21      1.0000 0.02341  0.39427  0.97941  Biso   1.000  O
  O22      1.0000 0.38162  0.99371  0.12279  Biso   1.000  O
  N46      1.0000 0.22358  0.70579  0.17529  Biso   1.000  N
  H65      1.0000 0.24624  0.72519  0.24962  Biso   1.000  H
  H66      1.0000 0.12393  0.73873  0.23370  Biso   1.000  H
  C68      1.0000 0.42152  0.80790  0.17248  Biso   1.000  C
  C69      1.0000 0.67354  0.38470  0.88850  Biso   1.000  C
  C70      1.0000 0.60119  0.25745  0.91142  Biso   1.000  C
  N47      1.0000 0.78612  0.38133  0.89282  Biso   1.000  N
  H67      1.0000 0.77824  0.51128  0.91870  Biso   1.000  H
  H68      1.0000 0.89721  0.45249  0.90773  Biso   1.000  H
  C71      1.0000 0.15636  0.66814  0.14551  Biso   1.000  C
  C72      1.0000 0.33463  0.67152  0.15980  Biso   1.000  C
  N48      1.0000 0.38580  0.74413  0.14042  Biso   1.000  N
  H69      1.0000 0.48122  0.82750  0.15501  Biso   1.000  H
  H70      1.0000 0.44900  0.77494  0.20549  Biso   1.000  H
  C73      1.0000 0.66535  0.32855  0.84020  Biso   1.000  C
  H71      1.0000 0.62942  0.45074  0.88519  Biso   1.000  H
  O23      1.0000 0.56012  0.20454  0.93800  Biso   1.000  O
  N49      1.0000 0.61410  0.25594  0.85962  Biso   1.000  N
  C74      1.0000 0.84354  0.33193  0.85453  Biso   1.000  C
  O24      1.0000 0.06183  0.67949  0.15341  Biso   1.000  O
  N50      1.0000 0.21378  0.61874  0.10722  Biso   1.000  N
  H72      1.0000 0.37787  0.63123  0.18782  Biso   1.000  H
  C75      1.0000 0.32642  0.61544  0.11150  Biso   1.000  C
  C76      1.0000 0.39871  0.74262  0.08862  Biso   1.000  C
  N51      1.0000 0.77632  0.29428  0.82471  Biso   1.000  N
  H73      1.0000 0.62204  0.36884  0.81222  Biso   1.000  H
  C77      1.0000 0.57838  0.19217  0.82752  Biso   1.000  C
  O25      1.0000 0.93808  0.32058  0.84663  Biso   1.000  O
  C78      1.0000 0.17239  0.55188  0.07780  Biso   1.000  C
  N52      1.0000 0.36362  0.66833  0.06958  Biso   1.000  N
  H74      1.0000 0.37048  0.54933  0.11481  Biso   1.000  H
  O26      1.0000 0.43978  0.79553  0.06200  Biso   1.000  O
  C79      1.0000 0.80763  0.24837  0.77751  Biso   1.000  C
  N53      1.0000 0.66038  0.10888  0.81580  Biso   1.000  N
  H75      1.0000 0.51868  0.17257  0.84499  Biso   1.000  H
  H76      1.0000 0.55090  0.22513  0.79451  Biso   1.000  H
  N54      1.0000 0.15946  0.57970  0.02281  Biso   1.000  N
  H77      1.0000 0.22174  0.48879  0.08130  Biso   1.000  H
  H78      1.0000 0.10267  0.54765  0.09231  Biso   1.000  H
  C80      1.0000 0.39405  0.63060  0.01930  Biso   1.000  C
  N55      1.0000 0.81994  0.14678  0.78132  Biso   1.000  N
  H79      1.0000 0.75374  0.27487  0.75042  Biso   1.000  H
  H80      1.0000 0.87605  0.26134  0.76630  Biso   1.000  H
  C81      1.0000 0.73115  0.10565  0.77272  Biso   1.000  C
  C82      1.0000 0.67003  0.02396  0.83950  Biso   1.000  C
  C83      1.0000 0.06311  0.59507  0.99879  Biso   1.000  C
  C84      1.0000 0.24623  0.56436  0.98552  Biso   1.000  C
  N56      1.0000 0.30465  0.63615  0.98463  Biso   1.000  N
  H81      1.0000 0.43298  0.56373  0.02370  Biso   1.000  H
  H82      1.0000 0.44324  0.66529  0.00311  Biso   1.000  H
  C85      1.0000 0.91623  0.08606  0.77260  Biso   1.000  C
  C86      1.0000 0.78333  0.99935  0.76821  Biso   1.000  C
  H83      1.0000 0.69159  0.13183  0.74011  Biso   1.000  H
  N57      1.0000 0.75021  0.95877  0.81549  Biso   1.000  N
  O27      1.0000 0.61828  0.00636  0.87721  Biso   1.000  O
  N58      1.0000 0.07619  0.60040  0.94692  Biso   1.000  N
  O28      1.0000 0.97649  0.60580  0.02059  Biso   1.000  O
  C87      1.0000 0.18973  0.57860  0.93302  Biso   1.000  C
  H84      1.0000 0.29409  0.49990  0.98961  Biso   1.000  H
  C88      1.0000 0.29741  0.68167  0.93870  Biso   1.000  C
  N59      1.0000 0.89522  0.99747  0.76762  Biso   1.000  N
  O29      1.0000 0.00140  0.10386  0.77019  Biso   1.000  O
  H85      1.0000 0.76013  0.97215  0.73622  Biso   1.000  H
  C89      1.0000 0.75561  0.85949  0.82121  Biso   1.000  C
  C90      1.0000 0.99526  0.59926  0.90901  Biso   1.000  C
  N60      1.0000 0.22360  0.65579  0.90882  Biso   1.000  N
  H86      1.0000 0.20992  0.52055  0.91181  Biso   1.000  H
  O30      1.0000 0.34953  0.73980  0.92481  Biso   1.000  O
  C91      1.0000 0.97695  0.91756  0.75139  Biso   1.000  C
  N61      1.0000 0.86025  0.80584  0.83752  Biso   1.000  N
  H87      1.0000 0.70257  0.84973  0.84733  Biso   1.000  H
  H88      1.0000 0.73711  0.83554  0.78763  Biso   1.000  H
  N62      1.0000 0.96820  0.68128  0.87612  Biso   1.000  N
  H89      1.0000 0.93030  0.59195  0.92750  Biso   1.000  H
  H90      1.0000 0.01963  0.54349  0.88710  Biso   1.000  H
  C92      1.0000 0.21751  0.67604  0.85270  Biso   1.000  C
  H91      1.0000 0.95158  0.89096  0.72022  Biso   1.000  H
  N63      1.0000 0.00668  0.84473  0.79012  Biso   1.000  N
  H92      1.0000 0.04085  0.93979  0.74131  Biso   1.000  H
  C93      1.0000 0.94450  0.77554  0.79922  Biso   1.000  C
  C94      1.0000 0.87089  0.74499  0.87932  Biso   1.000  C
  C95      1.0000 0.02380  0.69507  0.82900  Biso   1.000  C
  N64      1.0000 0.11532  0.73209  0.83651  Biso   1.000  N
  H93      1.0000 0.23284  0.61590  0.83409  Biso   1.000  H
  H94      1.0000 0.27271  0.70988  0.84301  Biso   1.000  H
  C96      1.0000 0.10551  0.81707  0.81140  Biso   1.000  C
  H95      1.0000 0.91780  0.75416  0.76630  Biso   1.000  H
  O31      1.0000 0.80840  0.74686  0.91512  Biso   1.000  O
  H96      1.0000 0.04161  0.63636  0.80829  Biso   1.000  H
  O32      1.0000 0.17420  0.86179  0.80759  Biso   1.000  O
  Ne1      1.0000 0.49997  0.00005  0.50000  Biso   1.000  Ne
  He1      1.0000 0.71707  0.07969  0.56107  Biso   1.000  He
  He2      1.0000 0.33437  0.93462  0.45098  Biso   1.000  He
  Ar1      1.0000 0.49998  0.00004  0.50000  Biso   1.000  Ar
  Ne2      1.0000 0.99996  0.00004  0.00001  Biso   1.000  Ne
  He3      1.0000 0.82346  0.92039  0.06337  Biso   1.000  He
  He4      1.0000 0.18925  0.08347  0.93346  Biso   1.000  He
  Ar2      1.0000 0.99996  0.00003  0.00000  Biso   1.000  Ar
