data_image0
_cell_length_a       15.714
_cell_length_b       15.917
_cell_length_c       30.102
_cell_angle_alpha    90
_cell_angle_beta     90.55
_cell_angle_gamma    90

_symmetry_space_group_name_H-M    "P 1"
_symmetry_int_tables_number       1

loop_
  _symmetry_equiv_pos_as_xyz
  'x, y, z'

loop_
  _atom_site_label
  _atom_site_occupancy
  _atom_site_fract_x
  _atom_site_fract_y
  _atom_site_fract_z
  _atom_site_thermal_displace_type
  _atom_site_B_iso_or_equiv
  _atom_site_type_symbol
  C1       1.0000 0.58010  0.51662  0.51820  Biso   1.000  C
  C2       1.0000 0.60758  0.54577  0.56221  Biso   1.000  C
  Br1      1.0000 0.67362  0.49683  0.47859  Biso   1.000  Br
  C3       1.0000 0.53429  0.55042  0.59481  Biso   1.000  C
  O1       1.0000 0.64482  0.62952  0.55590  Biso   1.000  O
  O2       1.0000 0.50301  0.46711  0.60640  Biso   1.000  O
  C4       1.0000 0.56218  0.59578  0.63730  Biso   1.000  C
  C5       1.0000 0.67260  0.66991  0.59610  Biso   1.000  C
  C6       1.0000 0.41927  0.43922  0.59321  Biso   1.000  C
  C7       1.0000 0.60082  0.67538  0.62720  Biso   1.000  C
  O3       1.0000 0.48850  0.59873  0.66560  Biso   1.000  O
  O4       1.0000 0.73861  0.62173  0.61779  Biso   1.000  O
  O5       1.0000 0.42730  0.38343  0.55570  Biso   1.000  O
  C8       1.0000 0.37961  0.40573  0.63068  Biso   1.000  C
  O6       1.0000 0.63101  0.72143  0.66670  Biso   1.000  O
  C9       1.0000 0.82067  0.66168  0.61630  Biso   1.000  C
  C10      1.0000 0.47250  0.30741  0.56710  Biso   1.000  C
  C11      1.0000 0.42238  0.32022  0.64490  Biso   1.000  C
  O7       1.0000 0.36877  0.45907  0.66740  Biso   1.000  O
  C12      1.0000 0.85291  0.64491  0.66331  Biso   1.000  C
  C13      1.0000 0.87733  0.60702  0.58600  Biso   1.000  C
  C14      1.0000 0.46019  0.25589  0.52431  Biso   1.000  C
  C15      1.0000 0.43160  0.26293  0.60600  Biso   1.000  C
  O8       1.0000 0.38443  0.27951  0.68132  Biso   1.000  O
  C16      1.0000 0.94310  0.67563  0.66759  Biso   1.000  C
  O9       1.0000 0.80507  0.69881  0.69181  Biso   1.000  O
  C17      1.0000 0.86222  0.61940  0.53590  Biso   1.000  C
  O10      1.0000 0.96560  0.63121  0.58999  Biso   1.000  O
  Br2      1.0000 0.51659  0.30087  0.47301  Biso   1.000  Br
  O11      1.0000 0.48729  0.19501  0.62049  Biso   1.000  O
  C18      1.0000 0.99619  0.62832  0.63391  Biso   1.000  C
  O12      1.0000 0.98379  0.66922  0.71028  Biso   1.000  O
  Br3      1.0000 0.91753  0.53270  0.50178  Biso   1.000  Br
  C19      1.0000 0.45910  0.11309  0.61341  Biso   1.000  C
  O13      1.0000 0.99781  0.53867  0.64939  Biso   1.000  O
  C20      1.0000 0.45468  0.06427  0.65331  Biso   1.000  C
  O14      1.0000 0.50920  0.07168  0.57989  Biso   1.000  O
  C21      1.0000 0.07811  0.49557  0.65550  Biso   1.000  C
  C22      1.0000 0.54443  0.05083  0.67181  Biso   1.000  C
  O15      1.0000 0.40661  0.10542  0.68670  Biso   1.000  O
  C23      1.0000 0.59542  0.05868  0.59321  Biso   1.000  C
  C24      1.0000 0.08521  0.45813  0.70271  Biso   1.000  C
  C25      1.0000 0.08940  0.42219  0.62251  Biso   1.000  C
  C26      1.0000 0.59889  0.01068  0.63640  Biso   1.000  C
  O16      1.0000 0.54927  0.99717  0.71048  Biso   1.000  O
  C27      1.0000 0.64198  0.01621  0.55381  Biso   1.000  C
  C28      1.0000 0.16912  0.40428  0.70779  Biso   1.000  C
  O17      1.0000 0.08221  0.52868  0.73341  Biso   1.000  O
  C29      1.0000 0.08292  0.45630  0.57809  Biso   1.000  C
  O18      1.0000 0.16721  0.37438  0.62819  Biso   1.000  O
  O19      1.0000 0.68710  0.00019  0.65068  Biso   1.000  O
  Br4      1.0000 0.65351  0.09832  0.50620  Biso   1.000  Br
  C30      1.0000 0.17469  0.33681  0.67181  Biso   1.000  C
  O20      1.0000 0.16572  0.37118  0.75121  Biso   1.000  O
  Br5      1.0000 0.17861  0.51410  0.55600  Biso   1.000  Br
  Br6      1.0000 0.13427  0.40008  0.52939  Biso   1.000  Br
  C31      1.0000 0.73108  0.92228  0.65151  Biso   1.000  C
  O21      1.0000 0.09521  0.29289  0.67849  Biso   1.000  O
  C32      1.0000 0.76778  0.90890  0.69530  Biso   1.000  C
  O22      1.0000 0.79332  0.92298  0.61680  Biso   1.000  O
  C33      1.0000 0.12008  0.20532  0.67809  Biso   1.000  C
  C34      1.0000 0.83383  0.97028  0.70540  Biso   1.000  C
  O23      1.0000 0.70490  0.90117  0.72969  Biso   1.000  O
  C35      1.0000 0.85578  0.98838  0.62201  Biso   1.000  C
  C36      1.0000 0.08639  0.16077  0.71819  Biso   1.000  C
  C37      1.0000 0.06970  0.16391  0.63789  Biso   1.000  C
  C38      1.0000 0.89299  0.98222  0.66929  Biso   1.000  C
  O24      1.0000 0.87290  0.95483  0.75028  Biso   1.000  O
  C39      1.0000 0.90603  0.97380  0.58251  Biso   1.000  C
  C40      1.0000 0.09177  0.06421  0.71690  Biso   1.000  C
  O25      1.0000 0.12801  0.19803  0.75640  Biso   1.000  O
  O26      1.0000 0.08001  0.07200  0.63769  Biso   1.000  O
  C41      1.0000 0.09602  0.19237  0.59142  Biso   1.000  C
  O27      1.0000 0.95877  0.04467  0.67869  Biso   1.000  O
  Br7      1.0000 0.96801  0.87052  0.57909  Biso   1.000  Br
  C42      1.0000 0.04562  0.02909  0.67769  Biso   1.000  C
  O28      1.0000 0.05532  0.02369  0.75570  Biso   1.000  O
  Br8      1.0000 0.21383  0.16781  0.58192  Biso   1.000  Br
  O29      1.0000 0.49080  0.57172  0.42009  Biso   1.000  O
  C43      1.0000 0.40458  0.55871  0.40680  Biso   1.000  C
  C44      1.0000 0.54090  0.61312  0.38660  Biso   1.000  C
  C45      1.0000 0.40111  0.51071  0.36361  Biso   1.000  C
  C46      1.0000 0.35802  0.51618  0.44620  Biso   1.000  C
  C47      1.0000 0.54532  0.56430  0.34670  Biso   1.000  C
  O30      1.0000 0.51271  0.69498  0.37949  Biso   1.000  O
  O31      1.0000 0.31290  0.50022  0.34930  Biso   1.000  O
  C48      1.0000 0.45557  0.55079  0.32820  Biso   1.000  C
  Br9      1.0000 0.34649  0.59829  0.49381  Biso   1.000  Br
  O32      1.0000 0.59339  0.60539  0.31332  Biso   1.000  O
  C49      1.0000 0.56840  0.76290  0.39401  Biso   1.000  C
  C50      1.0000 0.26891  0.42232  0.34850  Biso   1.000  C
  O33      1.0000 0.45072  0.49720  0.28950  Biso   1.000  O
  C51      1.0000 0.57761  0.82019  0.35511  Biso   1.000  C
  C52      1.0000 0.52750  0.80738  0.43291  Biso   1.000  C
  C53      1.0000 0.23222  0.40887  0.30471  Biso   1.000  C
  O34      1.0000 0.20668  0.42301  0.38321  Biso   1.000  O
  C54      1.0000 0.62038  0.90570  0.36929  Biso   1.000  C
  O35      1.0000 0.61557  0.77948  0.31870  Biso   1.000  O
  C55      1.0000 0.53980  0.75592  0.47570  Biso   1.000  C
  O36      1.0000 0.57270  0.88340  0.44431  Biso   1.000  O
  O37      1.0000 0.29509  0.40121  0.27029  Biso   1.000  O
  C56      1.0000 0.16623  0.47031  0.29461  Biso   1.000  C
  C57      1.0000 0.14422  0.48841  0.37800  Biso   1.000  C
  C58      1.0000 0.58073  0.93918  0.40680  Biso   1.000  C
  O38      1.0000 0.63123  0.95910  0.33258  Biso   1.000  O
  Br10     1.0000 0.48341  0.80090  0.52700  Biso   1.000  Br
  C59      1.0000 0.10701  0.48219  0.33069  Biso   1.000  C
  O39      1.0000 0.12709  0.45480  0.24970  Biso   1.000  O
  C60      1.0000 0.09397  0.47377  0.41750  Biso   1.000  C
  O40      1.0000 0.49699  0.96708  0.39361  Biso   1.000  O
  O41      1.0000 0.04123  0.54470  0.32129  Biso   1.000  O
  Br11     1.0000 0.03199  0.37048  0.42089  Biso   1.000  Br
  C61      1.0000 0.46570  0.05039  0.40521  Biso   1.000  C
  C62      1.0000 0.95438  0.52912  0.32229  Biso   1.000  C
  C63      1.0000 0.43781  0.09581  0.36268  Biso   1.000  C
  C64      1.0000 0.39242  0.04580  0.43780  Biso   1.000  C
  C65      1.0000 0.90822  0.56418  0.28308  Biso   1.000  C
  O42      1.0000 0.91999  0.57203  0.36228  Biso   1.000  O
  C66      1.0000 0.39918  0.17541  0.37282  Biso   1.000  C
  O43      1.0000 0.51149  0.09870  0.33441  Biso   1.000  O
  C67      1.0000 0.41989  0.01659  0.48178  Biso   1.000  C
  O44      1.0000 0.35518  0.12948  0.44411  Biso   1.000  O
  C68      1.0000 0.91361  0.66080  0.28179  Biso   1.000  C
  O45      1.0000 0.94467  0.52372  0.24431  Biso   1.000  O
  C69      1.0000 0.93029  0.66388  0.36209  Biso   1.000  C
  C70      1.0000 0.32740  0.16988  0.40391  Biso   1.000  C
  O46      1.0000 0.36899  0.22140  0.33332  Biso   1.000  O
  Br12     1.0000 0.32637  0.99680  0.52138  Biso   1.000  Br
  C71      1.0000 0.87992  0.70528  0.32189  Biso   1.000  C
  O47      1.0000 0.87199  0.69800  0.24362  Biso   1.000  O
  C72      1.0000 0.90398  0.69240  0.40860  Biso   1.000  C
  O48      1.0000 0.26139  0.12169  0.38218  Biso   1.000  O
  O49      1.0000 0.90479  0.79293  0.32149  Biso   1.000  O
  Br13     1.0000 0.78623  0.66778  0.41810  Biso   1.000  Br
  C73      1.0000 0.17932  0.16171  0.38371  Biso   1.000  C
  C74      1.0000 0.82530  0.83678  0.32820  Biso   1.000  C
  C75      1.0000 0.14708  0.14488  0.33670  Biso   1.000  C
  C76      1.0000 0.12267  0.10699  0.41401  Biso   1.000  C
  C77      1.0000 0.83088  0.90432  0.29219  Biso   1.000  C
  O50      1.0000 0.83279  0.87441  0.37179  Biso   1.000  O
  C78      1.0000 0.05689  0.17560  0.33239  Biso   1.000  C
  O51      1.0000 0.19493  0.19878  0.30820  Biso   1.000  O
  O52      1.0000 0.03439  0.13118  0.40999  Biso   1.000  O
  C79      1.0000 0.13778  0.11937  0.46411  Biso   1.000  C
  C80      1.0000 0.91478  0.95810  0.29730  Biso   1.000  C
  O53      1.0000 0.83428  0.87121  0.24880  Biso   1.000  O
  C81      1.0000 0.91059  0.92222  0.37750  Biso   1.000  C
  C82      1.0000 0.00380  0.12829  0.36611  Biso   1.000  C
  O54      1.0000 0.01621  0.16919  0.28970  Biso   1.000  O
  Br14     1.0000 0.08247  0.03267  0.49820  Biso   1.000  Br
  C83      1.0000 0.92189  0.99560  0.34451  Biso   1.000  C
  O55      1.0000 0.91778  0.02871  0.26661  Biso   1.000  O
  C84      1.0000 0.91707  0.95627  0.42189  Biso   1.000  C
  O56      1.0000 0.00218  0.03870  0.35059  Biso   1.000  O
  Br15     1.0000 0.86572  0.90011  0.47059  Biso   1.000  Br
  Br16     1.0000 0.82139  0.01407  0.44401  Biso   1.000  Br
  O57      1.0000 0.52639  0.65571  0.75331  Biso   1.000  O
  C85      1.0000 0.49729  0.60533  0.79032  Biso   1.000  C
  C86      1.0000 0.39817  0.58799  0.79201  Biso   1.000  C
  C87      1.0000 0.51509  0.65182  0.83450  Biso   1.000  C
  C88      1.0000 0.36972  0.53798  0.83331  Biso   1.000  C
  O58      1.0000 0.37298  0.54520  0.75091  Biso   1.000  O
  C89      1.0000 0.48201  0.60539  0.87669  Biso   1.000  C
  O59      1.0000 0.60788  0.66181  0.83829  Biso   1.000  O
  O60      1.0000 0.41092  0.45461  0.83460  Biso   1.000  O
  O61      1.0000 0.39473  0.58673  0.87121  Biso   1.000  O
  C90      1.0000 0.50121  0.64648  0.91709  Biso   1.000  C
  C91      1.0000 0.64081  0.74241  0.84360  Biso   1.000  C
  C92      1.0000 0.35238  0.38280  0.84211  Biso   1.000  C
  Br17     1.0000 0.45328  0.75768  0.92320  Biso   1.000  Br
  C93      1.0000 0.70687  0.74920  0.80899  Biso   1.000  C
  O62      1.0000 0.67851  0.74631  0.88609  Biso   1.000  O
  C94      1.0000 0.36749  0.32871  0.80211  Biso   1.000  C
  C95      1.0000 0.38313  0.35038  0.88410  Biso   1.000  C
  C96      1.0000 0.78622  0.69712  0.81540  Biso   1.000  C
  O63      1.0000 0.67283  0.74612  0.76410  Biso   1.000  O
  C97      1.0000 0.74961  0.69328  0.89739  Biso   1.000  C
  O64      1.0000 0.34447  0.36332  0.76161  Biso   1.000  O
  C98      1.0000 0.32689  0.24257  0.81221  Biso   1.000  C
  O65      1.0000 0.34059  0.27021  0.88962  Biso   1.000  O
  C99      1.0000 0.36082  0.39850  0.92380  Biso   1.000  C
  C100     1.0000 0.81009  0.70158  0.86101  Biso   1.000  C
  O66      1.0000 0.85019  0.70371  0.78151  Biso   1.000  O
  C101     1.0000 0.75563  0.70660  0.94799  Biso   1.000  C
  C102     1.0000 0.34982  0.20858  0.85480  Biso   1.000  C
  O67      1.0000 0.34038  0.18559  0.77440  Biso   1.000  O
  Br18     1.0000 0.42002  0.36452  0.97679  Biso   1.000  Br
  O68      1.0000 0.87947  0.63127  0.86510  Biso   1.000  O
  Br19     1.0000 0.82508  0.80411  0.95619  Biso   1.000  Br
  O69      1.0000 0.43511  0.18402  0.85251  Biso   1.000  O
  C103     1.0000 0.96117  0.64849  0.88530  Biso   1.000  C
  C104     1.0000 0.46130  0.09719  0.86490  Biso   1.000  C
  O70      1.0000 0.96367  0.60728  0.92799  Biso   1.000  O
  C105     1.0000 0.02507  0.61657  0.85799  Biso   1.000  C
  C106     1.0000 0.51889  0.06333  0.82988  Biso   1.000  C
  C107     1.0000 0.50688  0.10021  0.91061  Biso   1.000  C
  C108     1.0000 0.95601  0.52001  0.92659  Biso   1.000  C
  C109     1.0000 0.03089  0.52032  0.85281  Biso   1.000  C
  O71      1.0000 0.02459  0.65571  0.81490  Biso   1.000  O
  O72      1.0000 0.46582  0.05793  0.78859  Biso   1.000  O
  C110     1.0000 0.54770  0.97600  0.84281  Biso   1.000  C
  C111     1.0000 0.45651  0.12729  0.94659  Biso   1.000  C
  O73      1.0000 0.53790  0.01627  0.91898  Biso   1.000  O
  C112     1.0000 0.96538  0.49117  0.97260  Biso   1.000  C
  C113     1.0000 0.02772  0.48319  0.90161  Biso   1.000  C
  O74      1.0000 0.10249  0.48652  0.82909  Biso   1.000  O
  C114     1.0000 0.59580  0.98128  0.88709  Biso   1.000  C
  O75      1.0000 0.60583  0.94522  0.80968  Biso   1.000  O
  Br20     1.0000 0.35933  0.06283  0.96041  Biso   1.000  Br
  Br21     1.0000 0.87098  0.52353  0.00912  Biso   1.000  Br
  O76      1.0000 0.01961  0.39549  0.89320  Biso   1.000  O
  O77      1.0000 0.66620  0.03719  0.88121  Biso   1.000  O
  C115     1.0000 0.08367  0.34221  0.91290  Biso   1.000  C
  C116     1.0000 0.74251  0.99881  0.89570  Biso   1.000  C
  O78      1.0000 0.04581  0.30383  0.95111  Biso   1.000  O
  C117     1.0000 0.10521  0.27800  0.87972  Biso   1.000  C
  C118     1.0000 0.80748  0.00741  0.85739  Biso   1.000  C
  C119     1.0000 0.77780  0.04649  0.93570  Biso   1.000  C
  C120     1.0000 0.97529  0.24841  0.94370  Biso   1.000  C
  C121     1.0000 0.03273  0.21662  0.86972  Biso   1.000  C
  O79      1.0000 0.13871  0.31388  0.83968  Biso   1.000  O
  C122     1.0000 0.89901  0.99139  0.87221  Biso   1.000  C
  O80      1.0000 0.78062  0.95891  0.81919  Biso   1.000  O
  C123     1.0000 0.73048  0.02199  0.97849  Biso   1.000  C
  O81      1.0000 0.86459  0.02840  0.94550  Biso   1.000  O
  C124     1.0000 0.99711  0.18012  0.91231  Biso   1.000  C
  C125     1.0000 0.95589  0.20990  0.98912  Biso   1.000  C
  O82      1.0000 0.06379  0.15480  0.83899  Biso   1.000  O
  C126     1.0000 0.92620  0.04278  0.91111  Biso   1.000  C
  O83      1.0000 0.95958  0.00283  0.83699  Biso   1.000  O
  Br22     1.0000 0.75418  0.09210  0.02872  Biso   1.000  Br
  O84      1.0000 0.92493  0.12999  0.90091  Biso   1.000  O
  Br23     1.0000 0.91089  0.29038  0.03021  Biso   1.000  Br
  O85      1.0000 0.53418  0.55789  0.21139  Biso   1.000  O
  C127     1.0000 0.48111  0.56330  0.17010  Biso   1.000  C
  C128     1.0000 0.45230  0.47597  0.15721  Biso   1.000  C
  C129     1.0000 0.53869  0.59722  0.13511  Biso   1.000  C
  C130     1.0000 0.40420  0.48131  0.11289  Biso   1.000  C
  O86      1.0000 0.39417  0.44518  0.19030  Biso   1.000  O
  C131     1.0000 0.49312  0.60018  0.08940  Biso   1.000  C
  O87      1.0000 0.56489  0.68399  0.14751  Biso   1.000  O
  O88      1.0000 0.33380  0.53722  0.11880  Biso   1.000  O
  O89      1.0000 0.46210  0.51630  0.08100  Biso   1.000  O
  C132     1.0000 0.54349  0.62732  0.05339  Biso   1.000  C
  C133     1.0000 0.65018  0.70861  0.14521  Biso   1.000  C
  C134     1.0000 0.25749  0.49877  0.10428  Biso   1.000  C
  Br24     1.0000 0.64073  0.56279  0.03960  Biso   1.000  Br
  C135     1.0000 0.67311  0.74260  0.18780  Biso   1.000  C
  O90      1.0000 0.65941  0.77018  0.11040  Biso   1.000  O
  C136     1.0000 0.19252  0.50738  0.14259  Biso   1.000  C
  C137     1.0000 0.22220  0.54652  0.06428  Biso   1.000  C
  C138     1.0000 0.63251  0.82867  0.19790  Biso   1.000  C
  O91      1.0000 0.65962  0.68562  0.22561  Biso   1.000  O
  C139     1.0000 0.61687  0.85041  0.11591  Biso   1.000  C
  O92      1.0000 0.21937  0.45888  0.18079  Biso   1.000  O
  C140     1.0000 0.10099  0.49142  0.12780  Biso   1.000  C
  O93      1.0000 0.13540  0.52843  0.05448  Biso   1.000  O
  C141     1.0000 0.26952  0.52202  0.02149  Biso   1.000  C
  C142     1.0000 0.64762  0.88283  0.15790  Biso   1.000  C
  O94      1.0000 0.65552  0.86329  0.23840  Biso   1.000  O
  C143     1.0000 0.63918  0.89847  0.07621  Biso   1.000  C
  C144     1.0000 0.07380  0.54282  0.08890  Biso   1.000  C
  O95      1.0000 0.04042  0.50280  0.16299  Biso   1.000  O
  Br25     1.0000 0.24581  0.59207  0.97130  Biso   1.000  Br
  O96      1.0000 0.58908  0.95458  0.16541  Biso   1.000  O
  Br26     1.0000 0.57997  0.86448  0.02319  Biso   1.000  Br
  O97      1.0000 0.07507  0.63002  0.09910  Biso   1.000  O
  C145     1.0000 0.63028  0.03801  0.16671  Biso   1.000  C
  C146     1.0000 0.00289  0.68009  0.08771  Biso   1.000  C
  C147     1.0000 0.60183  0.08802  0.20800  Biso   1.000  C
  O98      1.0000 0.60527  0.08670  0.12880  Biso   1.000  O
  C148     1.0000 0.02471  0.74838  0.05631  Biso   1.000  C
  C149     1.0000 0.96733  0.71659  0.13030  Biso   1.000  C
  C150     1.0000 0.50271  0.10530  0.20970  Biso   1.000  C
  O99      1.0000 0.62702  0.04517  0.24910  Biso   1.000  O
  C151     1.0000 0.51799  0.10542  0.12329  Biso   1.000  C
  C152     1.0000 0.04411  0.70987  0.01090  Biso   1.000  C
  O100     1.0000 0.95419  0.80379  0.04890  Biso   1.000  O
  C153     1.0000 0.89479  0.77797  0.12030  Biso   1.000  C
  O101     1.0000 0.93620  0.65477  0.16099  Biso   1.000  O
  C154     1.0000 0.48491  0.15179  0.16551  Biso   1.000  C
  O102     1.0000 0.47361  0.15568  0.24671  Biso   1.000  O
  C155     1.0000 0.49879  0.14651  0.08289  Biso   1.000  C
  Br27     1.0000 0.08911  0.79041  0.96980  Biso   1.000  Br
  C156     1.0000 0.91633  0.84218  0.08711  Biso   1.000  C
  O103     1.0000 0.86129  0.81391  0.16030  Biso   1.000  O
  O104     1.0000 0.39212  0.16178  0.16169  Biso   1.000  O
  Br28     1.0000 0.54672  0.25771  0.07681  Biso   1.000  Br
  O105     1.0000 0.98039  0.89552  0.10681  Biso   1.000  O
  C157     1.0000 0.35918  0.24238  0.15641  Biso   1.000  C
  C158     1.0000 0.97228  0.98323  0.09840  Biso   1.000  C
  C159     1.0000 0.29313  0.24923  0.19099  Biso   1.000  C
  O106     1.0000 0.32149  0.24628  0.11388  Biso   1.000  O
  C160     1.0000 0.96911  0.02029  0.14721  Biso   1.000  C
  C161     1.0000 0.04399  0.01998  0.07339  Biso   1.000  C
  C162     1.0000 0.21378  0.19708  0.18461  Biso   1.000  C
  O107     1.0000 0.32717  0.24609  0.23591  Biso   1.000  O
  C163     1.0000 0.25039  0.19332  0.10259  Biso   1.000  C
  O108     1.0000 0.89750  0.98649  0.17089  Biso   1.000  O
  C164     1.0000 0.97493  0.11660  0.14199  Biso   1.000  C
  C165     1.0000 0.03461  0.99120  0.02741  Biso   1.000  C
  O109     1.0000 0.03632  0.10731  0.07199  Biso   1.000  O
  C166     1.0000 0.18990  0.20161  0.13900  Biso   1.000  C
  O110     1.0000 0.14981  0.20368  0.21850  Biso   1.000  O
  C167     1.0000 0.24437  0.20657  0.05199  Biso   1.000  C
  O111     1.0000 0.97540  0.15568  0.18511  Biso   1.000  O
  C168     1.0000 0.03883  0.14852  0.11472  Biso   1.000  C
  Br29     1.0000 0.12902  0.02350  0.99090  Biso   1.000  Br
  O112     1.0000 0.12053  0.13131  0.13491  Biso   1.000  O
  Br30     1.0000 0.17492  0.30408  0.04379  Biso   1.000  Br
  Ne1      1.0000 0.16903  0.80433  0.40235  Biso   1.000  Ne
  He1      1.0000 0.12742  0.76477  0.47734  Biso   1.000  He
  He2      1.0000 0.23512  0.81906  0.30858  Biso   1.000  He
  Ar1      1.0000 0.23512  0.81907  0.30858  Biso   1.000  Ar
  Ne2      1.0000 0.31144  0.87657  0.09239  Biso   1.000  Ne
  He3      1.0000 0.27586  0.83977  0.18793  Biso   1.000  He
  He4      1.0000 0.33745  0.87233  0.97062  Biso   1.000  He
  Ar2      1.0000 0.27355  0.83896  0.18799  Biso   1.000  Ar
  Ne3      1.0000 0.83097  0.30434  0.59765  Biso   1.000  Ne
  He5      1.0000 0.76489  0.31905  0.69141  Biso   1.000  He
  He6      1.0000 0.85933  0.27343  0.53915  Biso   1.000  He
  Ar3      1.0000 0.76489  0.31905  0.69141  Biso   1.000  Ar
  Ne4      1.0000 0.68856  0.37658  0.90761  Biso   1.000  Ne
  He7      1.0000 0.66850  0.36772  0.01191  Biso   1.000  He
  He8      1.0000 0.72504  0.33992  0.80942  Biso   1.000  He
  Ar4      1.0000 0.72414  0.33971  0.81202  Biso   1.000  Ar
