data_image0
_cell_length_a       11.232
_cell_length_b       12.217
_cell_length_c       33.308
_cell_angle_alpha    90
_cell_angle_beta     90
_cell_angle_gamma    90

_symmetry_space_group_name_H-M    "P 1"
_symmetry_int_tables_number       1

loop_
  _symmetry_equiv_pos_as_xyz
  'x, y, z'

loop_
  _atom_site_label
  _atom_site_occupancy
  _atom_site_fract_x
  _atom_site_fract_y
  _atom_site_fract_z
  _atom_site_thermal_displace_type
  _atom_site_B_iso_or_equiv
  _atom_site_type_symbol
  C1       1.0000 0.47454  0.55120  0.50630  Biso   1.000  C
  C2       1.0000 0.42361  0.45478  0.52099  Biso   1.000  C
  H1       1.0000 0.42744  0.60170  0.49150  Biso   1.000  H
  C3       1.0000 0.59161  0.57240  0.51309  Biso   1.000  C
  C4       1.0000 0.49252  0.38446  0.54335  Biso   1.000  C
  H2       1.0000 0.34250  0.43800  0.51561  Biso   1.000  H
  C5       1.0000 0.65972  0.50127  0.53678  Biso   1.000  C
  H3       1.0000 0.62731  0.63584  0.50180  Biso   1.000  H
  N1       1.0000 0.60639  0.41017  0.55164  Biso   1.000  N
  C6       1.0000 0.44204  0.27609  0.55671  Biso   1.000  C
  C7       1.0000 0.79069  0.51363  0.54681  Biso   1.000  C
  H4       1.0000 0.65162  0.37636  0.56929  Biso   1.000  H
  N2       1.0000 0.51051  0.22092  0.58890  Biso   1.000  N
  H5       1.0000 0.35951  0.28780  0.56620  Biso   1.000  H
  H6       1.0000 0.43821  0.22673  0.53309  Biso   1.000  H
  N3       1.0000 0.80849  0.53098  0.59034  Biso   1.000  N
  H7       1.0000 0.83396  0.44692  0.53819  Biso   1.000  H
  H8       1.0000 0.82399  0.57649  0.53179  Biso   1.000  H
  H9       1.0000 0.52902  0.27118  0.61180  Biso   1.000  H
  C8       1.0000 0.43599  0.14030  0.61307  Biso   1.000  C
  C9       1.0000 0.62660  0.16731  0.57431  Biso   1.000  C
  C10      1.0000 0.83770  0.65008  0.59799  Biso   1.000  C
  C11      1.0000 0.90109  0.45756  0.60811  Biso   1.000  C
  C12      1.0000 0.35559  0.20431  0.64084  Biso   1.000  C
  C13      1.0000 0.36619  0.05787  0.58701  Biso   1.000  C
  H10      1.0000 0.49199  0.09716  0.63021  Biso   1.000  H
  H11      1.0000 0.61708  0.08676  0.57419  Biso   1.000  H
  H12      1.0000 0.64343  0.19121  0.54651  Biso   1.000  H
  C14      1.0000 0.72917  0.19800  0.60094  Biso   1.000  C
  H13      1.0000 0.78348  0.69469  0.58070  Biso   1.000  H
  C15      1.0000 0.96483  0.68519  0.58839  Biso   1.000  C
  C16      1.0000 0.80894  0.67848  0.64150  Biso   1.000  C
  C17      1.0000 0.85710  0.34272  0.61751  Biso   1.000  C
  H14      1.0000 0.93100  0.49128  0.63321  Biso   1.000  H
  H15      1.0000 0.96884  0.45240  0.58920  Biso   1.000  H
  N4       1.0000 0.42593  0.29402  0.66080  Biso   1.000  N
  H16      1.0000 0.29416  0.24057  0.62369  Biso   1.000  H
  C18      1.0000 0.28891  0.12614  0.66921  Biso   1.000  C
  H17      1.0000 0.30921  0.09716  0.56950  Biso   1.000  H
  H18      1.0000 0.42174  0.01613  0.56971  Biso   1.000  H
  C19      1.0000 0.29932  0.98011  0.61520  Biso   1.000  C
  N5       1.0000 0.76291  0.30417  0.59790  Biso   1.000  N
  C20      1.0000 0.78793  0.12851  0.62691  Biso   1.000  C
  H19      1.0000 0.98264  0.66980  0.55990  Biso   1.000  H
  C21      1.0000 0.97997  0.80936  0.59691  Biso   1.000  C
  H20      1.0000 0.02137  0.64287  0.60511  Biso   1.000  H
  N6       1.0000 0.68438  0.63363  0.65125  Biso   1.000  N
  C22      1.0000 0.82238  0.79962  0.65011  Biso   1.000  C
  H21      1.0000 0.86734  0.63870  0.65891  Biso   1.000  H
  C23      1.0000 0.91711  0.27683  0.64420  Biso   1.000  C
  C24      1.0000 0.34544  0.38602  0.67281  Biso   1.000  C
  C25      1.0000 0.49982  0.25088  0.69440  Biso   1.000  C
  H22      1.0000 0.34642  0.08873  0.68701  Biso   1.000  H
  H23      1.0000 0.23300  0.16829  0.68620  Biso   1.000  H
  C26      1.0000 0.21946  0.04068  0.64459  Biso   1.000  C
  H24      1.0000 0.25009  0.92936  0.59899  Biso   1.000  H
  H25      1.0000 0.35773  0.93583  0.63039  Biso   1.000  H
  H26      1.0000 0.76433  0.05410  0.62919  Biso   1.000  H
  C27      1.0000 0.88266  0.16903  0.64960  Biso   1.000  C
  H27      1.0000 0.92726  0.85152  0.57881  Biso   1.000  H
  C28      1.0000 0.95050  0.83629  0.63961  Biso   1.000  C
  H28      1.0000 0.06330  0.83122  0.59121  Biso   1.000  H
  H29      1.0000 0.69186  0.56462  0.63531  Biso   1.000  H
  C29      1.0000 0.58431  0.69903  0.63339  Biso   1.000  C
  C30      1.0000 0.67236  0.61513  0.69680  Biso   1.000  C
  H30      1.0000 0.80600  0.81411  0.67879  Biso   1.000  H
  H31      1.0000 0.76442  0.84161  0.63390  Biso   1.000  H
  H32      1.0000 0.98237  0.30539  0.65900  Biso   1.000  H
  C31      1.0000 0.35452  0.48277  0.64456  Biso   1.000  C
  H33      1.0000 0.36610  0.40992  0.70031  Biso   1.000  H
  H34      1.0000 0.26211  0.35942  0.67320  Biso   1.000  H
  H35      1.0000 0.52813  0.17688  0.68701  Biso   1.000  H
  H36      1.0000 0.44836  0.24310  0.71839  Biso   1.000  H
  C32      1.0000 0.60506  0.31906  0.70551  Biso   1.000  C
  H37      1.0000 0.15500  0.07776  0.62961  Biso   1.000  H
  H38      1.0000 0.18243  0.98739  0.66311  Biso   1.000  H
  H39      1.0000 0.92272  0.12352  0.66840  Biso   1.000  H
  H40      1.0000 0.95798  0.91618  0.64381  Biso   1.000  H
  H41      1.0000 0.00757  0.79913  0.65771  Biso   1.000  H
  C33      1.0000 0.47293  0.63182  0.62649  Biso   1.000  C
  H42      1.0000 0.61084  0.73029  0.60751  Biso   1.000  H
  H43      1.0000 0.56517  0.76058  0.65159  Biso   1.000  H
  C34      1.0000 0.69409  0.49578  0.70818  Biso   1.000  C
  H44      1.0000 0.73050  0.66211  0.71109  Biso   1.000  H
  H45      1.0000 0.59161  0.63682  0.70551  Biso   1.000  H
  N7       1.0000 0.45807  0.53974  0.64756  Biso   1.000  N
  C35      1.0000 0.26558  0.51494  0.61760  Biso   1.000  C
  N8       1.0000 0.61049  0.42474  0.69497  Biso   1.000  N
  C36      1.0000 0.69507  0.27846  0.72931  Biso   1.000  C
  C37      1.0000 0.38880  0.66628  0.59850  Biso   1.000  C
  C38      1.0000 0.78250  0.45920  0.73220  Biso   1.000  C
  C39      1.0000 0.28552  0.60801  0.59409  Biso   1.000  C
  H46      1.0000 0.19373  0.47450  0.61520  Biso   1.000  H
  H47      1.0000 0.55538  0.45429  0.67969  Biso   1.000  H
  H48      1.0000 0.69623  0.20316  0.73649  Biso   1.000  H
  C40      1.0000 0.78543  0.34910  0.74291  Biso   1.000  C
  H49      1.0000 0.40296  0.72964  0.58259  Biso   1.000  H
  H50      1.0000 0.84188  0.50806  0.74171  Biso   1.000  H
  H51      1.0000 0.22748  0.63068  0.57509  Biso   1.000  H
  H52      1.0000 0.84793  0.32176  0.75931  Biso   1.000  H
  C41      1.0000 0.28793  0.37153  0.37309  Biso   1.000  C
  C42      1.0000 0.22917  0.30204  0.39906  Biso   1.000  C
  H53      1.0000 0.26433  0.44594  0.37081  Biso   1.000  H
  C43      1.0000 0.38266  0.33101  0.35040  Biso   1.000  C
  C44      1.0000 0.12660  0.33273  0.42569  Biso   1.000  C
  N9       1.0000 0.26291  0.19579  0.40210  Biso   1.000  N
  C45      1.0000 0.41711  0.22321  0.35580  Biso   1.000  C
  H54      1.0000 0.42272  0.37652  0.33160  Biso   1.000  H
  N10      1.0000 0.01051  0.27912  0.41110  Biso   1.000  N
  H55      1.0000 0.11708  0.41319  0.42581  Biso   1.000  H
  H56      1.0000 0.14343  0.30883  0.45349  Biso   1.000  H
  C46      1.0000 0.35710  0.15732  0.38249  Biso   1.000  C
  H57      1.0000 0.48237  0.19456  0.34100  Biso   1.000  H
  C47      1.0000 0.93599  0.35966  0.38693  Biso   1.000  C
  H58      1.0000 0.02902  0.22878  0.38820  Biso   1.000  H
  C48      1.0000 0.94204  0.22387  0.44329  Biso   1.000  C
  C49      1.0000 0.40109  0.04240  0.39189  Biso   1.000  C
  C50      1.0000 0.85559  0.29574  0.35916  Biso   1.000  C
  C51      1.0000 0.86619  0.44209  0.41299  Biso   1.000  C
  H59      1.0000 0.99199  0.40280  0.36979  Biso   1.000  H
  H60      1.0000 0.85951  0.21216  0.43380  Biso   1.000  H
  H61      1.0000 0.93821  0.27331  0.46691  Biso   1.000  H
  C52      1.0000 0.99252  0.11549  0.45665  Biso   1.000  C
  N11      1.0000 0.30849  0.96898  0.40966  Biso   1.000  N
  H62      1.0000 0.43100  0.00868  0.36679  Biso   1.000  H
  H63      1.0000 0.46884  0.04764  0.41080  Biso   1.000  H
  N12      1.0000 0.92593  0.20602  0.33920  Biso   1.000  N
  H64      1.0000 0.79416  0.25939  0.37631  Biso   1.000  H
  C53      1.0000 0.78891  0.37391  0.33079  Biso   1.000  C
  C54      1.0000 0.79932  0.51993  0.38480  Biso   1.000  C
  H65      1.0000 0.80921  0.40280  0.43050  Biso   1.000  H
  H66      1.0000 0.92174  0.48392  0.43029  Biso   1.000  H
  N13      1.0000 0.10639  0.08979  0.44836  Biso   1.000  N
  C55      1.0000 0.92361  0.04518  0.47901  Biso   1.000  C
  C56      1.0000 0.33770  0.84988  0.40201  Biso   1.000  C
  C57      1.0000 0.29069  0.98641  0.45319  Biso   1.000  C
  C58      1.0000 0.99982  0.24908  0.30560  Biso   1.000  C
  C59      1.0000 0.84544  0.11402  0.32719  Biso   1.000  C
  H67      1.0000 0.84642  0.41131  0.31299  Biso   1.000  H
  H68      1.0000 0.73300  0.33167  0.31380  Biso   1.000  H
  C60      1.0000 0.71946  0.45928  0.35541  Biso   1.000  C
  H69      1.0000 0.75009  0.57060  0.40101  Biso   1.000  H
  H70      1.0000 0.85773  0.56421  0.36961  Biso   1.000  H
  C61      1.0000 0.15972  0.99869  0.46322  Biso   1.000  C
  H71      1.0000 0.15162  0.12360  0.43071  Biso   1.000  H
  C62      1.0000 0.97454  0.94876  0.49370  Biso   1.000  C
  H72      1.0000 0.84250  0.06196  0.48439  Biso   1.000  H
  C63      1.0000 0.30894  0.82148  0.35850  Biso   1.000  C
  H73      1.0000 0.28348  0.80527  0.41930  Biso   1.000  H
  C64      1.0000 0.46483  0.81477  0.41161  Biso   1.000  C
  H74      1.0000 0.33396  0.05312  0.46181  Biso   1.000  H
  H75      1.0000 0.32399  0.92347  0.46821  Biso   1.000  H
  C65      1.0000 0.10506  0.18090  0.29449  Biso   1.000  C
  H76      1.0000 0.02813  0.32307  0.31299  Biso   1.000  H
  H77      1.0000 0.94836  0.25694  0.28161  Biso   1.000  H
  C66      1.0000 0.85452  0.01719  0.35544  Biso   1.000  C
  H78      1.0000 0.86610  0.09012  0.29969  Biso   1.000  H
  H79      1.0000 0.76211  0.14062  0.32680  Biso   1.000  H
  H80      1.0000 0.68243  0.51256  0.33689  Biso   1.000  H
  H81      1.0000 0.65500  0.42220  0.37039  Biso   1.000  H
  C67      1.0000 0.09161  0.92756  0.48691  Biso   1.000  C
  H82      1.0000 0.92744  0.89834  0.50850  Biso   1.000  H
  N14      1.0000 0.18438  0.86642  0.34875  Biso   1.000  N
  C68      1.0000 0.32238  0.70042  0.34989  Biso   1.000  C
  H83      1.0000 0.36734  0.86134  0.34109  Biso   1.000  H
  H84      1.0000 0.48264  0.83024  0.44010  Biso   1.000  H
  H85      1.0000 0.52137  0.85708  0.39489  Biso   1.000  H
  C69      1.0000 0.47997  0.69060  0.40309  Biso   1.000  C
  C70      1.0000 0.19507  0.22149  0.27069  Biso   1.000  C
  N15      1.0000 0.11049  0.07530  0.30503  Biso   1.000  N
  N16      1.0000 0.95807  0.96030  0.35244  Biso   1.000  N
  C71      1.0000 0.76558  0.98510  0.38240  Biso   1.000  C
  H86      1.0000 0.12731  0.86421  0.49820  Biso   1.000  H
  C72      1.0000 0.17236  0.88491  0.30320  Biso   1.000  C
  H87      1.0000 0.19186  0.93542  0.36469  Biso   1.000  H
  C73      1.0000 0.08431  0.80101  0.36661  Biso   1.000  C
  C74      1.0000 0.45050  0.66367  0.36039  Biso   1.000  C
  H88      1.0000 0.30600  0.68593  0.32121  Biso   1.000  H
  H89      1.0000 0.26442  0.65843  0.36610  Biso   1.000  H
  H90      1.0000 0.56330  0.66882  0.40879  Biso   1.000  H
  H91      1.0000 0.42726  0.64852  0.42119  Biso   1.000  H
  H92      1.0000 0.19623  0.29680  0.26351  Biso   1.000  H
  C75      1.0000 0.28543  0.15094  0.25709  Biso   1.000  C
  H93      1.0000 0.05538  0.04567  0.32031  Biso   1.000  H
  C76      1.0000 0.19409  0.00417  0.29182  Biso   1.000  C
  C77      1.0000 0.97293  0.86822  0.37351  Biso   1.000  C
  C78      1.0000 0.78552  0.89204  0.40591  Biso   1.000  C
  H94      1.0000 0.69373  0.02554  0.38480  Biso   1.000  H
  H95      1.0000 0.23050  0.83793  0.28891  Biso   1.000  H
  H96      1.0000 0.09161  0.86322  0.29449  Biso   1.000  H
  H97      1.0000 0.11084  0.76967  0.39249  Biso   1.000  H
  H98      1.0000 0.06517  0.73938  0.34841  Biso   1.000  H
  H99      1.0000 0.45798  0.58378  0.35619  Biso   1.000  H
  H100     1.0000 0.50757  0.70091  0.34229  Biso   1.000  H
  H101     1.0000 0.34793  0.17819  0.24069  Biso   1.000  H
  C79      1.0000 0.28250  0.04076  0.26780  Biso   1.000  C
  C80      1.0000 0.88880  0.83367  0.40150  Biso   1.000  C
  H102     1.0000 0.72748  0.86928  0.42491  Biso   1.000  H
  H103     1.0000 0.34188  0.99190  0.25829  Biso   1.000  H
  H104     1.0000 0.90296  0.77040  0.41741  Biso   1.000  H
  C81      1.0000 0.71457  0.65090  0.24291  Biso   1.000  C
  C82      1.0000 0.71750  0.54080  0.23220  Biso   1.000  C
  C83      1.0000 0.80493  0.72154  0.22931  Biso   1.000  C
  H105     1.0000 0.65207  0.67824  0.25931  Biso   1.000  H
  C84      1.0000 0.80591  0.50422  0.20818  Biso   1.000  C
  H106     1.0000 0.65812  0.49194  0.24171  Biso   1.000  H
  C85      1.0000 0.89494  0.68094  0.20551  Biso   1.000  C
  H107     1.0000 0.80377  0.79684  0.23649  Biso   1.000  H
  C86      1.0000 0.82764  0.38487  0.19680  Biso   1.000  C
  N17      1.0000 0.88951  0.57526  0.19497  Biso   1.000  N
  C87      1.0000 0.00018  0.74912  0.19440  Biso   1.000  C
  N18      1.0000 0.81562  0.36637  0.15125  Biso   1.000  N
  H108     1.0000 0.76950  0.33789  0.21109  Biso   1.000  H
  H109     1.0000 0.90839  0.36318  0.20551  Biso   1.000  H
  H110     1.0000 0.94462  0.54571  0.17969  Biso   1.000  H
  N19      1.0000 0.07407  0.70598  0.16080  Biso   1.000  N
  H111     1.0000 0.97187  0.82312  0.18701  Biso   1.000  H
  H112     1.0000 0.05164  0.75690  0.21839  Biso   1.000  H
  C88      1.0000 0.69106  0.32152  0.14150  Biso   1.000  C
  H113     1.0000 0.80814  0.43538  0.13531  Biso   1.000  H
  C89      1.0000 0.91569  0.30097  0.13339  Biso   1.000  C
  C90      1.0000 0.15456  0.61398  0.17281  Biso   1.000  C
  C91      1.0000 0.14441  0.79569  0.14084  Biso   1.000  C
  C92      1.0000 0.67762  0.20038  0.15011  Biso   1.000  C
  C93      1.0000 0.66230  0.34992  0.09799  Biso   1.000  C
  H114     1.0000 0.63266  0.36130  0.15891  Biso   1.000  H
  H115     1.0000 0.88916  0.26971  0.10751  Biso   1.000  H
  H116     1.0000 0.93483  0.23942  0.15159  Biso   1.000  H
  C94      1.0000 0.02707  0.36818  0.12649  Biso   1.000  C
  C95      1.0000 0.14548  0.51723  0.14456  Biso   1.000  C
  H117     1.0000 0.13390  0.59008  0.20031  Biso   1.000  H
  H118     1.0000 0.23789  0.64058  0.17320  Biso   1.000  H
  C96      1.0000 0.06401  0.85970  0.11307  Biso   1.000  C
  H119     1.0000 0.20584  0.75943  0.12369  Biso   1.000  H
  C97      1.0000 0.21109  0.87386  0.16921  Biso   1.000  C
  C98      1.0000 0.54950  0.16371  0.13961  Biso   1.000  C
  H120     1.0000 0.69400  0.18589  0.17879  Biso   1.000  H
  H121     1.0000 0.73558  0.15839  0.13390  Biso   1.000  H
  C99      1.0000 0.53517  0.31481  0.08839  Biso   1.000  C
  N20      1.0000 0.69151  0.46902  0.09034  Biso   1.000  N
  H122     1.0000 0.71652  0.30531  0.08070  Biso   1.000  H
  N21      1.0000 0.04193  0.46026  0.14756  Biso   1.000  N
  C100     1.0000 0.11120  0.33372  0.09850  Biso   1.000  C
  C101     1.0000 0.23442  0.48506  0.11760  Biso   1.000  C
  N22      1.0000 0.98949  0.77908  0.08890  Biso   1.000  N
  C102     1.0000 0.13381  0.94213  0.08701  Biso   1.000  C
  H123     1.0000 0.00801  0.90284  0.13021  Biso   1.000  H
  H124     1.0000 0.15358  0.91127  0.18701  Biso   1.000  H
  H125     1.0000 0.26700  0.83171  0.18620  Biso   1.000  H
  C103     1.0000 0.28054  0.95932  0.14459  Biso   1.000  C
  C104     1.0000 0.52003  0.19064  0.09691  Biso   1.000  C
  H126     1.0000 0.54202  0.08382  0.14381  Biso   1.000  H
  H127     1.0000 0.49243  0.20087  0.15771  Biso   1.000  H
  H128     1.0000 0.51736  0.33020  0.05990  Biso   1.000  H
  H129     1.0000 0.47863  0.35713  0.10511  Biso   1.000  H
  C105     1.0000 0.70931  0.48637  0.04681  Biso   1.000  C
  C106     1.0000 0.59891  0.54244  0.10811  Biso   1.000  C
  H130     1.0000 0.09704  0.27036  0.08259  Biso   1.000  H
  C107     1.0000 0.21448  0.39199  0.09409  Biso   1.000  C
  H131     1.0000 0.30627  0.52550  0.11520  Biso   1.000  H
  C108     1.0000 0.05796  0.72391  0.05671  Biso   1.000  C
  C109     1.0000 0.87340  0.83269  0.07431  Biso   1.000  C
  H132     1.0000 0.97098  0.72882  0.11180  Biso   1.000  H
  H133     1.0000 0.19079  0.90284  0.06950  Biso   1.000  H
  H134     1.0000 0.07826  0.98387  0.06971  Biso   1.000  H
  C110     1.0000 0.20068  0.01989  0.11520  Biso   1.000  C
  H135     1.0000 0.34500  0.92224  0.12961  Biso   1.000  H
  H136     1.0000 0.31757  0.01261  0.16311  Biso   1.000  H
  H137     1.0000 0.43670  0.16878  0.09121  Biso   1.000  H
  H138     1.0000 0.57274  0.14848  0.07881  Biso   1.000  H
  C111     1.0000 0.84028  0.49873  0.03678  Biso   1.000  C
  H139     1.0000 0.66604  0.55308  0.03819  Biso   1.000  H
  H140     1.0000 0.67601  0.42351  0.03179  Biso   1.000  H
  C112     1.0000 0.64290  0.65728  0.11751  Biso   1.000  C
  H141     1.0000 0.56900  0.50872  0.13321  Biso   1.000  H
  H142     1.0000 0.53116  0.54760  0.08920  Biso   1.000  H
  H143     1.0000 0.27252  0.36932  0.07509  Biso   1.000  H
  C113     1.0000 0.00748  0.61554  0.04335  Biso   1.000  C
  H144     1.0000 0.14049  0.71220  0.06620  Biso   1.000  H
  H145     1.0000 0.06179  0.77327  0.03309  Biso   1.000  H
  C114     1.0000 0.77083  0.80200  0.10094  Biso   1.000  C
  H146     1.0000 0.88292  0.91324  0.07419  Biso   1.000  H
  H147     1.0000 0.85657  0.80879  0.04651  Biso   1.000  H
  H148     1.0000 0.24991  0.07064  0.09899  Biso   1.000  H
  H149     1.0000 0.14227  0.06417  0.13039  Biso   1.000  H
  N23      1.0000 0.89361  0.58983  0.05164  Biso   1.000  N
  C115     1.0000 0.90839  0.42760  0.01309  Biso   1.000  C
  N24      1.0000 0.73709  0.69583  0.09790  Biso   1.000  N
  C116     1.0000 0.58289  0.72317  0.14420  Biso   1.000  C
  C117     1.0000 0.07639  0.54522  0.02099  Biso   1.000  C
  C118     1.0000 0.71207  0.87149  0.12691  Biso   1.000  C
  H150     1.0000 0.84838  0.62364  0.06929  Biso   1.000  H
  H151     1.0000 0.87269  0.36416  0.00180  Biso   1.000  H
  C119     1.0000 0.02546  0.44880  0.00630  Biso   1.000  C
  C120     1.0000 0.61734  0.83097  0.14960  Biso   1.000  C
  H152     1.0000 0.51763  0.69461  0.15900  Biso   1.000  H
  H153     1.0000 0.15750  0.56200  0.01561  Biso   1.000  H
  H154     1.0000 0.73567  0.94590  0.12919  Biso   1.000  H
  H155     1.0000 0.07256  0.39830  0.99150  Biso   1.000  H
  H156     1.0000 0.57728  0.87648  0.16840  Biso   1.000  H
  C121     1.0000 0.30493  0.77851  0.77069  Biso   1.000  C
  C122     1.0000 0.21457  0.84906  0.75709  Biso   1.000  C
  C123     1.0000 0.39494  0.81910  0.79449  Biso   1.000  C
  H157     1.0000 0.30377  0.70320  0.76351  Biso   1.000  H
  H158     1.0000 0.15207  0.82181  0.74069  Biso   1.000  H
  C124     1.0000 0.21750  0.95924  0.76780  Biso   1.000  C
  N25      1.0000 0.38951  0.92470  0.80503  Biso   1.000  N
  C125     1.0000 0.50018  0.75092  0.80560  Biso   1.000  C
  C126     1.0000 0.30591  0.99583  0.79182  Biso   1.000  C
  H159     1.0000 0.15812  0.00810  0.75829  Biso   1.000  H
  H160     1.0000 0.44462  0.95433  0.82031  Biso   1.000  H
  N26      1.0000 0.57407  0.79398  0.83920  Biso   1.000  N
  H161     1.0000 0.47187  0.67693  0.81299  Biso   1.000  H
  H162     1.0000 0.55164  0.74306  0.78161  Biso   1.000  H
  C127     1.0000 0.32764  0.11509  0.80320  Biso   1.000  C
  C128     1.0000 0.65456  0.88598  0.82719  Biso   1.000  C
  C129     1.0000 0.64441  0.70426  0.85916  Biso   1.000  C
  N27      1.0000 0.31562  0.13358  0.84875  Biso   1.000  N
  H163     1.0000 0.26950  0.16207  0.78891  Biso   1.000  H
  H164     1.0000 0.40839  0.13678  0.79449  Biso   1.000  H
  C130     1.0000 0.64548  0.98281  0.85544  Biso   1.000  C
  H165     1.0000 0.63390  0.90988  0.79969  Biso   1.000  H
  H166     1.0000 0.73789  0.85938  0.82680  Biso   1.000  H
  H167     1.0000 0.70584  0.74061  0.87631  Biso   1.000  H
  C131     1.0000 0.71109  0.62609  0.83079  Biso   1.000  C
  C132     1.0000 0.56401  0.64034  0.88693  Biso   1.000  C
  H168     1.0000 0.30814  0.06458  0.86469  Biso   1.000  H
  C133     1.0000 0.19106  0.17852  0.85850  Biso   1.000  C
  C134     1.0000 0.41569  0.19899  0.86661  Biso   1.000  C
  N28      1.0000 0.54193  0.03970  0.85244  Biso   1.000  N
  C135     1.0000 0.73442  0.01490  0.88240  Biso   1.000  C
  H169     1.0000 0.65358  0.58869  0.81299  Biso   1.000  H
  H170     1.0000 0.76700  0.66833  0.81380  Biso   1.000  H
  C136     1.0000 0.78054  0.54072  0.85541  Biso   1.000  C
  N29      1.0000 0.48949  0.72088  0.91110  Biso   1.000  N
  C137     1.0000 0.63381  0.55791  0.91299  Biso   1.000  C
  H171     1.0000 0.50801  0.59720  0.86979  Biso   1.000  H
  C138     1.0000 0.16230  0.15012  0.90201  Biso   1.000  C
  C139     1.0000 0.17762  0.29958  0.84989  Biso   1.000  C
  H172     1.0000 0.13266  0.13866  0.84109  Biso   1.000  H
  C140     1.0000 0.52707  0.13178  0.87351  Biso   1.000  C
  H173     1.0000 0.38916  0.23033  0.89249  Biso   1.000  H
  H174     1.0000 0.43483  0.26062  0.84841  Biso   1.000  H
  H175     1.0000 0.80627  0.97446  0.88480  Biso   1.000  H
  C141     1.0000 0.71448  0.10796  0.90591  Biso   1.000  C
  H176     1.0000 0.81757  0.48744  0.83689  Biso   1.000  H
  H177     1.0000 0.84500  0.57780  0.87039  Biso   1.000  H
  C142     1.0000 0.70068  0.48007  0.88480  Biso   1.000  C
  H178     1.0000 0.47098  0.77122  0.88820  Biso   1.000  H
  C143     1.0000 0.55796  0.77613  0.94329  Biso   1.000  C
  C144     1.0000 0.37340  0.66727  0.92569  Biso   1.000  C
  H179     1.0000 0.69079  0.59720  0.93050  Biso   1.000  H
  H180     1.0000 0.57826  0.51608  0.93029  Biso   1.000  H
  N30      1.0000 0.19151  0.03102  0.90966  Biso   1.000  N
  H181     1.0000 0.21652  0.19473  0.91930  Biso   1.000  H
  C145     1.0000 0.03517  0.18523  0.91161  Biso   1.000  C
  C146     1.0000 0.04950  0.33633  0.86039  Biso   1.000  C
  H182     1.0000 0.19400  0.31407  0.82121  Biso   1.000  H
  H183     1.0000 0.23558  0.34157  0.86610  Biso   1.000  H
  C147     1.0000 0.61120  0.16633  0.90150  Biso   1.000  C
  H184     1.0000 0.77252  0.13072  0.92491  Biso   1.000  H
  H185     1.0000 0.74991  0.42940  0.90101  Biso   1.000  H
  H186     1.0000 0.64227  0.43579  0.86961  Biso   1.000  H
  H187     1.0000 0.64049  0.78784  0.93380  Biso   1.000  H
  H188     1.0000 0.56179  0.72669  0.96691  Biso   1.000  H
  C148     1.0000 0.50748  0.88451  0.95665  Biso   1.000  C
  H189     1.0000 0.38292  0.58681  0.92581  Biso   1.000  H
  H190     1.0000 0.35657  0.69117  0.95349  Biso   1.000  H
  C149     1.0000 0.27083  0.69796  0.89906  Biso   1.000  C
  C150     1.0000 0.09891  0.95760  0.89189  Biso   1.000  C
  C151     1.0000 0.20931  0.01359  0.95319  Biso   1.000  C
  H191     1.0000 0.97863  0.14292  0.89489  Biso   1.000  H
  H192     1.0000 0.01736  0.16976  0.94010  Biso   1.000  H
  C152     1.0000 0.02003  0.30940  0.90309  Biso   1.000  C
  H193     1.0000 0.99243  0.29909  0.84229  Biso   1.000  H
  H194     1.0000 0.04202  0.41622  0.85619  Biso   1.000  H
  H195     1.0000 0.59704  0.22960  0.91741  Biso   1.000  H
  N31      1.0000 0.39361  0.91021  0.94836  Biso   1.000  N
  C153     1.0000 0.57639  0.95482  0.97901  Biso   1.000  C
  N32      1.0000 0.23709  0.80421  0.90210  Biso   1.000  N
  C154     1.0000 0.21207  0.62847  0.87309  Biso   1.000  C
  C155     1.0000 0.14290  0.84268  0.88249  Biso   1.000  C
  H196     1.0000 0.06900  0.99132  0.86679  Biso   1.000  H
  H197     1.0000 0.03116  0.95236  0.91080  Biso   1.000  H
  H198     1.0000 0.16604  0.94688  0.96181  Biso   1.000  H
  C156     1.0000 0.34028  0.00131  0.96322  Biso   1.000  C
  H199     1.0000 0.17601  0.07653  0.96821  Biso   1.000  H
  H200     1.0000 0.93670  0.33118  0.90879  Biso   1.000  H
  H201     1.0000 0.07274  0.35148  0.92119  Biso   1.000  H
  H202     1.0000 0.34838  0.87640  0.93071  Biso   1.000  H
  H203     1.0000 0.65750  0.93804  0.98439  Biso   1.000  H
  C157     1.0000 0.52546  0.05124  0.99370  Biso   1.000  C
  H204     1.0000 0.23567  0.55406  0.87081  Biso   1.000  H
  C158     1.0000 0.11734  0.66899  0.85040  Biso   1.000  C
  C159     1.0000 0.08289  0.77679  0.85580  Biso   1.000  C
  C160     1.0000 0.40839  0.07244  0.98691  Biso   1.000  C
  H205     1.0000 0.57256  0.10166  0.00850  Biso   1.000  H
  H206     1.0000 0.07728  0.62348  0.83160  Biso   1.000  H
  H207     1.0000 0.01763  0.80544  0.84100  Biso   1.000  H
  H208     1.0000 0.37269  0.13579  0.99820  Biso   1.000  H
