data_image0
_cell_length_a       14.001
_cell_length_b       15.937
_cell_length_c       15.733
_cell_angle_alpha    90
_cell_angle_beta     97.46
_cell_angle_gamma    90

_symmetry_space_group_name_H-M    "P 1"
_symmetry_int_tables_number       1

loop_
  _symmetry_equiv_pos_as_xyz
  'x, y, z'

loop_
  _atom_site_label
  _atom_site_occupancy
  _atom_site_fract_x
  _atom_site_fract_y
  _atom_site_fract_z
  _atom_site_thermal_displace_type
  _atom_site_B_iso_or_equiv
  _atom_site_type_symbol
  C1       1.0000 0.29812  0.82243  0.16840  Biso   1.000  C
  N1       1.0000 0.38445  0.78371  0.14526  Biso   1.000  N
  C2       1.0000 0.23061  0.82500  0.08308  Biso   1.000  C
  H1       1.0000 0.27031  0.78879  0.21128  Biso   1.000  H
  N2       1.0000 0.30699  0.90933  0.19391  Biso   1.000  N
  C3       1.0000 0.46210  0.75591  0.20846  Biso   1.000  C
  C4       1.0000 0.37437  0.75968  0.06199  Biso   1.000  C
  N3       1.0000 0.28959  0.79017  0.02180  Biso   1.000  N
  H2       1.0000 0.17214  0.79181  0.08571  Biso   1.000  H
  N4       1.0000 0.20923  0.91347  0.07218  Biso   1.000  N
  C5       1.0000 0.35222  0.93550  0.27827  Biso   1.000  C
  C6       1.0000 0.25214  0.96116  0.13910  Biso   1.000  C
  H3       1.0000 0.43512  0.73521  0.25808  Biso   1.000  H
  H4       1.0000 0.49493  0.70948  0.18481  Biso   1.000  H
  N5       1.0000 0.53264  0.82079  0.23622  Biso   1.000  N
  O1       1.0000 0.43113  0.71657  0.02801  Biso   1.000  O
  C7       1.0000 0.24797  0.76250  0.93628  Biso   1.000  C
  C8       1.0000 0.14309  0.94648  0.00365  Biso   1.000  C
  N6       1.0000 0.45462  0.94666  0.28398  Biso   1.000  N
  H5       1.0000 0.32340  0.98789  0.29321  Biso   1.000  H
  H6       1.0000 0.33881  0.89377  0.32000  Biso   1.000  H
  O2       1.0000 0.24100  0.03614  0.14750  Biso   1.000  O
  C9       1.0000 0.52365  0.87996  0.30532  Biso   1.000  C
  C10      1.0000 0.62282  0.82061  0.21205  Biso   1.000  C
  H7       1.0000 0.18274  0.74318  0.93910  Biso   1.000  H
  H8       1.0000 0.28483  0.71507  0.91968  Biso   1.000  H
  N7       1.0000 0.24536  0.82625  0.87038  Biso   1.000  N
  H9       1.0000 0.08784  0.90939  0.99359  Biso   1.000  H
  N8       1.0000 0.18438  0.95614  0.92487  Biso   1.000  N
  H10      1.0000 0.12028  0.00069  0.02058  Biso   1.000  H
  C11      1.0000 0.49741  0.02309  0.28455  Biso   1.000  C
  H11      1.0000 0.51266  0.85110  0.35821  Biso   1.000  H
  C12      1.0000 0.62149  0.92546  0.31552  Biso   1.000  C
  N9       1.0000 0.67452  0.88216  0.25648  Biso   1.000  N
  O3       1.0000 0.65238  0.77154  0.16205  Biso   1.000  O
  C13      1.0000 0.17568  0.89283  0.85788  Biso   1.000  C
  C14      1.0000 0.30952  0.82820  0.81179  Biso   1.000  C
  C15      1.0000 0.20366  0.03445  0.89397  Biso   1.000  C
  N10      1.0000 0.59525  0.01173  0.29475  Biso   1.000  N
  O4       1.0000 0.45680  0.09130  0.27744  Biso   1.000  O
  H12      1.0000 0.65394  0.92081  0.37443  Biso   1.000  H
  C16      1.0000 0.77215  0.90255  0.24423  Biso   1.000  C
  C17      1.0000 0.20328  0.94108  0.77974  Biso   1.000  C
  H13      1.0000 0.10994  0.87080  0.84692  Biso   1.000  H
  N11      1.0000 0.28804  0.89722  0.76051  Biso   1.000  N
  O5       1.0000 0.37362  0.77750  0.80519  Biso   1.000  O
  N12      1.0000 0.21904  0.02535  0.80993  Biso   1.000  N
  O6       1.0000 0.20537  0.09889  0.93410  Biso   1.000  O
  C18      1.0000 0.66195  0.08239  0.31084  Biso   1.000  C
  H14      1.0000 0.80043  0.85436  0.21923  Biso   1.000  H
  H15      1.0000 0.80904  0.91291  0.29981  Biso   1.000  H
  N13      1.0000 0.78103  0.97465  0.19007  Biso   1.000  N
  H16      1.0000 0.15166  0.93857  0.73141  Biso   1.000  H
  C19      1.0000 0.33812  0.91755  0.68916  Biso   1.000  C
  C20      1.0000 0.22792  0.09745  0.75577  Biso   1.000  C
  H17      1.0000 0.62622  0.13127  0.32539  Biso   1.000  H
  H18      1.0000 0.70896  0.06921  0.35988  Biso   1.000  H
  N14      1.0000 0.71196  0.10278  0.23949  Biso   1.000  N
  C21      1.0000 0.79641  0.96555  0.10603  Biso   1.000  C
  C22      1.0000 0.79679  0.05892  0.22026  Biso   1.000  C
  H19      1.0000 0.37385  0.86867  0.67461  Biso   1.000  H
  H20      1.0000 0.29111  0.93079  0.64012  Biso   1.000  H
  N15      1.0000 0.40482  0.98827  0.70525  Biso   1.000  N
  H21      1.0000 0.19964  0.14557  0.78077  Biso   1.000  H
  H22      1.0000 0.19103  0.08709  0.70019  Biso   1.000  H
  N16      1.0000 0.32556  0.11778  0.74352  Biso   1.000  N
  C23      1.0000 0.69055  0.17180  0.18821  Biso   1.000  C
  O7       1.0000 0.79470  0.90111  0.06590  Biso   1.000  O
  N17      1.0000 0.81569  0.04386  0.07513  Biso   1.000  N
  H23      1.0000 0.84841  0.06143  0.26859  Biso   1.000  H
  C24      1.0000 0.82439  0.10711  0.14212  Biso   1.000  C
  C25      1.0000 0.50266  0.97691  0.71545  Biso   1.000  C
  C26      1.0000 0.37858  0.07448  0.68448  Biso   1.000  C
  C27      1.0000 0.37725  0.17933  0.78795  Biso   1.000  C
  N18      1.0000 0.75472  0.17375  0.12962  Biso   1.000  N
  O8       1.0000 0.62645  0.22250  0.19481  Biso   1.000  O
  C28      1.0000 0.85698  0.05352  0.99635  Biso   1.000  C
  H24      1.0000 0.89013  0.12920  0.15308  Biso   1.000  H
  O9       1.0000 0.54327  0.90870  0.72256  Biso   1.000  O
  N19      1.0000 0.54546  0.05334  0.71602  Biso   1.000  N
  C29      1.0000 0.47642  0.12004  0.69468  Biso   1.000  C
  H25      1.0000 0.34613  0.07919  0.62557  Biso   1.000  H
  N20      1.0000 0.46743  0.17914  0.76378  Biso   1.000  N
  O10      1.0000 0.34769  0.22840  0.83795  Biso   1.000  O
  C30      1.0000 0.75210  0.23750  0.06372  Biso   1.000  C
  H26      1.0000 0.87979  0.99931  0.97942  Biso   1.000  H
  N21      1.0000 0.79084  0.08653  0.92782  Biso   1.000  N
  H27      1.0000 0.91223  0.09061  0.00641  Biso   1.000  H
  C31      1.0000 0.64785  0.06450  0.72173  Biso   1.000  C
  H28      1.0000 0.48741  0.14890  0.64179  Biso   1.000  H
  C32      1.0000 0.53797  0.24402  0.79154  Biso   1.000  C
  N22      1.0000 0.71048  0.20983  0.97820  Biso   1.000  N
  H29      1.0000 0.81733  0.25682  0.06090  Biso   1.000  H
  H30      1.0000 0.71524  0.28487  0.08032  Biso   1.000  H
  C33      1.0000 0.76947  0.17500  0.91692  Biso   1.000  C
  C34      1.0000 0.74794  0.03884  0.86090  Biso   1.000  C
  N23      1.0000 0.69309  0.09067  0.80609  Biso   1.000  N
  H31      1.0000 0.67667  0.01211  0.70679  Biso   1.000  H
  H32      1.0000 0.66126  0.10617  0.68000  Biso   1.000  H
  N24      1.0000 0.61562  0.21623  0.85474  Biso   1.000  N
  H33      1.0000 0.56495  0.26479  0.74192  Biso   1.000  H
  H34      1.0000 0.50514  0.29052  0.81519  Biso   1.000  H
  C35      1.0000 0.62563  0.24032  0.93801  Biso   1.000  C
  H35      1.0000 0.82794  0.20819  0.91429  Biso   1.000  H
  C36      1.0000 0.70195  0.17757  0.83160  Biso   1.000  C
  O11      1.0000 0.75907  0.96386  0.85250  Biso   1.000  O
  O12      1.0000 0.56894  0.28343  0.97199  Biso   1.000  O
  H36      1.0000 0.72976  0.21121  0.78872  Biso   1.000  H
  O13      1.0000 0.25906  0.53611  0.35250  Biso   1.000  O
  C37      1.0000 0.24793  0.46119  0.36090  Biso   1.000  C
  N25      1.0000 0.19308  0.40936  0.30609  Biso   1.000  N
  N26      1.0000 0.29076  0.41344  0.42783  Biso   1.000  N
  C38      1.0000 0.20194  0.32239  0.33161  Biso   1.000  C
  C39      1.0000 0.14784  0.43553  0.22173  Biso   1.000  C
  C40      1.0000 0.26938  0.32497  0.41693  Biso   1.000  C
  C41      1.0000 0.35689  0.44651  0.49635  Biso   1.000  C
  H37      1.0000 0.22968  0.28882  0.28872  Biso   1.000  H
  N27      1.0000 0.11561  0.28374  0.35475  Biso   1.000  N
  H38      1.0000 0.17659  0.48792  0.20680  Biso   1.000  H
  H39      1.0000 0.16118  0.39380  0.18000  Biso   1.000  H
  N28      1.0000 0.04537  0.44670  0.21603  Biso   1.000  N
  H40      1.0000 0.32793  0.29177  0.41430  Biso   1.000  H
  N29      1.0000 0.21047  0.29021  0.47821  Biso   1.000  N
  H41      1.0000 0.41222  0.40936  0.50642  Biso   1.000  H
  H42      1.0000 0.37971  0.50072  0.47943  Biso   1.000  H
  N30      1.0000 0.31568  0.45617  0.57513  Biso   1.000  N
  C42      1.0000 0.12561  0.25971  0.43802  Biso   1.000  C
  C43      1.0000 0.03789  0.25595  0.29154  Biso   1.000  C
  C44      1.0000 0.97641  0.37993  0.19468  Biso   1.000  C
  C45      1.0000 0.00258  0.52306  0.21545  Biso   1.000  C
  C46      1.0000 0.25209  0.26253  0.56372  Biso   1.000  C
  C47      1.0000 0.32445  0.39286  0.64212  Biso   1.000  C
  C48      1.0000 0.29640  0.53442  0.60603  Biso   1.000  C
  O14      1.0000 0.06886  0.21660  0.47199  Biso   1.000  O
  H43      1.0000 0.06494  0.23518  0.24193  Biso   1.000  H
  H44      1.0000 0.00513  0.20951  0.31520  Biso   1.000  H
  N31      1.0000 0.96742  0.32083  0.26378  Biso   1.000  N
  H45      1.0000 0.98740  0.35107  0.14180  Biso   1.000  H
  C49      1.0000 0.87850  0.42549  0.18449  Biso   1.000  C
  O15      1.0000 0.04326  0.59127  0.22257  Biso   1.000  O
  N32      1.0000 0.90481  0.51170  0.20526  Biso   1.000  N
  H46      1.0000 0.31732  0.24321  0.56090  Biso   1.000  H
  H47      1.0000 0.21523  0.21510  0.58033  Biso   1.000  H
  N33      1.0000 0.25470  0.32628  0.62962  Biso   1.000  N
  C50      1.0000 0.29678  0.44111  0.72026  Biso   1.000  C
  H48      1.0000 0.39012  0.37077  0.65308  Biso   1.000  H
  N34      1.0000 0.28102  0.52532  0.69007  Biso   1.000  N
  O16      1.0000 0.29469  0.59886  0.56590  Biso   1.000  O
  C51      1.0000 0.87724  0.32064  0.28795  Biso   1.000  C
  N35      1.0000 0.82554  0.38219  0.24353  Biso   1.000  N
  H49      1.0000 0.84612  0.42078  0.12558  Biso   1.000  H
  C52      1.0000 0.83811  0.58242  0.18917  Biso   1.000  C
  C53      1.0000 0.19054  0.32817  0.68821  Biso   1.000  C
  N36      1.0000 0.21202  0.39725  0.73950  Biso   1.000  N
  H50      1.0000 0.34840  0.43860  0.76860  Biso   1.000  H
  C54      1.0000 0.27214  0.59741  0.74424  Biso   1.000  C
  O17      1.0000 0.84768  0.27157  0.33795  Biso   1.000  O
  C55      1.0000 0.72791  0.40259  0.25577  Biso   1.000  C
  H51      1.0000 0.87384  0.63130  0.17462  Biso   1.000  H
  H52      1.0000 0.79110  0.56918  0.14013  Biso   1.000  H
  N37      1.0000 0.78803  0.60275  0.26052  Biso   1.000  N
  O18      1.0000 0.12644  0.27747  0.69482  Biso   1.000  O
  C56      1.0000 0.16194  0.41758  0.81084  Biso   1.000  C
  H53      1.0000 0.30041  0.64560  0.71917  Biso   1.000  H
  H54      1.0000 0.30903  0.58706  0.79982  Biso   1.000  H
  N38      1.0000 0.17451  0.61781  0.75648  Biso   1.000  N
  H55      1.0000 0.69963  0.35440  0.28077  Biso   1.000  H
  H56      1.0000 0.69102  0.41288  0.20019  Biso   1.000  H
  N39      1.0000 0.71903  0.47468  0.30994  Biso   1.000  N
  C57      1.0000 0.70327  0.55889  0.27975  Biso   1.000  C
  C58      1.0000 0.80951  0.67177  0.31180  Biso   1.000  C
  H57      1.0000 0.12621  0.36870  0.82539  Biso   1.000  H
  H58      1.0000 0.20895  0.43082  0.85988  Biso   1.000  H
  N40      1.0000 0.09524  0.48823  0.79475  Biso   1.000  N
  C59      1.0000 0.12155  0.57451  0.81552  Biso   1.000  C
  C60      1.0000 0.12281  0.67936  0.71206  Biso   1.000  C
  C61      1.0000 0.70365  0.46552  0.39398  Biso   1.000  C
  H59      1.0000 0.65165  0.56140  0.23141  Biso   1.000  H
  C62      1.0000 0.67560  0.60714  0.35789  Biso   1.000  C
  N41      1.0000 0.74535  0.67372  0.37039  Biso   1.000  N
  O19      1.0000 0.87361  0.72247  0.30520  Biso   1.000  O
  C63      1.0000 0.99747  0.47694  0.78456  Biso   1.000  C
  C64      1.0000 0.02364  0.62000  0.80533  Biso   1.000  C
  H60      1.0000 0.15393  0.57922  0.87443  Biso   1.000  H
  N42      1.0000 0.03263  0.67917  0.73623  Biso   1.000  N
  O20      1.0000 0.15237  0.72843  0.66206  Biso   1.000  O
  N43      1.0000 0.68437  0.54383  0.42488  Biso   1.000  N
  O21      1.0000 0.70536  0.40114  0.43411  Biso   1.000  O
  H61      1.0000 0.60993  0.62916  0.34693  Biso   1.000  H
  C65      1.0000 0.74796  0.73747  0.43629  Biso   1.000  C
  N44      1.0000 0.95468  0.55330  0.78398  Biso   1.000  N
  O22      1.0000 0.95679  0.40867  0.77744  Biso   1.000  O
  H62      1.0000 0.01265  0.64887  0.85821  Biso   1.000  H
  C66      1.0000 0.96215  0.74405  0.70841  Biso   1.000  C
  C67      1.0000 0.64316  0.55349  0.50366  Biso   1.000  C
  H63      1.0000 0.68273  0.75679  0.43911  Biso   1.000  H
  H64      1.0000 0.78482  0.78490  0.41968  Biso   1.000  H
  N45      1.0000 0.78958  0.70979  0.52180  Biso   1.000  N
  C68      1.0000 0.85221  0.56447  0.77828  Biso   1.000  C
  H65      1.0000 0.93511  0.76476  0.75809  Biso   1.000  H
  H66      1.0000 0.99492  0.79049  0.68482  Biso   1.000  H
  N46      1.0000 0.88444  0.71626  0.64526  Biso   1.000  N
  H67      1.0000 0.58783  0.59058  0.49360  Biso   1.000  H
  H68      1.0000 0.62034  0.49928  0.52058  Biso   1.000  H
  N47      1.0000 0.70929  0.58656  0.57219  Biso   1.000  N
  C69      1.0000 0.73067  0.67497  0.58308  Biso   1.000  C
  C70      1.0000 0.87444  0.74029  0.56199  Biso   1.000  C
  H69      1.0000 0.82346  0.51208  0.79321  Biso   1.000  H
  H70      1.0000 0.83887  0.60620  0.82001  Biso   1.000  H
  N48      1.0000 0.80697  0.59064  0.69392  Biso   1.000  N
  C71      1.0000 0.79811  0.67754  0.66840  Biso   1.000  C
  C72      1.0000 0.75212  0.53881  0.63911  Biso   1.000  C
  H71      1.0000 0.67212  0.70816  0.58571  Biso   1.000  H
  O23      1.0000 0.93119  0.78340  0.52802  Biso   1.000  O
  H72      1.0000 0.77037  0.71118  0.71129  Biso   1.000  H
  O24      1.0000 0.74099  0.46389  0.64751  Biso   1.000  O
