data_image0
_cell_length_a       14.83
_cell_length_b       19.032
_cell_length_c       12.588
_cell_angle_alpha    90
_cell_angle_beta     94.62
_cell_angle_gamma    90

_symmetry_space_group_name_H-M    "P 1"
_symmetry_int_tables_number       1

loop_
  _symmetry_equiv_pos_as_xyz
  'x, y, z'

loop_
  _atom_site_label
  _atom_site_occupancy
  _atom_site_fract_x
  _atom_site_fract_y
  _atom_site_fract_z
  _atom_site_thermal_displace_type
  _atom_site_B_iso_or_equiv
  _atom_site_type_symbol
  C1       1.0000 0.31922  0.67612  0.55033  Biso   1.000  C
  N1       1.0000 0.32231  0.66730  0.65776  Biso   1.000  N
  N2       1.0000 0.39083  0.71742  0.52666  Biso   1.000  N
  O1       1.0000 0.26086  0.65390  0.48577  Biso   1.000  O
  C2       1.0000 0.25573  0.62831  0.70757  Biso   1.000  C
  C3       1.0000 0.39344  0.70844  0.71275  Biso   1.000  C
  C4       1.0000 0.39609  0.74800  0.42217  Biso   1.000  C
  C5       1.0000 0.43979  0.74322  0.61943  Biso   1.000  C
  N3       1.0000 0.28561  0.55811  0.74121  Biso   1.000  N
  H1       1.0000 0.20226  0.62411  0.65832  Biso   1.000  H
  H2       1.0000 0.23885  0.65411  0.76942  Biso   1.000  H
  N4       1.0000 0.46659  0.66635  0.76297  Biso   1.000  N
  C6       1.0000 0.35360  0.76240  0.78401  Biso   1.000  C
  N5       1.0000 0.46829  0.71953  0.36558  Biso   1.000  N
  H3       1.0000 0.33915  0.74017  0.38033  Biso   1.000  H
  H4       1.0000 0.40449  0.79829  0.42966  Biso   1.000  H
  N6       1.0000 0.53178  0.71953  0.63441  Biso   1.000  N
  H5       1.0000 0.43633  0.79456  0.62309  Biso   1.000  H
  C7       1.0000 0.25573  0.50000  0.68398  Biso   1.000  C
  C8       1.0000 0.33148  0.54020  0.84211  Biso   1.000  C
  C9       1.0000 0.46136  0.62821  0.86291  Biso   1.000  C
  C10      1.0000 0.54662  0.67576  0.72128  Biso   1.000  C
  H6       1.0000 0.40156  0.78956  0.81971  Biso   1.000  H
  H7       1.0000 0.32033  0.73886  0.83589  Biso   1.000  H
  H8       1.0000 0.31382  0.79288  0.74161  Biso   1.000  H
  C11      1.0000 0.45345  0.67576  0.27871  Biso   1.000  C
  C12      1.0000 0.56027  0.74322  0.38057  Biso   1.000  C
  C13      1.0000 0.60390  0.74800  0.57782  Biso   1.000  C
  N7       1.0000 0.28561  0.44183  0.74121  Biso   1.000  N
  O2       1.0000 0.20964  0.50000  0.60253  Biso   1.000  O
  C14      1.0000 0.33148  0.45975  0.84211  Biso   1.000  C
  N8       1.0000 0.42655  0.55790  0.85095  Biso   1.000  N
  C15      1.0000 0.28330  0.57377  0.93440  Biso   1.000  C
  H9       1.0000 0.52131  0.62610  0.89949  Biso   1.000  H
  H10      1.0000 0.42315  0.65448  0.90770  Biso   1.000  H
  O3       1.0000 0.61933  0.65337  0.75420  Biso   1.000  O
  N9       1.0000 0.53340  0.66635  0.23703  Biso   1.000  N
  O4       1.0000 0.38073  0.65337  0.24579  Biso   1.000  O
  C16      1.0000 0.60662  0.70844  0.28716  Biso   1.000  C
  H11      1.0000 0.56373  0.79456  0.37690  Biso   1.000  H
  N10      1.0000 0.60923  0.71742  0.47326  Biso   1.000  N
  H12      1.0000 0.66091  0.74017  0.61967  Biso   1.000  H
  H13      1.0000 0.59557  0.79829  0.57033  Biso   1.000  H
  C17      1.0000 0.25573  0.37164  0.70757  Biso   1.000  C
  N11      1.0000 0.42655  0.44210  0.85095  Biso   1.000  N
  C18      1.0000 0.28330  0.42618  0.93440  Biso   1.000  C
  C19      1.0000 0.48033  0.50000  0.85940  Biso   1.000  C
  H14      1.0000 0.22031  0.56148  0.92731  Biso   1.000  H
  H15      1.0000 0.28946  0.62400  0.93169  Biso   1.000  H
  H16      1.0000 0.31033  0.55669  0.00127  Biso   1.000  H
  C20      1.0000 0.53870  0.62821  0.13708  Biso   1.000  C
  N12      1.0000 0.67775  0.66730  0.34223  Biso   1.000  N
  C21      1.0000 0.64639  0.76240  0.21599  Biso   1.000  C
  C22      1.0000 0.68078  0.67612  0.44967  Biso   1.000  C
  N13      1.0000 0.32231  0.33265  0.65776  Biso   1.000  N
  H17      1.0000 0.20226  0.37589  0.65832  Biso   1.000  H
  H18      1.0000 0.23885  0.34589  0.76942  Biso   1.000  H
  C23      1.0000 0.46136  0.37179  0.86291  Biso   1.000  C
  H19      1.0000 0.22031  0.43847  0.92731  Biso   1.000  H
  H20      1.0000 0.28946  0.37600  0.93169  Biso   1.000  H
  H21      1.0000 0.31033  0.44331  0.00127  Biso   1.000  H
  O5       1.0000 0.56194  0.50000  0.87630  Biso   1.000  O
  N14      1.0000 0.57351  0.55790  0.14904  Biso   1.000  N
  H22      1.0000 0.47869  0.62610  0.10050  Biso   1.000  H
  H23      1.0000 0.57691  0.65448  0.09229  Biso   1.000  H
  C24      1.0000 0.74434  0.62831  0.29242  Biso   1.000  C
  H24      1.0000 0.59850  0.78956  0.18028  Biso   1.000  H
  H25      1.0000 0.67973  0.73886  0.16410  Biso   1.000  H
  H26      1.0000 0.68624  0.79288  0.25839  Biso   1.000  H
  O6       1.0000 0.73920  0.65390  0.51422  Biso   1.000  O
  C25      1.0000 0.31922  0.32388  0.55033  Biso   1.000  C
  C26      1.0000 0.39344  0.29151  0.71275  Biso   1.000  C
  N15      1.0000 0.46659  0.33360  0.76297  Biso   1.000  N
  H27      1.0000 0.52131  0.37390  0.89949  Biso   1.000  H
  H28      1.0000 0.42315  0.34547  0.90770  Biso   1.000  H
  C27      1.0000 0.51973  0.50000  0.14059  Biso   1.000  C
  C28      1.0000 0.66858  0.54020  0.15789  Biso   1.000  C
  N16      1.0000 0.71446  0.55811  0.25878  Biso   1.000  N
  H29      1.0000 0.79780  0.62411  0.34167  Biso   1.000  H
  H30      1.0000 0.76121  0.65411  0.23057  Biso   1.000  H
  N17      1.0000 0.39083  0.28252  0.52666  Biso   1.000  N
  O7       1.0000 0.26086  0.34610  0.48577  Biso   1.000  O
  C29      1.0000 0.43979  0.25673  0.61943  Biso   1.000  C
  C30      1.0000 0.35360  0.23760  0.78401  Biso   1.000  C
  C31      1.0000 0.54662  0.32419  0.72128  Biso   1.000  C
  N18      1.0000 0.57351  0.44210  0.14904  Biso   1.000  N
  O8       1.0000 0.43813  0.50000  0.12369  Biso   1.000  O
  C32      1.0000 0.66858  0.45975  0.15789  Biso   1.000  C
  C33      1.0000 0.71669  0.57377  0.06559  Biso   1.000  C
  C34      1.0000 0.74433  0.50000  0.31601  Biso   1.000  C
  C35      1.0000 0.39609  0.25200  0.42217  Biso   1.000  C
  N19      1.0000 0.53178  0.28042  0.63441  Biso   1.000  N
  H31      1.0000 0.43633  0.20539  0.62309  Biso   1.000  H
  H32      1.0000 0.40156  0.21038  0.81971  Biso   1.000  H
  H33      1.0000 0.32033  0.26109  0.83589  Biso   1.000  H
  H34      1.0000 0.31382  0.20707  0.74161  Biso   1.000  H
  O9       1.0000 0.61933  0.34663  0.75420  Biso   1.000  O
  C36      1.0000 0.53870  0.37179  0.13708  Biso   1.000  C
  N20      1.0000 0.71446  0.44183  0.25878  Biso   1.000  N
  C37      1.0000 0.71669  0.42618  0.06559  Biso   1.000  C
  H35      1.0000 0.77975  0.56148  0.07269  Biso   1.000  H
  H36      1.0000 0.71060  0.62400  0.06830  Biso   1.000  H
  H37      1.0000 0.68973  0.55669  0.99872  Biso   1.000  H
  O10      1.0000 0.79042  0.50000  0.39746  Biso   1.000  O
  N21      1.0000 0.46829  0.28042  0.36558  Biso   1.000  N
  H38      1.0000 0.33915  0.25977  0.38033  Biso   1.000  H
  H39      1.0000 0.40449  0.20171  0.42966  Biso   1.000  H
  C38      1.0000 0.60390  0.25200  0.57782  Biso   1.000  C
  N22      1.0000 0.53340  0.33360  0.23703  Biso   1.000  N
  H40      1.0000 0.47869  0.37390  0.10050  Biso   1.000  H
  H41      1.0000 0.57691  0.34547  0.09229  Biso   1.000  H
  C39      1.0000 0.74434  0.37164  0.29242  Biso   1.000  C
  H42      1.0000 0.77975  0.43847  0.07269  Biso   1.000  H
  H43      1.0000 0.71060  0.37600  0.06830  Biso   1.000  H
  H44      1.0000 0.68973  0.44331  0.99872  Biso   1.000  H
  C40      1.0000 0.45345  0.32419  0.27871  Biso   1.000  C
  C41      1.0000 0.56027  0.25673  0.38057  Biso   1.000  C
  N23      1.0000 0.60923  0.28252  0.47326  Biso   1.000  N
  H45      1.0000 0.66091  0.25977  0.61967  Biso   1.000  H
  H46      1.0000 0.59557  0.20171  0.57033  Biso   1.000  H
  C42      1.0000 0.60662  0.29151  0.28716  Biso   1.000  C
  N24      1.0000 0.67775  0.33265  0.34223  Biso   1.000  N
  H47      1.0000 0.79780  0.37589  0.34167  Biso   1.000  H
  H48      1.0000 0.76121  0.34589  0.23057  Biso   1.000  H
  O11      1.0000 0.38073  0.34663  0.24579  Biso   1.000  O
  H49      1.0000 0.56373  0.20539  0.37690  Biso   1.000  H
  C43      1.0000 0.68078  0.32388  0.44967  Biso   1.000  C
  C44      1.0000 0.64639  0.23760  0.21599  Biso   1.000  C
  O12      1.0000 0.73920  0.34610  0.51422  Biso   1.000  O
  H50      1.0000 0.59850  0.21038  0.18028  Biso   1.000  H
  H51      1.0000 0.67973  0.26109  0.16410  Biso   1.000  H
  H52      1.0000 0.68624  0.20707  0.25839  Biso   1.000  H
  C45      1.0000 0.18078  0.82382  0.44967  Biso   1.000  C
  N25      1.0000 0.17775  0.83265  0.34223  Biso   1.000  N
  N26      1.0000 0.10923  0.78252  0.47326  Biso   1.000  N
  O13      1.0000 0.23920  0.84605  0.51422  Biso   1.000  O
  C46      1.0000 0.10662  0.79151  0.28716  Biso   1.000  C
  C47      1.0000 0.24434  0.87164  0.29242  Biso   1.000  C
  C48      1.0000 0.06021  0.75673  0.38057  Biso   1.000  C
  C49      1.0000 0.10390  0.75200  0.57782  Biso   1.000  C
  C50      1.0000 0.14639  0.73760  0.21599  Biso   1.000  C
  N27      1.0000 0.03340  0.83360  0.23703  Biso   1.000  N
  H53      1.0000 0.29780  0.87589  0.34167  Biso   1.000  H
  H54      1.0000 0.26121  0.84589  0.23057  Biso   1.000  H
  N28      1.0000 0.21446  0.94183  0.25878  Biso   1.000  N
  H55      1.0000 0.06373  0.70539  0.37690  Biso   1.000  H
  N29      1.0000 0.96829  0.78042  0.36558  Biso   1.000  N
  H56      1.0000 0.16091  0.75977  0.61967  Biso   1.000  H
  H57      1.0000 0.09550  0.70166  0.57033  Biso   1.000  H
  N30      1.0000 0.03171  0.78042  0.63441  Biso   1.000  N
  H58      1.0000 0.09850  0.71038  0.18028  Biso   1.000  H
  H59      1.0000 0.17973  0.76109  0.16410  Biso   1.000  H
  H60      1.0000 0.18624  0.70707  0.25839  Biso   1.000  H
  C51      1.0000 0.03870  0.87174  0.13708  Biso   1.000  C
  C52      1.0000 0.95345  0.82419  0.27871  Biso   1.000  C
  C53      1.0000 0.16858  0.95975  0.15789  Biso   1.000  C
  C54      1.0000 0.24433  0.00000  0.31601  Biso   1.000  C
  C55      1.0000 0.89616  0.75200  0.42217  Biso   1.000  C
  C56      1.0000 0.04662  0.82419  0.72128  Biso   1.000  C
  C57      1.0000 0.93986  0.75673  0.61943  Biso   1.000  C
  H61      1.0000 0.07691  0.84547  0.09229  Biso   1.000  H
  N31      1.0000 0.07344  0.94210  0.14904  Biso   1.000  N
  H62      1.0000 0.97875  0.87390  0.10050  Biso   1.000  H
  O14      1.0000 0.88073  0.84657  0.24579  Biso   1.000  O
  C58      1.0000 0.21669  0.92618  0.06559  Biso   1.000  C
  C59      1.0000 0.16858  0.04020  0.15789  Biso   1.000  C
  N32      1.0000 0.21446  0.05811  0.25878  Biso   1.000  N
  O15      1.0000 0.29042  0.00000  0.39746  Biso   1.000  O
  H63      1.0000 0.83915  0.75977  0.38033  Biso   1.000  H
  H64      1.0000 0.90456  0.70166  0.42966  Biso   1.000  H
  N33      1.0000 0.89083  0.78252  0.52666  Biso   1.000  N
  O16      1.0000 0.11933  0.84657  0.75420  Biso   1.000  O
  N34      1.0000 0.96666  0.83360  0.76297  Biso   1.000  N
  H65      1.0000 0.93633  0.70539  0.62309  Biso   1.000  H
  C60      1.0000 0.89344  0.79151  0.71275  Biso   1.000  C
  C61      1.0000 0.01973  0.00000  0.14059  Biso   1.000  C
  H66      1.0000 0.27968  0.93847  0.07269  Biso   1.000  H
  H67      1.0000 0.21060  0.87600  0.06830  Biso   1.000  H
  H68      1.0000 0.18973  0.94325  0.99872  Biso   1.000  H
  N35      1.0000 0.07344  0.05790  0.14904  Biso   1.000  N
  C62      1.0000 0.21669  0.07382  0.06559  Biso   1.000  C
  C63      1.0000 0.24434  0.12831  0.29242  Biso   1.000  C
  C64      1.0000 0.81928  0.82382  0.55033  Biso   1.000  C
  C65      1.0000 0.96136  0.87174  0.86291  Biso   1.000  C
  N36      1.0000 0.82231  0.83265  0.65776  Biso   1.000  N
  C66      1.0000 0.85367  0.73760  0.78401  Biso   1.000  C
  O17      1.0000 0.93813  0.00000  0.12369  Biso   1.000  O
  C67      1.0000 0.03870  0.12821  0.13708  Biso   1.000  C
  H69      1.0000 0.18973  0.05669  0.99872  Biso   1.000  H
  H70      1.0000 0.27968  0.06148  0.07269  Biso   1.000  H
  H71      1.0000 0.21060  0.12400  0.06830  Biso   1.000  H
  H72      1.0000 0.29780  0.12411  0.34167  Biso   1.000  H
  H73      1.0000 0.26121  0.15411  0.23057  Biso   1.000  H
  N37      1.0000 0.17775  0.16735  0.34223  Biso   1.000  N
  O18      1.0000 0.76086  0.84605  0.48577  Biso   1.000  O
  H74      1.0000 0.02131  0.87390  0.89949  Biso   1.000  H
  H75      1.0000 0.92315  0.84547  0.90770  Biso   1.000  H
  N38      1.0000 0.92662  0.94210  0.85095  Biso   1.000  N
  C68      1.0000 0.75573  0.87164  0.70757  Biso   1.000  C
  H76      1.0000 0.90156  0.71038  0.81971  Biso   1.000  H
  H77      1.0000 0.82033  0.76109  0.83589  Biso   1.000  H
  H78      1.0000 0.81382  0.70707  0.74161  Biso   1.000  H
  H79      1.0000 0.97875  0.12610  0.10050  Biso   1.000  H
  H80      1.0000 0.07691  0.15448  0.09229  Biso   1.000  H
  N39      1.0000 0.03340  0.16635  0.23703  Biso   1.000  N
  C69      1.0000 0.10662  0.20849  0.28716  Biso   1.000  C
  C70      1.0000 0.18078  0.17612  0.44967  Biso   1.000  C
  C71      1.0000 0.83148  0.95975  0.84211  Biso   1.000  C
  C72      1.0000 0.98033  0.00000  0.85940  Biso   1.000  C
  H81      1.0000 0.70226  0.87589  0.65832  Biso   1.000  H
  H82      1.0000 0.73885  0.84589  0.76942  Biso   1.000  H
  N40      1.0000 0.78561  0.94183  0.74121  Biso   1.000  N
  C73      1.0000 0.95345  0.17576  0.27871  Biso   1.000  C
  C74      1.0000 0.06021  0.24327  0.38057  Biso   1.000  C
  C75      1.0000 0.14639  0.26240  0.21599  Biso   1.000  C
  N41      1.0000 0.10923  0.21748  0.47326  Biso   1.000  N
  O19      1.0000 0.23920  0.15390  0.51422  Biso   1.000  O
  C76      1.0000 0.78337  0.92618  0.93440  Biso   1.000  C
  C77      1.0000 0.83148  0.04020  0.84211  Biso   1.000  C
  N42      1.0000 0.92662  0.05790  0.85095  Biso   1.000  N
  O20      1.0000 0.06194  0.00000  0.87630  Biso   1.000  O
  C78      1.0000 0.75573  0.00000  0.68398  Biso   1.000  C
  N43      1.0000 0.96829  0.21953  0.36558  Biso   1.000  N
  O21      1.0000 0.88073  0.15337  0.24579  Biso   1.000  O
  H83      1.0000 0.06373  0.29461  0.37690  Biso   1.000  H
  H84      1.0000 0.09850  0.28962  0.18028  Biso   1.000  H
  H85      1.0000 0.17973  0.23891  0.16410  Biso   1.000  H
  H86      1.0000 0.18624  0.29288  0.25839  Biso   1.000  H
  C79      1.0000 0.10390  0.24800  0.57782  Biso   1.000  C
  H87      1.0000 0.72038  0.93847  0.92731  Biso   1.000  H
  H88      1.0000 0.78946  0.87600  0.93169  Biso   1.000  H
  H89      1.0000 0.81033  0.94325  0.00127  Biso   1.000  H
  N44      1.0000 0.78561  0.05811  0.74121  Biso   1.000  N
  C80      1.0000 0.78337  0.07382  0.93440  Biso   1.000  C
  C81      1.0000 0.96136  0.12821  0.86291  Biso   1.000  C
  O22      1.0000 0.70964  0.00000  0.60253  Biso   1.000  O
  C82      1.0000 0.89616  0.24800  0.42217  Biso   1.000  C
  H90      1.0000 0.16091  0.24017  0.61967  Biso   1.000  H
  H91      1.0000 0.09550  0.29829  0.57033  Biso   1.000  H
  N45      1.0000 0.03171  0.21953  0.63441  Biso   1.000  N
  C83      1.0000 0.75573  0.12831  0.70757  Biso   1.000  C
  H92      1.0000 0.72038  0.06148  0.92731  Biso   1.000  H
  H93      1.0000 0.78946  0.12400  0.93169  Biso   1.000  H
  H94      1.0000 0.81033  0.05669  0.00127  Biso   1.000  H
  H95      1.0000 0.92315  0.15448  0.90770  Biso   1.000  H
  N46      1.0000 0.96666  0.16635  0.76297  Biso   1.000  N
  H96      1.0000 0.02131  0.12610  0.89949  Biso   1.000  H
  H97      1.0000 0.83915  0.24017  0.38033  Biso   1.000  H
  H98      1.0000 0.90456  0.29829  0.42966  Biso   1.000  H
  N47      1.0000 0.89083  0.21748  0.52666  Biso   1.000  N
  C84      1.0000 0.93986  0.24327  0.61943  Biso   1.000  C
  C85      1.0000 0.04662  0.17576  0.72128  Biso   1.000  C
  H99      1.0000 0.70226  0.12411  0.65832  Biso   1.000  H
  H100     1.0000 0.73885  0.15411  0.76942  Biso   1.000  H
  N48      1.0000 0.82231  0.16735  0.65776  Biso   1.000  N
  C86      1.0000 0.89344  0.20849  0.71275  Biso   1.000  C
  C87      1.0000 0.81928  0.17612  0.55033  Biso   1.000  C
  H101     1.0000 0.93633  0.29461  0.62309  Biso   1.000  H
  O23      1.0000 0.11933  0.15337  0.75420  Biso   1.000  O
  C88      1.0000 0.85367  0.26240  0.78401  Biso   1.000  C
  O24      1.0000 0.76086  0.15390  0.48577  Biso   1.000  O
  H102     1.0000 0.90156  0.28962  0.81971  Biso   1.000  H
  H103     1.0000 0.82033  0.23891  0.83589  Biso   1.000  H
  H104     1.0000 0.81382  0.29288  0.74161  Biso   1.000  H
