data_image0
_cell_length_a       13.882
_cell_length_b       20.482
_cell_length_c       21.231
_cell_angle_alpha    90
_cell_angle_beta     93.7
_cell_angle_gamma    90

_symmetry_space_group_name_H-M    "P 1"
_symmetry_int_tables_number       1

loop_
  _symmetry_equiv_pos_as_xyz
  'x, y, z'

loop_
  _atom_site_label
  _atom_site_occupancy
  _atom_site_fract_x
  _atom_site_fract_y
  _atom_site_fract_z
  _atom_site_thermal_displace_type
  _atom_site_B_iso_or_equiv
  _atom_site_type_symbol
  C1       1.0000 0.50694  0.50283  0.38996  Biso   1.000  C
  C2       1.0000 0.45733  0.44039  0.36683  Biso   1.000  C
  C3       1.0000 0.45505  0.56313  0.36490  Biso   1.000  C
  H1       1.0000 0.57390  0.50322  0.37651  Biso   1.000  H
  H2       1.0000 0.51011  0.50371  0.43669  Biso   1.000  H
  C4       1.0000 0.48416  0.41056  0.31175  Biso   1.000  C
  C5       1.0000 0.38337  0.41246  0.39846  Biso   1.000  C
  C6       1.0000 0.47765  0.59047  0.30713  Biso   1.000  C
  C7       1.0000 0.38380  0.59262  0.39775  Biso   1.000  C
  C8       1.0000 0.43736  0.35460  0.28858  Biso   1.000  C
  H3       1.0000 0.53514  0.42872  0.28962  Biso   1.000  H
  C9       1.0000 0.33866  0.35514  0.37684  Biso   1.000  C
  O1       1.0000 0.35613  0.44644  0.45094  Biso   1.000  O
  O2       1.0000 0.54914  0.55932  0.27597  Biso   1.000  O
  C10      1.0000 0.43034  0.64627  0.28466  Biso   1.000  C
  H4       1.0000 0.36788  0.57490  0.43711  Biso   1.000  H
  C11      1.0000 0.33522  0.64793  0.37405  Biso   1.000  C
  C12      1.0000 0.36486  0.32604  0.32044  Biso   1.000  C
  O3       1.0000 0.46030  0.32477  0.23279  Biso   1.000  O
  H5       1.0000 0.29025  0.33561  0.40020  Biso   1.000  H
  C13      1.0000 0.28741  0.41959  0.48818  Biso   1.000  C
  C14      1.0000 0.55781  0.57782  0.21202  Biso   1.000  C
  C15      1.0000 0.35785  0.67542  0.31723  Biso   1.000  C
  H6       1.0000 0.44779  0.66502  0.24610  Biso   1.000  H
  O4       1.0000 0.26286  0.67947  0.40506  Biso   1.000  O
  C16      1.0000 0.30973  0.26697  0.29391  Biso   1.000  C
  C17      1.0000 0.51433  0.36251  0.19116  Biso   1.000  C
  H7       1.0000 0.25825  0.45391  0.51381  Biso   1.000  H
  H8       1.0000 0.23566  0.39791  0.46161  Biso   1.000  H
  C18      1.0000 0.34364  0.36891  0.53161  Biso   1.000  C
  H9       1.0000 0.49365  0.57782  0.18889  Biso   1.000  H
  H10      1.0000 0.58540  0.62220  0.20990  Biso   1.000  H
  C19      1.0000 0.62103  0.53076  0.18398  Biso   1.000  C
  C20      1.0000 0.30332  0.73367  0.28877  Biso   1.000  C
  C21      1.0000 0.23984  0.65409  0.46454  Biso   1.000  C
  C22      1.0000 0.22553  0.28791  0.24950  Biso   1.000  C
  H11      1.0000 0.28553  0.24119  0.32903  Biso   1.000  H
  H12      1.0000 0.35372  0.23880  0.27102  Biso   1.000  H
  H13      1.0000 0.48375  0.40582  0.18422  Biso   1.000  H
  H14      1.0000 0.58072  0.36930  0.20990  Biso   1.000  H
  C23      1.0000 0.51707  0.32795  0.13140  Biso   1.000  C
  C24      1.0000 0.38923  0.33312  0.56583  Biso   1.000  C
  C25      1.0000 0.67012  0.49312  0.15878  Biso   1.000  C
  C26      1.0000 0.21885  0.71145  0.24529  Biso   1.000  C
  H15      1.0000 0.34741  0.76062  0.26479  Biso   1.000  H
  H16      1.0000 0.27946  0.76091  0.32298  Biso   1.000  H
  H17      1.0000 0.18222  0.67708  0.47851  Biso   1.000  H
  H18      1.0000 0.22322  0.60731  0.45963  Biso   1.000  H
  C27      1.0000 0.31885  0.66092  0.51334  Biso   1.000  C
  C28      1.0000 0.23720  0.29484  0.18521  Biso   1.000  C
  C29      1.0000 0.13580  0.30275  0.27163  Biso   1.000  C
  C30      1.0000 0.52329  0.30212  0.08269  Biso   1.000  C
  H19      1.0000 0.42578  0.30441  0.59320  Biso   1.000  H
  H20      1.0000 0.70962  0.46270  0.13862  Biso   1.000  H
  C31      1.0000 0.23029  0.70198  0.18091  Biso   1.000  C
  C32      1.0000 0.12920  0.69759  0.26828  Biso   1.000  C
  C33      1.0000 0.38393  0.66590  0.55162  Biso   1.000  C
  H21      1.0000 0.29738  0.28440  0.16878  Biso   1.000  H
  C34      1.0000 0.16138  0.31696  0.14471  Biso   1.000  C
  O5       1.0000 0.12886  0.29426  0.33639  Biso   1.000  O
  C35      1.0000 0.05979  0.32297  0.23066  Biso   1.000  C
  H22      1.0000 0.52832  0.28112  0.04319  Biso   1.000  H
  C36      1.0000 0.15315  0.68157  0.14084  Biso   1.000  C
  O6       1.0000 0.32035  0.71512  0.15991  Biso   1.000  O
  C37      1.0000 0.05331  0.67406  0.22854  Biso   1.000  C
  H23      1.0000 0.11980  0.70433  0.31170  Biso   1.000  H
  H24      1.0000 0.43639  0.66981  0.58239  Biso   1.000  H
  O7       1.0000 0.16923  0.32609  0.08047  Biso   1.000  O
  C38      1.0000 0.07164  0.33068  0.16676  Biso   1.000  C
  C39      1.0000 0.04657  0.32043  0.36386  Biso   1.000  C
  H25      1.0000 0.99870  0.33171  0.24662  Biso   1.000  H
  C40      1.0000 0.06425  0.66644  0.16416  Biso   1.000  C
  H26      1.0000 0.16098  0.67791  0.09690  Biso   1.000  H
  C41      1.0000 0.34292  0.68196  0.10398  Biso   1.000  C
  O8       1.0000 0.96460  0.65633  0.24855  Biso   1.000  O
  C42      1.0000 0.26342  0.33039  0.05895  Biso   1.000  C
  C43      1.0000 0.98927  0.35558  0.12262  Biso   1.000  C
  H27      1.0000 0.04014  0.36759  0.35418  Biso   1.000  H
  C44      1.0000 0.05985  0.31061  0.43126  Biso   1.000  C
  H28      1.0000 0.98734  0.29792  0.34691  Biso   1.000  H
  C45      1.0000 0.98210  0.64100  0.12078  Biso   1.000  C
  H29      1.0000 0.32483  0.63529  0.10681  Biso   1.000  H
  H30      1.0000 0.30608  0.70130  0.06712  Biso   1.000  H
  C46      1.0000 0.44634  0.68782  0.09638  Biso   1.000  C
  C47      1.0000 0.95249  0.65409  0.31421  Biso   1.000  C
  H31      1.0000 0.30412  0.35900  0.08741  Biso   1.000  H
  H32      1.0000 0.29342  0.28659  0.05862  Biso   1.000  H
  C48      1.0000 0.25567  0.35768  0.99500  Biso   1.000  C
  H33      1.0000 0.92734  0.33879  0.13669  Biso   1.000  H
  H34      1.0000 0.99711  0.33879  0.07948  Biso   1.000  H
  C49      1.0000 0.98652  0.42930  0.12111  Biso   1.000  C
  C50      1.0000 0.07343  0.30051  0.48568  Biso   1.000  C
  C51      1.0000 0.98251  0.56699  0.12055  Biso   1.000  C
  H35      1.0000 0.91998  0.65702  0.13518  Biso   1.000  H
  H36      1.0000 0.98898  0.65741  0.07741  Biso   1.000  H
  C52      1.0000 0.52862  0.69251  0.08784  Biso   1.000  C
  H37      1.0000 0.00170  0.62533  0.33549  Biso   1.000  H
  H38      1.0000 0.95943  0.69832  0.33271  Biso   1.000  H
  C53      1.0000 0.85539  0.62860  0.32223  Biso   1.000  C
  C54      1.0000 0.25225  0.38063  0.94511  Biso   1.000  C
  C55      1.0000 0.04274  0.46451  0.08123  Biso   1.000  C
  C56      1.0000 0.93058  0.46377  0.16156  Biso   1.000  C
  H39      1.0000 0.08447  0.29240  0.52962  Biso   1.000  H
  C57      1.0000 0.04178  0.53271  0.08099  Biso   1.000  C
  C58      1.0000 0.92747  0.53164  0.16071  Biso   1.000  C
  H40      1.0000 0.59529  0.69622  0.08090  Biso   1.000  H
  C59      1.0000 0.77760  0.60912  0.32822  Biso   1.000  C
  H41      1.0000 0.24957  0.39942  0.90409  Biso   1.000  H
  H42      1.0000 0.08238  0.44180  0.05371  Biso   1.000  H
  O9       1.0000 0.87565  0.42633  0.20126  Biso   1.000  O
  O10      1.0000 0.09502  0.57060  0.04314  Biso   1.000  O
  H43      1.0000 0.88702  0.55400  0.18799  Biso   1.000  H
  H44      1.0000 0.71419  0.59320  0.33309  Biso   1.000  H
  C60      1.0000 0.85775  0.45533  0.26002  Biso   1.000  C
  C61      1.0000 0.16709  0.53901  0.00920  Biso   1.000  C
  H45      1.0000 0.91920  0.46870  0.28272  Biso   1.000  H
  H46      1.0000 0.81640  0.49448  0.25341  Biso   1.000  H
  C62      1.0000 0.80870  0.40621  0.29660  Biso   1.000  C
  H47      1.0000 0.21321  0.51528  0.03851  Biso   1.000  H
  H48      1.0000 0.13719  0.50752  0.97848  Biso   1.000  H
  C63      1.0000 0.21638  0.59076  0.97649  Biso   1.000  C
  C64      1.0000 0.76833  0.36720  0.32549  Biso   1.000  C
  C65      1.0000 0.25441  0.63348  0.94945  Biso   1.000  C
  H49      1.0000 0.73563  0.33551  0.34890  Biso   1.000  H
  H50      1.0000 0.28476  0.66771  0.92779  Biso   1.000  H
  C66      1.0000 0.49314  0.49717  0.61005  Biso   1.000  C
  C67      1.0000 0.54503  0.43687  0.63511  Biso   1.000  C
  H51      1.0000 0.42618  0.49683  0.62350  Biso   1.000  H
  H52      1.0000 0.48997  0.49629  0.56332  Biso   1.000  H
  C68      1.0000 0.54275  0.55961  0.63318  Biso   1.000  C
  C69      1.0000 0.61628  0.40738  0.60226  Biso   1.000  C
  C70      1.0000 0.52250  0.40953  0.69289  Biso   1.000  C
  C71      1.0000 0.51599  0.58944  0.68826  Biso   1.000  C
  C72      1.0000 0.61678  0.58759  0.60156  Biso   1.000  C
  C73      1.0000 0.66486  0.35207  0.62596  Biso   1.000  C
  H53      1.0000 0.63227  0.42510  0.56290  Biso   1.000  H
  C74      1.0000 0.56973  0.35377  0.71531  Biso   1.000  C
  O11      1.0000 0.45102  0.44068  0.72404  Biso   1.000  O
  H54      1.0000 0.46494  0.57128  0.71040  Biso   1.000  H
  C75      1.0000 0.56280  0.64540  0.71144  Biso   1.000  C
  O12      1.0000 0.64395  0.55356  0.54907  Biso   1.000  O
  C76      1.0000 0.66149  0.64486  0.62317  Biso   1.000  C
  O13      1.0000 0.73722  0.32057  0.59495  Biso   1.000  O
  C77      1.0000 0.64223  0.32463  0.68279  Biso   1.000  C
  H55      1.0000 0.55229  0.33503  0.75391  Biso   1.000  H
  C78      1.0000 0.44227  0.42222  0.78795  Biso   1.000  C
  O14      1.0000 0.53978  0.67523  0.76722  Biso   1.000  O
  C79      1.0000 0.63529  0.67396  0.67958  Biso   1.000  C
  C80      1.0000 0.71266  0.58041  0.51178  Biso   1.000  C
  H56      1.0000 0.70982  0.66439  0.59981  Biso   1.000  H
  C81      1.0000 0.76024  0.34591  0.53548  Biso   1.000  C
  C82      1.0000 0.69676  0.26633  0.71125  Biso   1.000  C
  H57      1.0000 0.50651  0.42222  0.81112  Biso   1.000  H
  H58      1.0000 0.41468  0.37780  0.79012  Biso   1.000  H
  C83      1.0000 0.37905  0.46924  0.81603  Biso   1.000  C
  C84      1.0000 0.48575  0.63749  0.80885  Biso   1.000  C
  C85      1.0000 0.69034  0.73303  0.70605  Biso   1.000  C
  H59      1.0000 0.74183  0.54609  0.48620  Biso   1.000  H
  H60      1.0000 0.76442  0.60209  0.53840  Biso   1.000  H
  C86      1.0000 0.65644  0.63109  0.46841  Biso   1.000  C
  C87      1.0000 0.68123  0.33913  0.48667  Biso   1.000  C
  H61      1.0000 0.81786  0.32292  0.52151  Biso   1.000  H
  H62      1.0000 0.77686  0.39269  0.54038  Biso   1.000  H
  C88      1.0000 0.78130  0.28855  0.75472  Biso   1.000  C
  H63      1.0000 0.65267  0.23938  0.73522  Biso   1.000  H
  H64      1.0000 0.72069  0.23909  0.67703  Biso   1.000  H
  C89      1.0000 0.32996  0.50688  0.84119  Biso   1.000  C
  H65      1.0000 0.51640  0.59423  0.81579  Biso   1.000  H
  H66      1.0000 0.41936  0.63070  0.79012  Biso   1.000  H
  C90      1.0000 0.48300  0.67205  0.86861  Biso   1.000  C
  C91      1.0000 0.77455  0.71209  0.75052  Biso   1.000  C
  H67      1.0000 0.71454  0.75881  0.67099  Biso   1.000  H
  H68      1.0000 0.64636  0.76120  0.72899  Biso   1.000  H
  C92      1.0000 0.61085  0.66693  0.43419  Biso   1.000  C
  C93      1.0000 0.61615  0.33410  0.44839  Biso   1.000  C
  C94      1.0000 0.76979  0.29802  0.81910  Biso   1.000  C
  C95      1.0000 0.87088  0.30241  0.73173  Biso   1.000  C
  H69      1.0000 0.29046  0.53730  0.86139  Biso   1.000  H
  C96      1.0000 0.47679  0.69793  0.91732  Biso   1.000  C
  C97      1.0000 0.76288  0.70516  0.81480  Biso   1.000  C
  C98      1.0000 0.86428  0.69725  0.72838  Biso   1.000  C
  H70      1.0000 0.57437  0.69559  0.40681  Biso   1.000  H
  H71      1.0000 0.56376  0.33019  0.41762  Biso   1.000  H
  O15      1.0000 0.67973  0.28488  0.84010  Biso   1.000  O
  C99      1.0000 0.84701  0.31843  0.85917  Biso   1.000  C
  H72      1.0000 0.88028  0.29572  0.68831  Biso   1.000  H
  C100     1.0000 0.94676  0.32594  0.77143  Biso   1.000  C
  H73      1.0000 0.47183  0.71892  0.95682  Biso   1.000  H
  H74      1.0000 0.70270  0.71560  0.83123  Biso   1.000  H
  C101     1.0000 0.83870  0.68304  0.85530  Biso   1.000  C
  O16      1.0000 0.87129  0.70574  0.66362  Biso   1.000  O
  C102     1.0000 0.94029  0.67703  0.76935  Biso   1.000  C
  C103     1.0000 0.65715  0.31804  0.89598  Biso   1.000  C
  C104     1.0000 0.93590  0.33356  0.83585  Biso   1.000  C
  H75      1.0000 0.83910  0.32209  0.90311  Biso   1.000  H
  O17      1.0000 0.03548  0.34367  0.75146  Biso   1.000  O
  O18      1.0000 0.83085  0.67396  0.91954  Biso   1.000  O
  C105     1.0000 0.92844  0.66932  0.83326  Biso   1.000  C
  C106     1.0000 0.95358  0.67957  0.63615  Biso   1.000  C
  H76      1.0000 0.00138  0.66829  0.75340  Biso   1.000  H
  H77      1.0000 0.67532  0.36471  0.89320  Biso   1.000  H
  H78      1.0000 0.69400  0.29870  0.93289  Biso   1.000  H
  C107     1.0000 0.55381  0.31218  0.90363  Biso   1.000  C
  C108     1.0000 0.01798  0.35900  0.87923  Biso   1.000  C
  C109     1.0000 0.04759  0.34591  0.68581  Biso   1.000  C
  C110     1.0000 0.73666  0.66961  0.94106  Biso   1.000  C
  C111     1.0000 0.01081  0.64442  0.87739  Biso   1.000  C
  H79      1.0000 0.95994  0.63241  0.64583  Biso   1.000  H
  C112     1.0000 0.94023  0.68939  0.56875  Biso   1.000  C
  H80      1.0000 0.01274  0.70213  0.65310  Biso   1.000  H
  C113     1.0000 0.47146  0.30749  0.91217  Biso   1.000  C
  C114     1.0000 0.01757  0.43301  0.87946  Biso   1.000  C
  H81      1.0000 0.08009  0.34298  0.86479  Biso   1.000  H
  H82      1.0000 0.01110  0.34259  0.92261  Biso   1.000  H
  H83      1.0000 0.99838  0.37472  0.66452  Biso   1.000  H
  H84      1.0000 0.04065  0.30168  0.66730  Biso   1.000  H
  C115     1.0000 0.14469  0.37140  0.67778  Biso   1.000  C
  H85      1.0000 0.69596  0.64100  0.91260  Biso   1.000  H
  H86      1.0000 0.70666  0.71341  0.94139  Biso   1.000  H
  C116     1.0000 0.74441  0.64232  0.00502  Biso   1.000  C
  C117     1.0000 0.01355  0.57070  0.87890  Biso   1.000  C
  H87      1.0000 0.07282  0.66121  0.86332  Biso   1.000  H
  H88      1.0000 0.00297  0.66121  0.92053  Biso   1.000  H
  C118     1.0000 0.92664  0.69949  0.51428  Biso   1.000  C
  H89      1.0000 0.40479  0.30378  0.91911  Biso   1.000  H
  C119     1.0000 0.95830  0.46729  0.91902  Biso   1.000  C
  C120     1.0000 0.07261  0.46836  0.83930  Biso   1.000  C
  C121     1.0000 0.22248  0.39088  0.67179  Biso   1.000  C
  C122     1.0000 0.74783  0.61942  0.05490  Biso   1.000  C
  C123     1.0000 0.95734  0.53554  0.91878  Biso   1.000  C
  C124     1.0000 0.06950  0.53623  0.83845  Biso   1.000  C
  H90      1.0000 0.91561  0.70760  0.47039  Biso   1.000  H
  O19      1.0000 0.90506  0.42940  0.95687  Biso   1.000  O
  H91      1.0000 0.11306  0.44600  0.81202  Biso   1.000  H
  H92      1.0000 0.28589  0.40680  0.66693  Biso   1.000  H
  H93      1.0000 0.75050  0.60062  0.09592  Biso   1.000  H
  H94      1.0000 0.91770  0.55820  0.94630  Biso   1.000  H
  O20      1.0000 0.12443  0.57367  0.79875  Biso   1.000  O
  C125     1.0000 0.83298  0.46099  0.99081  Biso   1.000  C
  C126     1.0000 0.14240  0.54467  0.73994  Biso   1.000  C
  H95      1.0000 0.78687  0.48472  0.96150  Biso   1.000  H
  H96      1.0000 0.86289  0.49248  0.02153  Biso   1.000  H
  C127     1.0000 0.78369  0.40924  0.02347  Biso   1.000  C
  H97      1.0000 0.08088  0.53130  0.71729  Biso   1.000  H
  H98      1.0000 0.18368  0.50552  0.74660  Biso   1.000  H
  C128     1.0000 0.19138  0.59379  0.70341  Biso   1.000  C
  C129     1.0000 0.74567  0.36652  0.05056  Biso   1.000  C
  C130     1.0000 0.23175  0.63280  0.67453  Biso   1.000  C
  H99      1.0000 0.71532  0.33229  0.07223  Biso   1.000  H
  H100     1.0000 0.26445  0.66449  0.65111  Biso   1.000  H
  C131     1.0000 0.52337  0.19788  0.58272  Biso   1.000  C
  C132     1.0000 0.51715  0.17205  0.63143  Biso   1.000  C
  H101     1.0000 0.52833  0.21892  0.54322  Biso   1.000  H
  C133     1.0000 0.51433  0.13749  0.69114  Biso   1.000  C
  O21      1.0000 0.46038  0.17523  0.73277  Biso   1.000  O
  H102     1.0000 0.48375  0.09418  0.68420  Biso   1.000  H
  H103     1.0000 0.58080  0.13070  0.70992  Biso   1.000  H
  C134     1.0000 0.43736  0.14540  0.78861  Biso   1.000  C
  C135     1.0000 0.36487  0.17396  0.82047  Biso   1.000  C
  C136     1.0000 0.48416  0.08944  0.81173  Biso   1.000  C
  C137     1.0000 0.30981  0.23303  0.79394  Biso   1.000  C
  C138     1.0000 0.33866  0.14486  0.87682  Biso   1.000  C
  C139     1.0000 0.45740  0.05961  0.86682  Biso   1.000  C
  H104     1.0000 0.53514  0.07128  0.78960  Biso   1.000  H
  C140     1.0000 0.22561  0.21209  0.74948  Biso   1.000  C
  H105     1.0000 0.28561  0.25881  0.82901  Biso   1.000  H
  H106     1.0000 0.35379  0.26120  0.77100  Biso   1.000  H
  H107     1.0000 0.29026  0.16439  0.90019  Biso   1.000  H
  C141     1.0000 0.38337  0.08754  0.89844  Biso   1.000  C
  C142     1.0000 0.50701  0.99717  0.88994  Biso   1.000  C
  C143     1.0000 0.23727  0.20516  0.68519  Biso   1.000  C
  C144     1.0000 0.13588  0.19725  0.77166  Biso   1.000  C
  O22      1.0000 0.35621  0.05356  0.95097  Biso   1.000  O
  C145     1.0000 0.45512  0.93687  0.86488  Biso   1.000  C
  H108     1.0000 0.57397  0.99683  0.87649  Biso   1.000  H
  H109     1.0000 0.51018  0.99629  0.93672  Biso   1.000  H
  C146     1.0000 0.16145  0.18304  0.64470  Biso   1.000  C
  H110     1.0000 0.29746  0.21560  0.66881  Biso   1.000  H
  C147     1.0000 0.05987  0.17703  0.73069  Biso   1.000  C
  O23      1.0000 0.12887  0.20574  0.83642  Biso   1.000  O
  C148     1.0000 0.28749  0.08041  0.98821  Biso   1.000  C
  C149     1.0000 0.47766  0.90953  0.80716  Biso   1.000  C
  C150     1.0000 0.38388  0.90738  0.89773  Biso   1.000  C
  O24      1.0000 0.16931  0.17391  0.58050  Biso   1.000  O
  C151     1.0000 0.07164  0.16932  0.66678  Biso   1.000  C
  H111     1.0000 0.99877  0.16829  0.74660  Biso   1.000  H
  C152     1.0000 0.04658  0.17957  0.86389  Biso   1.000  C
  H112     1.0000 0.23566  0.10209  0.96159  Biso   1.000  H
  H113     1.0000 0.25817  0.04609  0.01379  Biso   1.000  H
  C153     1.0000 0.34364  0.13109  0.03164  Biso   1.000  C
  O25      1.0000 0.54914  0.94068  0.77600  Biso   1.000  O
  C154     1.0000 0.43035  0.85377  0.78469  Biso   1.000  C
  H114     1.0000 0.36788  0.92510  0.93710  Biso   1.000  H
  C155     1.0000 0.33529  0.85207  0.87404  Biso   1.000  C
  C156     1.0000 0.26342  0.16961  0.55898  Biso   1.000  C
  C157     1.0000 0.98934  0.14442  0.62261  Biso   1.000  C
  H115     1.0000 0.04022  0.13241  0.85421  Biso   1.000  H
  C158     1.0000 0.05993  0.18939  0.93129  Biso   1.000  C
  H116     1.0000 0.98734  0.20208  0.84690  Biso   1.000  H
  C159     1.0000 0.38923  0.16688  0.06581  Biso   1.000  C
  C160     1.0000 0.55789  0.92222  0.71205  Biso   1.000  C
  C161     1.0000 0.35785  0.82463  0.81721  Biso   1.000  C
  H117     1.0000 0.44786  0.83503  0.74613  Biso   1.000  H
  O26      1.0000 0.26293  0.82057  0.90505  Biso   1.000  O
  C162     1.0000 0.25567  0.14232  0.49503  Biso   1.000  C
  H118     1.0000 0.30419  0.14100  0.58740  Biso   1.000  H
  H119     1.0000 0.29343  0.21341  0.55860  Biso   1.000  H
  H120     1.0000 0.92734  0.16121  0.63672  Biso   1.000  H
  H121     1.0000 0.99712  0.16121  0.57951  Biso   1.000  H
  C163     1.0000 0.98660  0.07070  0.62114  Biso   1.000  C
  C164     1.0000 0.07351  0.19949  0.98571  Biso   1.000  C
  H122     1.0000 0.42572  0.19559  0.09323  Biso   1.000  H
  H123     1.0000 0.49365  0.92222  0.68892  Biso   1.000  H
  H124     1.0000 0.58548  0.87780  0.70992  Biso   1.000  H
  C165     1.0000 0.62103  0.96929  0.68401  Biso   1.000  C
  C166     1.0000 0.30339  0.76633  0.78880  Biso   1.000  C
  C167     1.0000 0.23991  0.84591  0.96452  Biso   1.000  C
  C168     1.0000 0.25226  0.11942  0.44514  Biso   1.000  C
  C169     1.0000 0.04281  0.03554  0.58121  Biso   1.000  C
  C170     1.0000 0.93066  0.03623  0.66155  Biso   1.000  C
  H125     1.0000 0.08440  0.20760  0.02961  Biso   1.000  H
  C171     1.0000 0.67019  0.00688  0.65881  Biso   1.000  C
  C172     1.0000 0.21885  0.78855  0.74528  Biso   1.000  C
  H126     1.0000 0.34749  0.73943  0.76482  Biso   1.000  H
  H127     1.0000 0.27947  0.73909  0.82301  Biso   1.000  H
  H128     1.0000 0.18229  0.82292  0.97849  Biso   1.000  H
  H129     1.0000 0.22329  0.89269  0.95961  Biso   1.000  H
  C173     1.0000 0.31879  0.83913  0.01337  Biso   1.000  C
  H130     1.0000 0.24951  0.10062  0.40412  Biso   1.000  H
  H131     1.0000 0.08245  0.05820  0.55370  Biso   1.000  H
  C174     1.0000 0.04185  0.96729  0.58098  Biso   1.000  C
  C175     1.0000 0.92755  0.96836  0.66070  Biso   1.000  C
  O27      1.0000 0.87573  0.07367  0.70129  Biso   1.000  O
  H132     1.0000 0.70969  0.03730  0.63861  Biso   1.000  H
  C176     1.0000 0.23037  0.79802  0.68094  Biso   1.000  C
  C177     1.0000 0.12927  0.80241  0.76826  Biso   1.000  C
  C178     1.0000 0.38393  0.83410  0.05160  Biso   1.000  C
  C179     1.0000 0.98258  0.93306  0.62058  Biso   1.000  C
  O28      1.0000 0.09510  0.92940  0.54312  Biso   1.000  O
  H133     1.0000 0.88709  0.94600  0.68802  Biso   1.000  H
  C180     1.0000 0.85775  0.04467  0.76005  Biso   1.000  C
  C181     1.0000 0.15315  0.81843  0.64087  Biso   1.000  C
  O29      1.0000 0.32042  0.78488  0.65989  Biso   1.000  O
  C182     1.0000 0.05339  0.82594  0.72857  Biso   1.000  C
  H134     1.0000 0.11987  0.79572  0.81169  Biso   1.000  H
  H135     1.0000 0.43632  0.83019  0.08242  Biso   1.000  H
  C183     1.0000 0.98217  0.85900  0.62077  Biso   1.000  C
  C184     1.0000 0.16717  0.96099  0.50919  Biso   1.000  C
  H136     1.0000 0.91927  0.03130  0.78271  Biso   1.000  H
  H137     1.0000 0.81647  0.00552  0.75340  Biso   1.000  H
  C185     1.0000 0.80878  0.09379  0.79663  Biso   1.000  C
  C186     1.0000 0.06425  0.83361  0.66414  Biso   1.000  C
  H138     1.0000 0.16106  0.82209  0.59688  Biso   1.000  H
  C187     1.0000 0.34293  0.81804  0.60401  Biso   1.000  C
  O30      1.0000 0.96460  0.84367  0.74853  Biso   1.000  O
  H139     1.0000 0.92006  0.84298  0.63521  Biso   1.000  H
  H140     1.0000 0.98906  0.84259  0.57739  Biso   1.000  H
  H141     1.0000 0.21328  0.98472  0.53850  Biso   1.000  H
  H142     1.0000 0.13713  0.99253  0.47851  Biso   1.000  H
  C188     1.0000 0.21631  0.90924  0.47652  Biso   1.000  C
  C189     1.0000 0.76841  0.13280  0.82552  Biso   1.000  C
  H143     1.0000 0.32484  0.86471  0.60679  Biso   1.000  H
  H144     1.0000 0.30615  0.79870  0.56710  Biso   1.000  H
  C190     1.0000 0.44634  0.81218  0.59636  Biso   1.000  C
  C191     1.0000 0.95257  0.84591  0.81424  Biso   1.000  C
  C192     1.0000 0.25434  0.86652  0.44943  Biso   1.000  C
  H145     1.0000 0.73571  0.16449  0.84893  Biso   1.000  H
  C193     1.0000 0.52862  0.80749  0.58782  Biso   1.000  C
  H146     1.0000 0.95951  0.80173  0.83269  Biso   1.000  H
  C194     1.0000 0.85547  0.87140  0.82226  Biso   1.000  C
  H147     1.0000 0.00178  0.87472  0.83552  Biso   1.000  H
  H148     1.0000 0.28477  0.83229  0.42781  Biso   1.000  H
  H149     1.0000 0.59537  0.80383  0.58088  Biso   1.000  H
  C195     1.0000 0.77768  0.89093  0.82821  Biso   1.000  C
  H150     1.0000 0.71427  0.90680  0.83312  Biso   1.000  H
  C196     1.0000 0.47671  0.80212  0.41729  Biso   1.000  C
  C197     1.0000 0.48293  0.82795  0.36858  Biso   1.000  C
  H151     1.0000 0.47175  0.78112  0.45680  Biso   1.000  H
  C198     1.0000 0.48575  0.86256  0.30887  Biso   1.000  C
  O31      1.0000 0.53977  0.82482  0.26724  Biso   1.000  O
  H152     1.0000 0.51633  0.90582  0.31581  Biso   1.000  H
  H153     1.0000 0.41935  0.86930  0.29009  Biso   1.000  H
  C199     1.0000 0.56272  0.85460  0.21141  Biso   1.000  C
  C200     1.0000 0.51592  0.91056  0.18828  Biso   1.000  C
  C201     1.0000 0.63521  0.82604  0.17955  Biso   1.000  C
  C202     1.0000 0.54268  0.94039  0.13320  Biso   1.000  C
  H154     1.0000 0.46494  0.92872  0.21041  Biso   1.000  H
  C203     1.0000 0.66142  0.85514  0.12319  Biso   1.000  C
  C204     1.0000 0.69034  0.76697  0.20607  Biso   1.000  C
  C205     1.0000 0.61671  0.91246  0.10157  Biso   1.000  C
  C206     1.0000 0.49307  0.00283  0.11007  Biso   1.000  C
  H155     1.0000 0.70982  0.83561  0.09978  Biso   1.000  H
  C207     1.0000 0.77455  0.78791  0.25053  Biso   1.000  C
  H156     1.0000 0.71454  0.74119  0.17100  Biso   1.000  H
  H157     1.0000 0.64629  0.73880  0.22901  Biso   1.000  H
  O32      1.0000 0.64387  0.94649  0.04904  Biso   1.000  O
  C208     1.0000 0.54503  0.06313  0.13513  Biso   1.000  C
  H158     1.0000 0.42611  0.00322  0.12352  Biso   1.000  H
  H159     1.0000 0.48989  0.00371  0.06329  Biso   1.000  H
  C209     1.0000 0.76281  0.79484  0.31482  Biso   1.000  C
  C210     1.0000 0.86420  0.80275  0.22835  Biso   1.000  C
  C211     1.0000 0.71259  0.91959  0.01180  Biso   1.000  C
  C212     1.0000 0.52242  0.09047  0.19286  Biso   1.000  C
  C213     1.0000 0.61620  0.09262  0.10228  Biso   1.000  C
  H160     1.0000 0.70262  0.78440  0.33120  Biso   1.000  H
  C214     1.0000 0.83863  0.81696  0.35532  Biso   1.000  C
  O33      1.0000 0.87121  0.79426  0.16359  Biso   1.000  O
  C215     1.0000 0.94021  0.82297  0.26932  Biso   1.000  C
  H161     1.0000 0.76442  0.89791  0.03842  Biso   1.000  H
  H162     1.0000 0.74190  0.95391  0.98622  Biso   1.000  H
  C216     1.0000 0.65651  0.86891  0.96838  Biso   1.000  C
  O34      1.0000 0.45094  0.05932  0.22401  Biso   1.000  O
  C217     1.0000 0.56973  0.14627  0.21532  Biso   1.000  C
  H163     1.0000 0.63220  0.07490  0.06292  Biso   1.000  H
  C218     1.0000 0.66478  0.14793  0.12593  Biso   1.000  C
  O35      1.0000 0.83077  0.82609  0.41951  Biso   1.000  O
  C219     1.0000 0.92844  0.83068  0.33323  Biso   1.000  C
  C220     1.0000 0.95350  0.82043  0.13612  Biso   1.000  C
  H164     1.0000 0.00131  0.83171  0.25341  Biso   1.000  H
  C221     1.0000 0.61085  0.83312  0.93420  Biso   1.000  C
  C222     1.0000 0.44219  0.07782  0.28796  Biso   1.000  C
  C223     1.0000 0.64223  0.17542  0.18280  Biso   1.000  C
  H165     1.0000 0.55221  0.16502  0.25389  Biso   1.000  H
  O36      1.0000 0.73715  0.17947  0.09497  Biso   1.000  O
  C224     1.0000 0.73666  0.83039  0.44103  Biso   1.000  C
  C225     1.0000 0.01074  0.85558  0.37741  Biso   1.000  C
  H166     1.0000 0.95993  0.86759  0.14580  Biso   1.000  H
  C226     1.0000 0.94022  0.81061  0.06872  Biso   1.000  C
  H167     1.0000 0.01273  0.79792  0.15311  Biso   1.000  H
  H168     1.0000 0.57436  0.80441  0.90678  Biso   1.000  H
  H169     1.0000 0.50643  0.07782  0.31109  Biso   1.000  H
  H170     1.0000 0.41460  0.12220  0.29009  Biso   1.000  H
  C227     1.0000 0.37905  0.03076  0.31600  Biso   1.000  C
  C228     1.0000 0.69669  0.23367  0.21122  Biso   1.000  C
  C229     1.0000 0.76017  0.15409  0.03549  Biso   1.000  C
  H171     1.0000 0.69596  0.85900  0.41262  Biso   1.000  H
  H172     1.0000 0.70665  0.78659  0.44141  Biso   1.000  H
  C230     1.0000 0.74441  0.85773  0.50499  Biso   1.000  C
  H173     1.0000 0.07274  0.83879  0.36329  Biso   1.000  H
  H174     1.0000 0.00296  0.83879  0.42050  Biso   1.000  H
  C231     1.0000 0.01348  0.92930  0.37887  Biso   1.000  C
  C232     1.0000 0.92657  0.80051  0.01430  Biso   1.000  C
  C233     1.0000 0.32996  0.99312  0.34120  Biso   1.000  C
  C234     1.0000 0.78123  0.21145  0.25473  Biso   1.000  C
  H175     1.0000 0.65259  0.26062  0.23519  Biso   1.000  H
  H176     1.0000 0.72061  0.26091  0.17700  Biso   1.000  H
  C235     1.0000 0.68129  0.16092  0.98664  Biso   1.000  C
  H177     1.0000 0.81778  0.17708  0.02152  Biso   1.000  H
  H178     1.0000 0.77679  0.10731  0.04040  Biso   1.000  H
  C236     1.0000 0.74782  0.88063  0.55488  Biso   1.000  C
  C237     1.0000 0.95727  0.96451  0.41880  Biso   1.000  C
  C238     1.0000 0.06942  0.96382  0.33847  Biso   1.000  C
  H179     1.0000 0.91568  0.79240  0.97041  Biso   1.000  H
  H180     1.0000 0.29046  0.96270  0.36141  Biso   1.000  H
  C239     1.0000 0.76971  0.20198  0.31907  Biso   1.000  C
  C240     1.0000 0.87081  0.19759  0.23175  Biso   1.000  C
  C241     1.0000 0.61621  0.16590  0.94836  Biso   1.000  C
  H181     1.0000 0.75057  0.89942  0.59589  Biso   1.000  H
  H182     1.0000 0.91763  0.94180  0.44632  Biso   1.000  H
  C242     1.0000 0.95823  0.03271  0.41904  Biso   1.000  C
  O37      1.0000 0.12435  0.92633  0.29872  Biso   1.000  O
  C243     1.0000 0.07253  0.03164  0.33932  Biso   1.000  C
  O38      1.0000 0.67966  0.21512  0.34012  Biso   1.000  O
  C244     1.0000 0.84693  0.18157  0.35914  Biso   1.000  C
  H183     1.0000 0.88021  0.20433  0.18833  Biso   1.000  H
  C245     1.0000 0.94669  0.17406  0.27144  Biso   1.000  C
  H184     1.0000 0.56376  0.16981  0.91759  Biso   1.000  H
  O39      1.0000 0.90498  0.07060  0.45684  Biso   1.000  O
  C246     1.0000 0.01749  0.06699  0.37944  Biso   1.000  C
  C247     1.0000 0.14233  0.95533  0.23996  Biso   1.000  C
  H185     1.0000 0.11306  0.05400  0.31199  Biso   1.000  H
  C248     1.0000 0.65715  0.18196  0.39600  Biso   1.000  C
  C249     1.0000 0.93583  0.16644  0.33587  Biso   1.000  C
  H186     1.0000 0.83902  0.17791  0.40308  Biso   1.000  H
  O40      1.0000 0.03548  0.15633  0.25148  Biso   1.000  O
  C250     1.0000 0.83291  0.03901  0.49083  Biso   1.000  C
  C251     1.0000 0.01791  0.14100  0.37925  Biso   1.000  C
  H187     1.0000 0.08080  0.96870  0.21731  Biso   1.000  H
  H188     1.0000 0.18361  0.99453  0.24662  Biso   1.000  H
  C252     1.0000 0.19130  0.90626  0.20338  Biso   1.000  C
  H189     1.0000 0.67524  0.13529  0.39322  Biso   1.000  H
  H190     1.0000 0.69393  0.20130  0.43291  Biso   1.000  H
  C253     1.0000 0.55374  0.18782  0.40365  Biso   1.000  C
  C254     1.0000 0.04751  0.15409  0.18578  Biso   1.000  C
  H191     1.0000 0.78687  0.01528  0.46151  Biso   1.000  H
  H192     1.0000 0.86295  0.00752  0.52151  Biso   1.000  H
  C255     1.0000 0.78376  0.09076  0.52349  Biso   1.000  C
  H193     1.0000 0.08002  0.15702  0.36480  Biso   1.000  H
  H194     1.0000 0.01102  0.15741  0.42262  Biso   1.000  H
  C256     1.0000 0.23174  0.86720  0.17450  Biso   1.000  C
  C257     1.0000 0.47145  0.19251  0.41219  Biso   1.000  C
  H195     1.0000 0.99830  0.12528  0.16449  Biso   1.000  H
  H196     1.0000 0.04065  0.19832  0.16732  Biso   1.000  H
  C258     1.0000 0.14461  0.12860  0.17775  Biso   1.000  C
  C259     1.0000 0.74574  0.13348  0.55058  Biso   1.000  C
  H197     1.0000 0.26444  0.83551  0.15109  Biso   1.000  H
  H198     1.0000 0.40471  0.19622  0.41908  Biso   1.000  H
  C260     1.0000 0.22240  0.10912  0.17181  Biso   1.000  C
  H199     1.0000 0.71538  0.16771  0.57220  Biso   1.000  H
  H200     1.0000 0.28581  0.09320  0.16690  Biso   1.000  H
