data_image0
_cell_length_a       15.57
_cell_length_b       16.638
_cell_length_c       23.91
_cell_angle_alpha    90
_cell_angle_beta     90
_cell_angle_gamma    90

_symmetry_space_group_name_H-M    "P 1"
_symmetry_int_tables_number       1

loop_
  _symmetry_equiv_pos_as_xyz
  'x, y, z'

loop_
  _atom_site_label
  _atom_site_occupancy
  _atom_site_fract_x
  _atom_site_fract_y
  _atom_site_fract_z
  _atom_site_thermal_displace_type
  _atom_site_B_iso_or_equiv
  _atom_site_type_symbol
  C1       1.0000 0.42293  0.59352  0.52731  Biso   1.000  C
  C2       1.0000 0.42473  0.61900  0.47248  Biso   1.000  C
  H1       1.0000 0.36981  0.58481  0.54588  Biso   1.000  H
  C3       1.0000 0.50000  0.58102  0.55450  Biso   1.000  C
  O1       1.0000 0.34669  0.62411  0.44274  Biso   1.000  O
  C4       1.0000 0.50000  0.63397  0.44391  Biso   1.000  C
  C5       1.0000 0.57707  0.59352  0.52731  Biso   1.000  C
  H2       1.0000 0.50000  0.56359  0.59239  Biso   1.000  H
  C6       1.0000 0.31593  0.69732  0.43107  Biso   1.000  C
  C7       1.0000 0.57527  0.61900  0.47248  Biso   1.000  C
  H3       1.0000 0.50000  0.65368  0.40661  Biso   1.000  H
  H4       1.0000 0.63019  0.58481  0.54588  Biso   1.000  H
  N1       1.0000 0.25093  0.69660  0.39465  Biso   1.000  N
  N2       1.0000 0.35048  0.76019  0.45613  Biso   1.000  N
  O2       1.0000 0.65331  0.62411  0.44274  Biso   1.000  O
  C8       1.0000 0.22190  0.77022  0.38499  Biso   1.000  C
  C9       1.0000 0.31567  0.82889  0.43986  Biso   1.000  C
  C10      1.0000 0.68407  0.69732  0.43107  Biso   1.000  C
  Cl1      1.0000 0.13642  0.77726  0.33910  Biso   1.000  Cl
  N3       1.0000 0.25048  0.83904  0.40460  Biso   1.000  N
  O3       1.0000 0.34644  0.89770  0.46081  Biso   1.000  O
  N4       1.0000 0.74907  0.69660  0.39465  Biso   1.000  N
  N5       1.0000 0.64952  0.76019  0.45613  Biso   1.000  N
  C11      1.0000 0.42479  0.89380  0.49072  Biso   1.000  C
  C12      1.0000 0.77810  0.77022  0.38499  Biso   1.000  C
  C13      1.0000 0.68433  0.82889  0.43986  Biso   1.000  C
  C14      1.0000 0.50000  0.89097  0.46081  Biso   1.000  C
  C15      1.0000 0.42293  0.89662  0.54822  Biso   1.000  C
  Cl2      1.0000 0.86358  0.77726  0.33910  Biso   1.000  Cl
  N6       1.0000 0.74952  0.83904  0.40460  Biso   1.000  N
  O4       1.0000 0.65356  0.89770  0.46081  Biso   1.000  O
  C16      1.0000 0.57521  0.89380  0.49072  Biso   1.000  C
  H5       1.0000 0.50000  0.88731  0.42112  Biso   1.000  H
  H6       1.0000 0.36981  0.89788  0.56780  Biso   1.000  H
  C17      1.0000 0.50000  0.89758  0.57670  Biso   1.000  C
  C18      1.0000 0.57707  0.89662  0.54822  Biso   1.000  C
  H7       1.0000 0.50000  0.89903  0.61639  Biso   1.000  H
  H8       1.0000 0.63019  0.89788  0.56780  Biso   1.000  H
  C19      1.0000 0.42293  0.40648  0.47269  Biso   1.000  C
  C20      1.0000 0.42473  0.38100  0.52752  Biso   1.000  C
  H9       1.0000 0.36981  0.41519  0.45412  Biso   1.000  H
  C21      1.0000 0.50000  0.41898  0.44550  Biso   1.000  C
  O5       1.0000 0.34669  0.37589  0.55726  Biso   1.000  O
  C22      1.0000 0.50000  0.36603  0.55609  Biso   1.000  C
  C23      1.0000 0.57707  0.40648  0.47269  Biso   1.000  C
  H10      1.0000 0.50000  0.43641  0.40761  Biso   1.000  H
  C24      1.0000 0.31593  0.30268  0.56893  Biso   1.000  C
  C25      1.0000 0.57527  0.38100  0.52752  Biso   1.000  C
  H11      1.0000 0.50000  0.34632  0.59339  Biso   1.000  H
  H12      1.0000 0.63019  0.41519  0.45412  Biso   1.000  H
  N7       1.0000 0.35048  0.23981  0.54387  Biso   1.000  N
  N8       1.0000 0.25093  0.30340  0.60535  Biso   1.000  N
  O6       1.0000 0.65331  0.37589  0.55726  Biso   1.000  O
  C26      1.0000 0.31567  0.17111  0.56014  Biso   1.000  C
  C27      1.0000 0.22190  0.22978  0.61501  Biso   1.000  C
  C28      1.0000 0.68407  0.30268  0.56893  Biso   1.000  C
  O7       1.0000 0.34644  0.10230  0.53919  Biso   1.000  O
  N9       1.0000 0.25048  0.16096  0.59540  Biso   1.000  N
  Cl3      1.0000 0.13642  0.22274  0.66090  Biso   1.000  Cl
  N10      1.0000 0.64952  0.23981  0.54387  Biso   1.000  N
  N11      1.0000 0.74907  0.30340  0.60535  Biso   1.000  N
  C29      1.0000 0.42479  0.10620  0.50928  Biso   1.000  C
  C30      1.0000 0.68433  0.17111  0.56014  Biso   1.000  C
  C31      1.0000 0.77810  0.22978  0.61501  Biso   1.000  C
  C32      1.0000 0.42293  0.10338  0.45178  Biso   1.000  C
  C33      1.0000 0.50000  0.10903  0.53919  Biso   1.000  C
  O8       1.0000 0.65356  0.10230  0.53919  Biso   1.000  O
  N12      1.0000 0.74952  0.16096  0.59540  Biso   1.000  N
  Cl4      1.0000 0.86358  0.22274  0.66090  Biso   1.000  Cl
  H13      1.0000 0.36981  0.10212  0.43220  Biso   1.000  H
  C34      1.0000 0.50000  0.10242  0.42330  Biso   1.000  C
  C35      1.0000 0.57521  0.10620  0.50928  Biso   1.000  C
  H14      1.0000 0.50000  0.11269  0.57888  Biso   1.000  H
  C36      1.0000 0.57707  0.10338  0.45178  Biso   1.000  C
  H15      1.0000 0.50000  0.10097  0.38361  Biso   1.000  H
  H16      1.0000 0.63019  0.10212  0.43220  Biso   1.000  H
  O9       1.0000 0.15356  0.60230  0.53919  Biso   1.000  O
  C37      1.0000 0.07521  0.60620  0.50928  Biso   1.000  C
  C38      1.0000 0.18433  0.67111  0.56014  Biso   1.000  C
  C39      1.0000 0.07707  0.60338  0.45178  Biso   1.000  C
  C40      1.0000 0.00000  0.60903  0.53919  Biso   1.000  C
  N13      1.0000 0.24952  0.66096  0.59540  Biso   1.000  N
  N14      1.0000 0.14952  0.73981  0.54387  Biso   1.000  N
  H17      1.0000 0.13019  0.60212  0.43220  Biso   1.000  H
  C41      1.0000 0.00000  0.60242  0.42330  Biso   1.000  C
  H18      1.0000 0.00000  0.61269  0.57888  Biso   1.000  H
  C42      1.0000 0.92479  0.60620  0.50928  Biso   1.000  C
  C43      1.0000 0.27810  0.72978  0.61501  Biso   1.000  C
  C44      1.0000 0.18407  0.80268  0.56893  Biso   1.000  C
  H19      1.0000 0.00000  0.60097  0.38361  Biso   1.000  H
  C45      1.0000 0.92293  0.60338  0.45178  Biso   1.000  C
  O10      1.0000 0.84644  0.60230  0.53919  Biso   1.000  O
  Cl5      1.0000 0.36358  0.72274  0.66090  Biso   1.000  Cl
  N15      1.0000 0.24907  0.80340  0.60535  Biso   1.000  N
  O11      1.0000 0.15331  0.87589  0.55726  Biso   1.000  O
  H20      1.0000 0.86981  0.60212  0.43220  Biso   1.000  H
  C46      1.0000 0.81567  0.67111  0.56014  Biso   1.000  C
  C47      1.0000 0.07527  0.88100  0.52752  Biso   1.000  C
  N16      1.0000 0.75048  0.66096  0.59540  Biso   1.000  N
  N17      1.0000 0.85048  0.73981  0.54387  Biso   1.000  N
  C48      1.0000 0.00000  0.86603  0.55609  Biso   1.000  C
  C49      1.0000 0.07707  0.90648  0.47269  Biso   1.000  C
  C50      1.0000 0.72190  0.72978  0.61501  Biso   1.000  C
  C51      1.0000 0.81593  0.80268  0.56893  Biso   1.000  C
  H21      1.0000 0.00000  0.84632  0.59339  Biso   1.000  H
  C52      1.0000 0.92473  0.88100  0.52752  Biso   1.000  C
  H22      1.0000 0.13019  0.91519  0.45412  Biso   1.000  H
  C53      1.0000 0.00000  0.91898  0.44550  Biso   1.000  C
  Cl6      1.0000 0.63642  0.72274  0.66090  Biso   1.000  Cl
  N18      1.0000 0.75093  0.80340  0.60535  Biso   1.000  N
  O12      1.0000 0.84669  0.87589  0.55726  Biso   1.000  O
  C54      1.0000 0.92293  0.90648  0.47269  Biso   1.000  C
  H23      1.0000 0.00000  0.93641  0.40761  Biso   1.000  H
  H24      1.0000 0.86981  0.91519  0.45412  Biso   1.000  H
  O13      1.0000 0.15356  0.39770  0.46081  Biso   1.000  O
  C55      1.0000 0.18433  0.32889  0.43986  Biso   1.000  C
  C56      1.0000 0.07521  0.39380  0.49072  Biso   1.000  C
  N19      1.0000 0.24952  0.33904  0.40460  Biso   1.000  N
  N20      1.0000 0.14952  0.26019  0.45613  Biso   1.000  N
  C57      1.0000 0.00000  0.39097  0.46081  Biso   1.000  C
  C58      1.0000 0.07707  0.39662  0.54822  Biso   1.000  C
  C59      1.0000 0.27810  0.27022  0.38499  Biso   1.000  C
  C60      1.0000 0.18407  0.19732  0.43107  Biso   1.000  C
  H25      1.0000 0.00000  0.38731  0.42112  Biso   1.000  H
  C61      1.0000 0.92479  0.39380  0.49072  Biso   1.000  C
  H26      1.0000 0.13019  0.39788  0.56780  Biso   1.000  H
  C62      1.0000 0.00000  0.39758  0.57670  Biso   1.000  C
  Cl7      1.0000 0.36358  0.27726  0.33910  Biso   1.000  Cl
  N21      1.0000 0.24907  0.19660  0.39465  Biso   1.000  N
  O14      1.0000 0.15331  0.12411  0.44274  Biso   1.000  O
  O15      1.0000 0.84644  0.39770  0.46081  Biso   1.000  O
  C63      1.0000 0.92293  0.39662  0.54822  Biso   1.000  C
  H27      1.0000 0.00000  0.39903  0.61639  Biso   1.000  H
  C64      1.0000 0.07527  0.11900  0.47248  Biso   1.000  C
  C65      1.0000 0.81567  0.32889  0.43986  Biso   1.000  C
  H28      1.0000 0.86981  0.39788  0.56780  Biso   1.000  H
  C66      1.0000 0.00000  0.13397  0.44391  Biso   1.000  C
  C67      1.0000 0.07707  0.09352  0.52731  Biso   1.000  C
  N22      1.0000 0.75048  0.33904  0.40460  Biso   1.000  N
  N23      1.0000 0.85048  0.26019  0.45613  Biso   1.000  N
  H29      1.0000 0.00000  0.15368  0.40661  Biso   1.000  H
  C68      1.0000 0.92473  0.11900  0.47248  Biso   1.000  C
  H30      1.0000 0.13019  0.08481  0.54588  Biso   1.000  H
  C69      1.0000 0.00000  0.08102  0.55450  Biso   1.000  C
  C70      1.0000 0.72190  0.27022  0.38499  Biso   1.000  C
  C71      1.0000 0.81593  0.19732  0.43107  Biso   1.000  C
  O16      1.0000 0.84669  0.12411  0.44274  Biso   1.000  O
  C72      1.0000 0.92293  0.09352  0.52731  Biso   1.000  C
  H31      1.0000 0.00000  0.06359  0.59239  Biso   1.000  H
  N24      1.0000 0.75093  0.19660  0.39465  Biso   1.000  N
  Cl8      1.0000 0.63642  0.27726  0.33910  Biso   1.000  Cl
  H32      1.0000 0.86981  0.08481  0.54588  Biso   1.000  H
  N25      1.0000 0.24907  0.30340  0.89465  Biso   1.000  N
  C73      1.0000 0.27810  0.22978  0.88499  Biso   1.000  C
  C74      1.0000 0.18407  0.30268  0.93107  Biso   1.000  C
  Cl9      1.0000 0.36358  0.22274  0.83910  Biso   1.000  Cl
  N26      1.0000 0.24952  0.16096  0.90460  Biso   1.000  N
  N27      1.0000 0.14952  0.23981  0.95613  Biso   1.000  N
  O17      1.0000 0.15331  0.37589  0.94274  Biso   1.000  O
  C75      1.0000 0.18433  0.17111  0.93986  Biso   1.000  C
  C76      1.0000 0.07527  0.38100  0.97248  Biso   1.000  C
  O18      1.0000 0.15356  0.10230  0.96081  Biso   1.000  O
  C77      1.0000 0.00000  0.36603  0.94391  Biso   1.000  C
  C78      1.0000 0.07707  0.40648  0.02731  Biso   1.000  C
  C79      1.0000 0.07521  0.10620  0.99072  Biso   1.000  C
  H33      1.0000 0.00000  0.34632  0.90661  Biso   1.000  H
  C80      1.0000 0.92473  0.38100  0.97248  Biso   1.000  C
  H34      1.0000 0.13019  0.41519  0.04588  Biso   1.000  H
  C81      1.0000 0.00000  0.41898  0.05450  Biso   1.000  C
  C82      1.0000 0.00000  0.10903  0.96081  Biso   1.000  C
  C83      1.0000 0.07707  0.10338  0.04822  Biso   1.000  C
  O19      1.0000 0.84669  0.37589  0.94274  Biso   1.000  O
  C84      1.0000 0.92293  0.40648  0.02731  Biso   1.000  C
  H35      1.0000 0.00000  0.43641  0.09239  Biso   1.000  H
  H36      1.0000 0.00000  0.11269  0.92112  Biso   1.000  H
  C85      1.0000 0.92479  0.10620  0.99072  Biso   1.000  C
  H37      1.0000 0.13019  0.10212  0.06780  Biso   1.000  H
  C86      1.0000 0.00000  0.10242  0.07670  Biso   1.000  C
  C87      1.0000 0.81593  0.30268  0.93107  Biso   1.000  C
  H38      1.0000 0.86981  0.41519  0.04588  Biso   1.000  H
  O20      1.0000 0.84644  0.10230  0.96081  Biso   1.000  O
  C88      1.0000 0.92293  0.10338  0.04822  Biso   1.000  C
  H39      1.0000 0.00000  0.10097  0.11639  Biso   1.000  H
  N28      1.0000 0.85048  0.23981  0.95613  Biso   1.000  N
  N29      1.0000 0.75093  0.30340  0.89465  Biso   1.000  N
  C89      1.0000 0.81567  0.17111  0.93986  Biso   1.000  C
  H40      1.0000 0.86981  0.10212  0.06780  Biso   1.000  H
  C90      1.0000 0.72190  0.22978  0.88499  Biso   1.000  C
  N30      1.0000 0.75048  0.16096  0.90460  Biso   1.000  N
  Cl10     1.0000 0.63642  0.22274  0.83910  Biso   1.000  Cl
  N31      1.0000 0.24907  0.69660  0.10535  Biso   1.000  N
  C91      1.0000 0.18407  0.69732  0.06893  Biso   1.000  C
  C92      1.0000 0.27810  0.77022  0.11501  Biso   1.000  C
  O21      1.0000 0.15331  0.62411  0.05726  Biso   1.000  O
  N32      1.0000 0.14952  0.76019  0.04387  Biso   1.000  N
  Cl11     1.0000 0.36358  0.77726  0.16090  Biso   1.000  Cl
  N33      1.0000 0.24952  0.83904  0.09540  Biso   1.000  N
  C93      1.0000 0.07527  0.61900  0.02752  Biso   1.000  C
  C94      1.0000 0.18433  0.82889  0.06014  Biso   1.000  C
  C95      1.0000 0.00000  0.63397  0.05609  Biso   1.000  C
  C96      1.0000 0.07707  0.59352  0.97269  Biso   1.000  C
  O22      1.0000 0.15356  0.89770  0.03919  Biso   1.000  O
  H41      1.0000 0.00000  0.65368  0.09339  Biso   1.000  H
  C97      1.0000 0.92473  0.61900  0.02752  Biso   1.000  C
  H42      1.0000 0.13019  0.58481  0.95412  Biso   1.000  H
  C98      1.0000 0.00000  0.58102  0.94550  Biso   1.000  C
  C99      1.0000 0.07521  0.89380  0.00928  Biso   1.000  C
  C100     1.0000 0.92293  0.59352  0.97269  Biso   1.000  C
  O23      1.0000 0.84669  0.62411  0.05726  Biso   1.000  O
  H43      1.0000 0.00000  0.56359  0.90761  Biso   1.000  H
  C101     1.0000 0.00000  0.89097  0.03919  Biso   1.000  C
  C102     1.0000 0.07707  0.89662  0.95178  Biso   1.000  C
  H44      1.0000 0.86981  0.58481  0.95412  Biso   1.000  H
  C103     1.0000 0.81593  0.69732  0.06893  Biso   1.000  C
  H45      1.0000 0.00000  0.88731  0.07888  Biso   1.000  H
  C104     1.0000 0.92479  0.89380  0.00928  Biso   1.000  C
  H46      1.0000 0.13019  0.89788  0.93220  Biso   1.000  H
  C105     1.0000 0.00000  0.89758  0.92330  Biso   1.000  C
  N34      1.0000 0.75093  0.69660  0.10535  Biso   1.000  N
  N35      1.0000 0.85048  0.76019  0.04387  Biso   1.000  N
  C106     1.0000 0.92293  0.89662  0.95178  Biso   1.000  C
  O24      1.0000 0.84644  0.89770  0.03919  Biso   1.000  O
  H47      1.0000 0.00000  0.89903  0.88361  Biso   1.000  H
  C107     1.0000 0.72190  0.77022  0.11501  Biso   1.000  C
  C108     1.0000 0.81567  0.82889  0.06014  Biso   1.000  C
  H48      1.0000 0.86981  0.89788  0.93220  Biso   1.000  H
  Cl12     1.0000 0.63642  0.77726  0.16090  Biso   1.000  Cl
  N36      1.0000 0.75048  0.83904  0.09540  Biso   1.000  N
  C109     1.0000 0.22190  0.72978  0.88499  Biso   1.000  C
  N37      1.0000 0.25048  0.66096  0.90460  Biso   1.000  N
  Cl13     1.0000 0.13642  0.72274  0.83910  Biso   1.000  Cl
  N38      1.0000 0.25093  0.80340  0.89465  Biso   1.000  N
  C110     1.0000 0.31567  0.67111  0.93986  Biso   1.000  C
  C111     1.0000 0.31593  0.80268  0.93107  Biso   1.000  C
  O25      1.0000 0.34644  0.60230  0.96081  Biso   1.000  O
  N39      1.0000 0.35048  0.73981  0.95613  Biso   1.000  N
  O26      1.0000 0.34669  0.87589  0.94274  Biso   1.000  O
  C112     1.0000 0.42479  0.60620  0.99072  Biso   1.000  C
  C113     1.0000 0.42473  0.88100  0.97248  Biso   1.000  C
  C114     1.0000 0.50000  0.60903  0.96081  Biso   1.000  C
  C115     1.0000 0.42293  0.60338  0.04822  Biso   1.000  C
  C116     1.0000 0.50000  0.86603  0.94391  Biso   1.000  C
  C117     1.0000 0.42293  0.90648  0.02731  Biso   1.000  C
  C118     1.0000 0.57521  0.60620  0.99072  Biso   1.000  C
  H49      1.0000 0.50000  0.61269  0.92112  Biso   1.000  H
  H50      1.0000 0.36981  0.60212  0.06780  Biso   1.000  H
  C119     1.0000 0.50000  0.60242  0.07670  Biso   1.000  C
  C120     1.0000 0.57527  0.88100  0.97248  Biso   1.000  C
  H51      1.0000 0.50000  0.84632  0.90661  Biso   1.000  H
  H52      1.0000 0.36981  0.91519  0.04588  Biso   1.000  H
  C121     1.0000 0.50000  0.91898  0.05450  Biso   1.000  C
  O27      1.0000 0.65356  0.60230  0.96081  Biso   1.000  O
  C122     1.0000 0.57707  0.60338  0.04822  Biso   1.000  C
  H53      1.0000 0.50000  0.60097  0.11639  Biso   1.000  H
  O28      1.0000 0.65331  0.87589  0.94274  Biso   1.000  O
  C123     1.0000 0.57707  0.90648  0.02731  Biso   1.000  C
  H54      1.0000 0.50000  0.93641  0.09239  Biso   1.000  H
  C124     1.0000 0.68433  0.67111  0.93986  Biso   1.000  C
  H55      1.0000 0.63019  0.60212  0.06780  Biso   1.000  H
  C125     1.0000 0.68407  0.80268  0.93107  Biso   1.000  C
  H56      1.0000 0.63019  0.91519  0.04588  Biso   1.000  H
  N40      1.0000 0.74952  0.66096  0.90460  Biso   1.000  N
  N41      1.0000 0.64952  0.73981  0.95613  Biso   1.000  N
  N42      1.0000 0.74907  0.80340  0.89465  Biso   1.000  N
  C126     1.0000 0.77810  0.72978  0.88499  Biso   1.000  C
  Cl14     1.0000 0.86358  0.72274  0.83910  Biso   1.000  Cl
  C127     1.0000 0.22190  0.27022  0.11501  Biso   1.000  C
  Cl15     1.0000 0.13642  0.27726  0.16090  Biso   1.000  Cl
  N43      1.0000 0.25048  0.33904  0.09540  Biso   1.000  N
  N44      1.0000 0.25093  0.19660  0.10535  Biso   1.000  N
  C128     1.0000 0.31567  0.32889  0.06014  Biso   1.000  C
  C129     1.0000 0.31593  0.19732  0.06893  Biso   1.000  C
  O29      1.0000 0.34644  0.39770  0.03919  Biso   1.000  O
  N45      1.0000 0.35048  0.26019  0.04387  Biso   1.000  N
  O30      1.0000 0.34669  0.12411  0.05726  Biso   1.000  O
  C130     1.0000 0.42479  0.39380  0.00928  Biso   1.000  C
  C131     1.0000 0.42473  0.11900  0.02752  Biso   1.000  C
  C132     1.0000 0.50000  0.39097  0.03919  Biso   1.000  C
  C133     1.0000 0.42293  0.39662  0.95178  Biso   1.000  C
  C134     1.0000 0.50000  0.13397  0.05609  Biso   1.000  C
  C135     1.0000 0.42293  0.09352  0.97269  Biso   1.000  C
  C136     1.0000 0.57521  0.39380  0.00928  Biso   1.000  C
  H57      1.0000 0.50000  0.38731  0.07888  Biso   1.000  H
  H58      1.0000 0.36981  0.39788  0.93220  Biso   1.000  H
  C137     1.0000 0.50000  0.39758  0.92330  Biso   1.000  C
  C138     1.0000 0.57527  0.11900  0.02752  Biso   1.000  C
  H59      1.0000 0.50000  0.15368  0.09339  Biso   1.000  H
  H60      1.0000 0.36981  0.08481  0.95412  Biso   1.000  H
  C139     1.0000 0.50000  0.08102  0.94550  Biso   1.000  C
  O31      1.0000 0.65356  0.39770  0.03919  Biso   1.000  O
  C140     1.0000 0.57707  0.39662  0.95178  Biso   1.000  C
  H61      1.0000 0.50000  0.39903  0.88361  Biso   1.000  H
  O32      1.0000 0.65331  0.12411  0.05726  Biso   1.000  O
  C141     1.0000 0.57707  0.09352  0.97269  Biso   1.000  C
  H62      1.0000 0.50000  0.06359  0.90761  Biso   1.000  H
  C142     1.0000 0.68433  0.32889  0.06014  Biso   1.000  C
  H63      1.0000 0.63019  0.39788  0.93220  Biso   1.000  H
  C143     1.0000 0.68407  0.19732  0.06893  Biso   1.000  C
  H64      1.0000 0.63019  0.08481  0.95412  Biso   1.000  H
  N46      1.0000 0.74952  0.33904  0.09540  Biso   1.000  N
  N47      1.0000 0.64952  0.26019  0.04387  Biso   1.000  N
  N48      1.0000 0.74907  0.19660  0.10535  Biso   1.000  N
  C144     1.0000 0.77810  0.27022  0.11501  Biso   1.000  C
  Cl16     1.0000 0.86358  0.27726  0.16090  Biso   1.000  Cl
