data_image0
_cell_length_a       11.085
_cell_length_b       12.567
_cell_length_c       13.011
_cell_angle_alpha    70.45
_cell_angle_beta     69.83
_cell_angle_gamma    80.22

_symmetry_space_group_name_H-M    "P 1"
_symmetry_int_tables_number       1

loop_
  _symmetry_equiv_pos_as_xyz
  'x, y, z'

loop_
  _atom_site_label
  _atom_site_occupancy
  _atom_site_fract_x
  _atom_site_fract_y
  _atom_site_fract_z
  _atom_site_thermal_displace_type
  _atom_site_B_iso_or_equiv
  _atom_site_type_symbol
  C1       1.0000 0.31801  0.25946  0.46609  Biso   1.000  C
  N1       1.0000 0.31058  0.24499  0.36872  Biso   1.000  N
  N2       1.0000 0.24242  0.18402  0.56080  Biso   1.000  N
  O1       1.0000 0.38082  0.32913  0.46944  Biso   1.000  O
  C2       1.0000 0.23543  0.14976  0.39489  Biso   1.000  C
  C3       1.0000 0.39987  0.29230  0.25711  Biso   1.000  C
  C4       1.0000 0.19064  0.10574  0.52829  Biso   1.000  C
  C5       1.0000 0.25334  0.16338  0.67293  Biso   1.000  C
  N3       1.0000 0.11365  0.18173  0.36941  Biso   1.000  N
  H1       1.0000 0.28677  0.09081  0.36006  Biso   1.000  H
  N4       1.0000 0.34521  0.39004  0.18427  Biso   1.000  N
  H2       1.0000 0.43037  0.23359  0.21816  Biso   1.000  H
  H3       1.0000 0.47467  0.31515  0.26672  Biso   1.000  H
  N5       1.0000 0.05320  0.11176  0.55831  Biso   1.000  N
  H4       1.0000 0.22514  0.02728  0.55617  Biso   1.000  H
  H5       1.0000 0.32888  0.19994  0.66503  Biso   1.000  H
  H6       1.0000 0.26797  0.08175  0.70638  Biso   1.000  H
  N6       1.0000 0.14163  0.20416  0.75057  Biso   1.000  N
  C6       1.0000 0.10790  0.22442  0.25454  Biso   1.000  C
  C7       1.0000 0.00974  0.15606  0.46652  Biso   1.000  C
  C8       1.0000 0.26309  0.38338  0.12131  Biso   1.000  C
  C9       1.0000 0.34894  0.49707  0.18633  Biso   1.000  C
  C10      1.0000 0.96919  0.07088  0.67499  Biso   1.000  C
  C11      1.0000 0.02460  0.14234  0.81302  Biso   1.000  C
  C12      1.0000 0.13945  0.29413  0.78780  Biso   1.000  C
  H7       1.0000 0.02145  0.21454  0.25574  Biso   1.000  H
  H8       1.0000 0.16923  0.17872  0.20898  Biso   1.000  H
  N7       1.0000 0.13548  0.34262  0.19723  Biso   1.000  N
  O2       1.0000 0.89707  0.16973  0.46781  Biso   1.000  O
  C13      1.0000 0.22845  0.51276  0.06331  Biso   1.000  C
  C14      1.0000 0.32889  0.31608  0.03912  Biso   1.000  C
  N8       1.0000 0.27881  0.57101  0.12002  Biso   1.000  N
  O3       1.0000 0.40945  0.52544  0.23506  Biso   1.000  O
  H9       1.0000 0.88619  0.05595  0.67275  Biso   1.000  H
  N9       1.0000 0.94685  0.14804  0.74096  Biso   1.000  N
  H10      1.0000 0.00707  0.99902  0.71368  Biso   1.000  H
  H11      1.0000 0.04314  0.06340  0.85626  Biso   1.000  H
  C15      1.0000 0.94232  0.21275  0.89366  Biso   1.000  C
  N10      1.0000 0.02139  0.30549  0.86638  Biso   1.000  N
  O4       1.0000 0.22977  0.35515  0.75717  Biso   1.000  O
  C16      1.0000 0.03650  0.42318  0.17810  Biso   1.000  C
  N11      1.0000 0.08964  0.51937  0.09711  Biso   1.000  N
  C17      1.0000 0.28906  0.55468  0.93240  Biso   1.000  C
  H12      1.0000 0.34145  0.23764  0.08176  Biso   1.000  H
  H13      1.0000 0.41179  0.34577  0.99091  Biso   1.000  H
  H14      1.0000 0.27610  0.32113  0.99151  Biso   1.000  H
  C18      1.0000 0.28335  0.69313  0.08836  Biso   1.000  C
  C19      1.0000 0.83285  0.20796  0.77167  Biso   1.000  C
  N12      1.0000 0.82814  0.25124  0.85343  Biso   1.000  N
  H15      1.0000 0.91967  0.16786  0.97567  Biso   1.000  H
  C20      1.0000 0.99344  0.37939  0.93681  Biso   1.000  C
  O5       1.0000 0.92109  0.40824  0.22339  Biso   1.000  O
  C21      1.0000 0.00653  0.62067  0.06323  Biso   1.000  C
  H16      1.0000 0.38200  0.54885  0.91327  Biso   1.000  H
  H17      1.0000 0.25984  0.63294  0.90383  Biso   1.000  H
  H18      1.0000 0.26320  0.50873  0.89757  Biso   1.000  H
  H19      1.0000 0.29675  0.72473  0.00566  Biso   1.000  H
  H20      1.0000 0.35779  0.70960  0.10346  Biso   1.000  H
  N13      1.0000 0.17183  0.74882  0.14661  Biso   1.000  N
  O6       1.0000 0.74775  0.22275  0.72526  Biso   1.000  O
  C22      1.0000 0.71665  0.30696  0.91159  Biso   1.000  C
  H21      1.0000 0.07481  0.40339  0.93321  Biso   1.000  H
  N14      1.0000 0.91034  0.48069  0.90293  Biso   1.000  N
  H22      1.0000 0.95151  0.33688  0.01651  Biso   1.000  H
  H23      1.0000 0.92526  0.59667  0.06683  Biso   1.000  H
  N15      1.0000 0.97862  0.69460  0.13357  Biso   1.000  N
  H24      1.0000 0.04849  0.66320  0.98344  Biso   1.000  H
  C23      1.0000 0.05777  0.78733  0.10629  Biso   1.000  C
  C24      1.0000 0.16715  0.79212  0.22828  Biso   1.000  C
  Li1      1.0000 0.60086  0.15025  0.73976  Biso   1.000  Li
  H25      1.0000 0.70325  0.27535  0.99429  Biso   1.000  H
  H26      1.0000 0.64231  0.29049  0.89649  Biso   1.000  H
  N16      1.0000 0.72116  0.42905  0.88002  Biso   1.000  N
  C25      1.0000 0.77152  0.48730  0.93673  Biso   1.000  C
  C26      1.0000 0.96350  0.57690  0.82186  Biso   1.000  C
  C27      1.0000 0.86055  0.70595  0.21216  Biso   1.000  C
  H27      1.0000 0.08034  0.83222  0.02428  Biso   1.000  H
  C28      1.0000 0.97546  0.85772  0.18702  Biso   1.000  C
  N17      1.0000 0.05315  0.85204  0.25900  Biso   1.000  N
  O7       1.0000 0.25226  0.77733  0.27470  Biso   1.000  O
  O8       1.0000 0.63346  0.99037  0.81328  Biso   1.000  O
  O9       1.0000 0.43974  0.20317  0.82580  Biso   1.000  O
  O10      1.0000 0.62879  0.18920  0.57641  Biso   1.000  O
  C29      1.0000 0.65104  0.50299  0.81371  Biso   1.000  C
  C30      1.0000 0.73691  0.61671  0.87865  Biso   1.000  C
  C31      1.0000 0.71095  0.44540  0.06755  Biso   1.000  C
  O11      1.0000 0.07891  0.59184  0.77656  Biso   1.000  O
  N18      1.0000 0.86450  0.65744  0.80281  Biso   1.000  N
  N19      1.0000 0.85847  0.79593  0.24939  Biso   1.000  N
  O12      1.0000 0.77024  0.64494  0.24278  Biso   1.000  O
  H28      1.0000 0.95686  0.93669  0.14370  Biso   1.000  H
  C32      1.0000 0.03081  0.92920  0.32497  Biso   1.000  C
  Li2      1.0000 0.39915  0.84983  0.26020  Biso   1.000  Li
  N20      1.0000 0.65479  0.61005  0.81568  Biso   1.000  N
  O13      1.0000 0.59055  0.47464  0.76489  Biso   1.000  O
  C33      1.0000 0.67108  0.68398  0.96092  Biso   1.000  C
  H29      1.0000 0.61797  0.45121  0.08677  Biso   1.000  H
  H30      1.0000 0.74017  0.36715  0.09612  Biso   1.000  H
  H31      1.0000 0.73678  0.49133  0.10247  Biso   1.000  H
  C34      1.0000 0.89208  0.77564  0.74550  Biso   1.000  C
  C35      1.0000 0.74663  0.83668  0.32711  Biso   1.000  C
  H32      1.0000 0.11382  0.94413  0.32720  Biso   1.000  H
  N21      1.0000 0.94687  0.88830  0.44173  Biso   1.000  N
  H33      1.0000 0.99294  0.00107  0.28628  Biso   1.000  H
  O14      1.0000 0.56024  0.79689  0.17424  Biso   1.000  O
  O15      1.0000 0.37120  0.81078  0.42362  Biso   1.000  O
  O16      1.0000 0.36654  0.00971  0.18668  Biso   1.000  O
  C36      1.0000 0.60010  0.70776  0.74293  Biso   1.000  C
  H34      1.0000 0.65856  0.76244  0.91820  Biso   1.000  H
  H35      1.0000 0.58822  0.65431  0.00905  Biso   1.000  H
  H36      1.0000 0.72390  0.67896  0.00845  Biso   1.000  H
  N22      1.0000 0.88633  0.81833  0.63063  Biso   1.000  N
  H37      1.0000 0.97853  0.78552  0.74430  Biso   1.000  H
  H38      1.0000 0.83077  0.82137  0.79097  Biso   1.000  H
  H39      1.0000 0.67109  0.80012  0.33500  Biso   1.000  H
  H40      1.0000 0.73203  0.91834  0.29357  Biso   1.000  H
  N23      1.0000 0.75767  0.81606  0.43915  Biso   1.000  N
  C37      1.0000 0.80937  0.89434  0.47167  Biso   1.000  C
  C38      1.0000 0.99024  0.84400  0.53352  Biso   1.000  C
  N24      1.0000 0.68939  0.75506  0.63132  Biso   1.000  N
  H41      1.0000 0.56973  0.76649  0.78179  Biso   1.000  H
  H42      1.0000 0.52531  0.68491  0.73332  Biso   1.000  H
  C39      1.0000 0.76467  0.85032  0.60507  Biso   1.000  C
  C40      1.0000 0.68200  0.74063  0.53386  Biso   1.000  C
  H43      1.0000 0.77487  0.97280  0.44378  Biso   1.000  H
  O17      1.0000 0.10291  0.83033  0.53223  Biso   1.000  O
  H44      1.0000 0.71324  0.90927  0.63990  Biso   1.000  H
  O18      1.0000 0.61924  0.67093  0.53060  Biso   1.000  O
  Ne1      1.0000 0.00000  0.50003  0.50000  Biso   1.000  Ne
  He1      1.0000 0.29846  0.55762  0.53042  Biso   1.000  He
  He2      1.0000 0.71172  0.44096  0.47099  Biso   1.000  He
  Ar1      1.0000 1.00000  0.50004  0.50000  Biso   1.000  Ar
