data_image0
_cell_length_a       14.338
_cell_length_b       14.388
_cell_length_c       27.836
_cell_angle_alpha    81.13
_cell_angle_beta     89.71
_cell_angle_gamma    65.25

_symmetry_space_group_name_H-M    "P 1"
_symmetry_int_tables_number       1

loop_
  _symmetry_equiv_pos_as_xyz
  'x, y, z'

loop_
  _atom_site_label
  _atom_site_occupancy
  _atom_site_fract_x
  _atom_site_fract_y
  _atom_site_fract_z
  _atom_site_thermal_displace_type
  _atom_site_B_iso_or_equiv
  _atom_site_type_symbol
  C1       1.0000 0.11493  0.82372  0.16606  Biso   1.000  C
  N1       1.0000 0.11461  0.76393  0.12878  Biso   1.000  N
  H1       1.0000 0.10275  0.79022  0.19688  Biso   1.000  H
  H2       1.0000 0.18292  0.82233  0.16930  Biso   1.000  H
  N2       1.0000 0.04144  0.92862  0.15731  Biso   1.000  N
  C2       1.0000 0.04684  0.71173  0.12856  Biso   1.000  C
  C3       1.0000 0.19536  0.72592  0.10057  Biso   1.000  C
  C4       1.0000 0.93421  0.95882  0.16835  Biso   1.000  C
  C5       1.0000 0.06354  0.01207  0.14609  Biso   1.000  C
  C6       1.0000 0.09547  0.63769  0.09132  Biso   1.000  C
  H3       1.0000 0.04715  0.67306  0.16081  Biso   1.000  H
  N3       1.0000 0.94475  0.77443  0.10812  Biso   1.000  N
  N4       1.0000 0.18353  0.65421  0.07678  Biso   1.000  N
  O1       1.0000 0.26647  0.75248  0.09627  Biso   1.000  O
  N5       1.0000 0.87029  0.94412  0.13253  Biso   1.000  N
  H4       1.0000 0.92855  0.92686  0.20129  Biso   1.000  H
  C7       1.0000 0.89025  0.07833  0.16329  Biso   1.000  C
  N6       1.0000 0.97779  0.09976  0.14762  Biso   1.000  N
  O2       1.0000 0.15013  0.00687  0.13771  Biso   1.000  O
  H5       1.0000 0.11475  0.56522  0.10611  Biso   1.000  H
  N7       1.0000 0.01338  0.67260  0.05375  Biso   1.000  N
  C8       1.0000 0.92553  0.74864  0.06523  Biso   1.000  C
  C9       1.0000 0.86564  0.84393  0.13450  Biso   1.000  C
  C10      1.0000 0.25825  0.59412  0.04591  Biso   1.000  C
  C11      1.0000 0.79438  0.03502  0.11049  Biso   1.000  C
  N8       1.0000 0.80751  0.11448  0.12590  Biso   1.000  N
  H6       1.0000 0.86589  0.10258  0.19401  Biso   1.000  H
  C12      1.0000 0.97662  0.20087  0.14609  Biso   1.000  C
  C13      1.0000 0.01539  0.61530  0.01421  Biso   1.000  C
  O3       1.0000 0.84176  0.78990  0.04118  Biso   1.000  O
  H7       1.0000 0.87274  0.81112  0.16832  Biso   1.000  H
  H8       1.0000 0.79864  0.85547  0.12102  Biso   1.000  H
  H9       1.0000 0.26847  0.52228  0.05400  Biso   1.000  H
  H10      1.0000 0.32349  0.59637  0.05291  Biso   1.000  H
  N9       1.0000 0.23020  0.62888  0.99439  Biso   1.000  N
  O4       1.0000 0.72453  0.04423  0.08210  Biso   1.000  O
  C14      1.0000 0.73330  0.22196  0.11551  Biso   1.000  C
  H11      1.0000 0.93653  0.23227  0.17221  Biso   1.000  H
  N10      1.0000 0.93553  0.27084  0.10119  Biso   1.000  N
  H12      1.0000 0.04652  0.19204  0.15239  Biso   1.000  H
  H13      1.0000 0.05315  0.54172  0.02631  Biso   1.000  H
  H14      1.0000 0.94531  0.62775  0.00528  Biso   1.000  H
  N11      1.0000 0.06084  0.64143  0.97121  Biso   1.000  N
  C15      1.0000 0.17062  0.59978  0.96290  Biso   1.000  C
  C16      1.0000 0.26712  0.69518  0.96793  Biso   1.000  C
  H15      1.0000 0.72281  0.25087  0.14539  Biso   1.000  H
  H16      1.0000 0.66801  0.22507  0.10422  Biso   1.000  H
  N12      1.0000 0.76543  0.28597  0.07853  Biso   1.000  N
  C17      1.0000 0.82641  0.33929  0.08848  Biso   1.000  C
  C18      1.0000 0.99659  0.28404  0.06592  Biso   1.000  C
  C19      1.0000 0.00344  0.71583  0.93408  Biso   1.000  C
  C20      1.0000 0.17359  0.66066  0.91152  Biso   1.000  C
  C21      1.0000 0.21622  0.48033  0.96757  Biso   1.000  C
  N13      1.0000 0.23464  0.71397  0.92147  Biso   1.000  N
  O5       1.0000 0.32210  0.72958  0.98586  Biso   1.000  O
  C22      1.0000 0.73288  0.30476  0.03207  Biso   1.000  C
  C23      1.0000 0.82937  0.40018  0.03706  Biso   1.000  C
  C24      1.0000 0.78032  0.40824  0.12794  Biso   1.000  C
  N14      1.0000 0.93919  0.35844  0.02879  Biso   1.000  N
  O6       1.0000 0.09232  0.23856  0.06854  Biso   1.000  O
  O7       1.0000 0.90768  0.76138  0.93146  Biso   1.000  O
  N15      1.0000 0.06450  0.72902  0.89881  Biso   1.000  N
  C25      1.0000 0.21972  0.59162  0.87206  Biso   1.000  C
  H17      1.0000 0.21358  0.45049  0.00058  Biso   1.000  H
  H18      1.0000 0.17691  0.46186  0.94618  Biso   1.000  H
  H19      1.0000 0.28641  0.45457  0.95890  Biso   1.000  H
  C26      1.0000 0.26670  0.77799  0.88449  Biso   1.000  C
  N16      1.0000 0.76980  0.37107  0.00561  Biso   1.000  N
  O8       1.0000 0.67790  0.27037  0.01414  Biso   1.000  O
  C27      1.0000 0.78380  0.51955  0.03239  Biso   1.000  C
  H20      1.0000 0.70909  0.45264  0.11890  Biso   1.000  H
  H21      1.0000 0.78616  0.36490  0.15869  Biso   1.000  H
  H22      1.0000 0.81721  0.44985  0.13060  Biso   1.000  H
  C28      1.0000 0.98468  0.38464  0.98579  Biso   1.000  C
  C29      1.0000 0.02338  0.79908  0.85388  Biso   1.000  C
  H23      1.0000 0.29094  0.54723  0.88110  Biso   1.000  H
  H24      1.0000 0.21384  0.63504  0.84131  Biso   1.000  H
  H25      1.0000 0.18282  0.55002  0.86940  Biso   1.000  H
  H26      1.0000 0.27719  0.74908  0.85461  Biso   1.000  H
  H27      1.0000 0.33199  0.77487  0.89578  Biso   1.000  H
  N17      1.0000 0.19249  0.88547  0.87410  Biso   1.000  N
  C30      1.0000 0.74175  0.40582  0.95409  Biso   1.000  C
  H28      1.0000 0.78645  0.54939  0.99938  Biso   1.000  H
  H29      1.0000 0.82309  0.53809  0.05379  Biso   1.000  H
  H30      1.0000 0.71359  0.54537  0.04110  Biso   1.000  H
  H31      1.0000 0.94684  0.45822  0.97369  Biso   1.000  H
  N18      1.0000 0.98668  0.32736  0.94621  Biso   1.000  N
  H32      1.0000 0.05468  0.37221  0.99468  Biso   1.000  H
  H33      1.0000 0.95350  0.80784  0.84757  Biso   1.000  H
  H34      1.0000 0.06347  0.76768  0.82779  Biso   1.000  H
  N19      1.0000 0.02221  0.90018  0.85238  Biso   1.000  N
  C31      1.0000 0.10978  0.92154  0.83671  Biso   1.000  C
  C32      1.0000 0.20572  0.96484  0.88951  Biso   1.000  C
  H35      1.0000 0.73156  0.47759  0.94600  Biso   1.000  H
  H36      1.0000 0.67661  0.40350  0.94709  Biso   1.000  H
  N20      1.0000 0.81647  0.34574  0.92322  Biso   1.000  N
  C33      1.0000 0.07446  0.25132  0.93474  Biso   1.000  C
  C34      1.0000 0.90453  0.36225  0.90868  Biso   1.000  C
  C35      1.0000 0.93646  0.98788  0.85391  Biso   1.000  C
  H37      1.0000 0.13411  0.89737  0.80599  Biso   1.000  H
  C36      1.0000 0.06579  0.04113  0.83165  Biso   1.000  C
  O9       1.0000 0.27550  0.95564  0.91790  Biso   1.000  O
  N21      1.0000 0.12971  0.05582  0.86747  Biso   1.000  N
  C37      1.0000 0.80471  0.27402  0.89943  Biso   1.000  C
  N22      1.0000 0.05532  0.22551  0.89188  Biso   1.000  N
  O10      1.0000 0.15831  0.21005  0.95882  Biso   1.000  O
  C38      1.0000 0.95316  0.28821  0.87144  Biso   1.000  C
  H38      1.0000 0.88524  0.43472  0.89389  Biso   1.000  H
  O11      1.0000 0.84987  0.99308  0.86229  Biso   1.000  O
  N23      1.0000 0.95856  0.07133  0.84265  Biso   1.000  N
  H39      1.0000 0.07148  0.07301  0.79871  Biso   1.000  H
  C39      1.0000 0.13436  0.15603  0.86546  Biso   1.000  C
  N24      1.0000 0.88539  0.23602  0.87122  Biso   1.000  N
  O12      1.0000 0.73359  0.24746  0.90373  Biso   1.000  O
  H40      1.0000 0.95288  0.32681  0.83919  Biso   1.000  H
  C40      1.0000 0.88507  0.17623  0.83394  Biso   1.000  C
  H41      1.0000 0.12726  0.18882  0.83168  Biso   1.000  H
  H42      1.0000 0.20139  0.14440  0.87898  Biso   1.000  H
  H43      1.0000 0.89724  0.20974  0.80308  Biso   1.000  H
  H44      1.0000 0.81708  0.17762  0.83070  Biso   1.000  H
