data_image0
_cell_length_a       16.565
_cell_length_b       10.745
_cell_length_c       31.067
_cell_angle_alpha    90
_cell_angle_beta     92.09
_cell_angle_gamma    90

_symmetry_space_group_name_H-M    "P 1"
_symmetry_int_tables_number       1

loop_
  _symmetry_equiv_pos_as_xyz
  'x, y, z'

loop_
  _atom_site_label
  _atom_site_occupancy
  _atom_site_fract_x
  _atom_site_fract_y
  _atom_site_fract_z
  _atom_site_thermal_displace_type
  _atom_site_B_iso_or_equiv
  _atom_site_type_symbol
  C1       1.0000 0.50716  0.43639  0.64349  Biso   1.000  C
  N1       1.0000 0.48125  0.31596  0.65930  Biso   1.000  N
  C2       1.0000 0.47744  0.54034  0.67241  Biso   1.000  C
  H1       1.0000 0.56683  0.43881  0.64301  Biso   1.000  H
  H2       1.0000 0.48544  0.44905  0.61370  Biso   1.000  H
  C3       1.0000 0.53411  0.23034  0.66159  Biso   1.000  C
  N2       1.0000 0.51247  0.53523  0.71590  Biso   1.000  N
  H3       1.0000 0.41782  0.53504  0.67361  Biso   1.000  H
  H4       1.0000 0.49086  0.62159  0.65940  Biso   1.000  H
  C4       1.0000 0.51414  0.10470  0.67580  Biso   1.000  C
  H5       1.0000 0.58792  0.24830  0.65389  Biso   1.000  H
  C5       1.0000 0.46602  0.53560  0.74640  Biso   1.000  C
  C6       1.0000 0.57646  0.02168  0.68672  Biso   1.000  C
  C7       1.0000 0.43484  0.06384  0.67889  Biso   1.000  C
  C8       1.0000 0.49027  0.53141  0.79201  Biso   1.000  C
  H6       1.0000 0.40976  0.53904  0.73941  Biso   1.000  H
  H7       1.0000 0.63092  0.04625  0.68330  Biso   1.000  H
  C9       1.0000 0.56003  0.90386  0.70250  Biso   1.000  C
  H8       1.0000 0.39204  0.11801  0.67010  Biso   1.000  H
  C10      1.0000 0.41647  0.94686  0.69451  Biso   1.000  C
  C11      1.0000 0.43455  0.52880  0.82380  Biso   1.000  C
  C12      1.0000 0.57353  0.52927  0.80541  Biso   1.000  C
  C13      1.0000 0.48032  0.86459  0.70559  Biso   1.000  C
  C14      1.0000 0.62687  0.81452  0.71419  Biso   1.000  C
  C15      1.0000 0.33224  0.91010  0.69860  Biso   1.000  C
  C16      1.0000 0.45496  0.51913  0.86709  Biso   1.000  C
  H9       1.0000 0.37898  0.53411  0.81539  Biso   1.000  H
  H10      1.0000 0.61394  0.53430  0.78460  Biso   1.000  H
  C17      1.0000 0.59588  0.51978  0.84880  Biso   1.000  C
  H11      1.0000 0.46907  0.78260  0.71500  Biso   1.000  H
  N3       1.0000 0.69958  0.84300  0.71181  Biso   1.000  N
  H12      1.0000 0.61334  0.73336  0.72369  Biso   1.000  H
  N4       1.0000 0.30923  0.80521  0.71181  Biso   1.000  N
  H13      1.0000 0.29175  0.96938  0.69090  Biso   1.000  H
  C18      1.0000 0.53747  0.51326  0.87930  Biso   1.000  C
  C19      1.0000 0.39558  0.51438  0.90091  Biso   1.000  C
  C20      1.0000 0.68245  0.51494  0.86220  Biso   1.000  C
  C21      1.0000 0.75946  0.74574  0.72331  Biso   1.000  C
  C22      1.0000 0.22246  0.78306  0.71490  Biso   1.000  C
  H14      1.0000 0.55314  0.50479  0.90890  Biso   1.000  H
  N5       1.0000 0.31893  0.52136  0.89331  Biso   1.000  N
  H15      1.0000 0.41476  0.50582  0.92990  Biso   1.000  H
  N6       1.0000 0.70334  0.52350  0.90181  Biso   1.000  N
  H16      1.0000 0.72225  0.50544  0.84119  Biso   1.000  H
  C23      1.0000 0.81834  0.78874  0.75800  Biso   1.000  C
  H17      1.0000 0.73104  0.67054  0.73319  Biso   1.000  H
  H18      1.0000 0.78926  0.72294  0.69741  Biso   1.000  H
  C24      1.0000 0.20323  0.74556  0.75951  Biso   1.000  C
  H19      1.0000 0.19234  0.85993  0.70701  Biso   1.000  H
  H20      1.0000 0.20524  0.71671  0.69451  Biso   1.000  H
  C25      1.0000 0.27018  0.51810  0.93071  Biso   1.000  C
  C26      1.0000 0.79035  0.51940  0.91270  Biso   1.000  C
  N7       1.0000 0.77893  0.80624  0.79790  Biso   1.000  N
  H21      1.0000 0.84333  0.86803  0.74920  Biso   1.000  H
  H22      1.0000 0.86196  0.72620  0.76199  Biso   1.000  H
  N8       1.0000 0.22148  0.84253  0.79149  Biso   1.000  N
  H23      1.0000 0.23443  0.66989  0.76730  Biso   1.000  H
  H24      1.0000 0.14514  0.72452  0.76019  Biso   1.000  H
  C27      1.0000 0.20749  0.41284  0.92681  Biso   1.000  C
  H25      1.0000 0.30528  0.50489  0.95680  Biso   1.000  H
  H26      1.0000 0.24214  0.59879  0.93380  Biso   1.000  H
  H27      1.0000 0.82094  0.51103  0.88609  Biso   1.000  H
  H28      1.0000 0.80727  0.59786  0.92710  Biso   1.000  H
  C28      1.0000 0.80928  0.40977  0.94240  Biso   1.000  C
  C29      1.0000 0.78316  0.91624  0.81469  Biso   1.000  C
  C30      1.0000 0.26373  0.80959  0.82409  Biso   1.000  C
  N9       1.0000 0.24878  0.29307  0.92939  Biso   1.000  N
  H29      1.0000 0.17667  0.41973  0.89901  Biso   1.000  H
  H30      1.0000 0.16896  0.41964  0.95039  Biso   1.000  H
  N10      1.0000 0.79624  0.29390  0.91859  Biso   1.000  N
  H31      1.0000 0.77386  0.41228  0.96739  Biso   1.000  H
  H32      1.0000 0.86605  0.41470  0.95332  Biso   1.000  H
  C31      1.0000 0.74763  0.94760  0.85569  Biso   1.000  C
  H33      1.0000 0.81057  0.97953  0.79971  Biso   1.000  H
  C32      1.0000 0.28475  0.89390  0.86039  Biso   1.000  C
  H34      1.0000 0.28296  0.72638  0.82541  Biso   1.000  H
  C33      1.0000 0.23388  0.21601  0.89869  Biso   1.000  C
  C34      1.0000 0.74646  0.21731  0.93299  Biso   1.000  C
  C35      1.0000 0.76104  0.06552  0.87260  Biso   1.000  C
  C36      1.0000 0.70208  0.86291  0.87730  Biso   1.000  C
  C37      1.0000 0.25306  0.01498  0.86220  Biso   1.000  C
  C38      1.0000 0.33364  0.85370  0.89389  Biso   1.000  C
  C39      1.0000 0.27118  0.09176  0.89689  Biso   1.000  C
  H35      1.0000 0.19708  0.24002  0.87611  Biso   1.000  H
  C40      1.0000 0.73003  0.09586  0.91260  Biso   1.000  C
  H36      1.0000 0.71829  0.23890  0.95799  Biso   1.000  H
  H37      1.0000 0.79096  0.12508  0.85720  Biso   1.000  H
  H38      1.0000 0.69168  0.78371  0.86461  Biso   1.000  H
  C41      1.0000 0.67085  0.88962  0.91669  Biso   1.000  C
  H39      1.0000 0.21877  0.04449  0.83929  Biso   1.000  H
  C42      1.0000 0.35447  0.93169  0.92929  Biso   1.000  C
  H40      1.0000 0.35425  0.77124  0.89341  Biso   1.000  H
  C43      1.0000 0.32174  0.04858  0.92990  Biso   1.000  C
  C44      1.0000 0.68478  0.00884  0.93422  Biso   1.000  C
  C45      1.0000 0.62583  0.79600  0.94079  Biso   1.000  C
  C46      1.0000 0.40588  0.88627  0.96511  Biso   1.000  C
  H41      1.0000 0.33429  0.10154  0.95370  Biso   1.000  H
  H42      1.0000 0.66284  0.02987  0.96111  Biso   1.000  H
  N11      1.0000 0.59897  0.81349  0.97699  Biso   1.000  N
  H43      1.0000 0.61679  0.71708  0.92771  Biso   1.000  H
  N12      1.0000 0.42354  0.77338  0.97261  Biso   1.000  N
  H44      1.0000 0.42809  0.94667  0.98440  Biso   1.000  H
  C47      1.0000 0.55776  0.70954  0.99761  Biso   1.000  C
  C48      1.0000 0.47522  0.74798  0.01059  Biso   1.000  C
  H45      1.0000 0.55329  0.63862  0.97731  Biso   1.000  H
  H46      1.0000 0.58988  0.68199  0.02328  Biso   1.000  H
  H47      1.0000 0.47929  0.82364  0.02869  Biso   1.000  H
  H48      1.0000 0.45097  0.68087  0.02769  Biso   1.000  H
  C49      1.0000 0.49290  0.56361  0.35650  Biso   1.000  C
  C50      1.0000 0.52262  0.45966  0.32761  Biso   1.000  C
  N13      1.0000 0.51880  0.68404  0.34068  Biso   1.000  N
  H49      1.0000 0.43323  0.56119  0.35701  Biso   1.000  H
  H50      1.0000 0.51462  0.55095  0.38629  Biso   1.000  H
  N14      1.0000 0.48765  0.46477  0.28409  Biso   1.000  N
  H51      1.0000 0.58224  0.46496  0.32642  Biso   1.000  H
  H52      1.0000 0.50920  0.37841  0.34059  Biso   1.000  H
  C51      1.0000 0.46595  0.76966  0.33840  Biso   1.000  C
  C52      1.0000 0.53404  0.46440  0.25359  Biso   1.000  C
  C53      1.0000 0.48592  0.89530  0.32419  Biso   1.000  C
  H53      1.0000 0.41214  0.75170  0.34610  Biso   1.000  H
  C54      1.0000 0.50979  0.46859  0.20801  Biso   1.000  C
  H54      1.0000 0.59030  0.46096  0.26061  Biso   1.000  H
  C55      1.0000 0.42360  0.97832  0.31331  Biso   1.000  C
  C56      1.0000 0.56522  0.93616  0.32110  Biso   1.000  C
  C57      1.0000 0.42653  0.47073  0.19461  Biso   1.000  C
  C58      1.0000 0.56551  0.47120  0.17619  Biso   1.000  C
  H55      1.0000 0.36914  0.95375  0.31669  Biso   1.000  H
  C59      1.0000 0.44003  0.09614  0.29749  Biso   1.000  C
  H56      1.0000 0.60801  0.88199  0.32989  Biso   1.000  H
  C60      1.0000 0.58365  0.05314  0.30551  Biso   1.000  C
  H57      1.0000 0.38612  0.46570  0.21539  Biso   1.000  H
  C61      1.0000 0.40418  0.48022  0.15119  Biso   1.000  C
  C62      1.0000 0.54510  0.48087  0.13290  Biso   1.000  C
  H58      1.0000 0.62114  0.46589  0.18460  Biso   1.000  H
  C63      1.0000 0.51974  0.13541  0.29440  Biso   1.000  C
  C64      1.0000 0.37325  0.18548  0.28580  Biso   1.000  C
  C65      1.0000 0.66782  0.08990  0.30139  Biso   1.000  C
  C66      1.0000 0.46259  0.48674  0.12069  Biso   1.000  C
  C67      1.0000 0.31760  0.48506  0.13779  Biso   1.000  C
  C68      1.0000 0.60448  0.48562  0.09911  Biso   1.000  C
  H59      1.0000 0.53099  0.21740  0.28499  Biso   1.000  H
  N15      1.0000 0.30055  0.15700  0.28821  Biso   1.000  N
  H60      1.0000 0.38672  0.26664  0.27630  Biso   1.000  H
  N16      1.0000 0.69083  0.19479  0.28821  Biso   1.000  N
  H61      1.0000 0.70831  0.03062  0.30909  Biso   1.000  H
  H62      1.0000 0.44692  0.49521  0.09109  Biso   1.000  H
  N17      1.0000 0.29673  0.47650  0.09821  Biso   1.000  N
  H63      1.0000 0.27781  0.49456  0.15879  Biso   1.000  H
  N18      1.0000 0.68113  0.47864  0.10671  Biso   1.000  N
  H64      1.0000 0.58529  0.49418  0.07009  Biso   1.000  H
  C69      1.0000 0.24060  0.25426  0.27672  Biso   1.000  C
  C70      1.0000 0.77760  0.21694  0.28509  Biso   1.000  C
  C71      1.0000 0.20971  0.48060  0.08729  Biso   1.000  C
  C72      1.0000 0.72988  0.48190  0.06932  Biso   1.000  C
  C73      1.0000 0.18172  0.21126  0.24199  Biso   1.000  C
  H65      1.0000 0.26902  0.32946  0.26679  Biso   1.000  H
  H66      1.0000 0.21080  0.27706  0.30261  Biso   1.000  H
  C74      1.0000 0.79683  0.25444  0.24051  Biso   1.000  C
  H67      1.0000 0.80773  0.14007  0.29301  Biso   1.000  H
  H68      1.0000 0.79482  0.28329  0.30551  Biso   1.000  H
  H69      1.0000 0.17912  0.48897  0.11389  Biso   1.000  H
  H70      1.0000 0.19279  0.40214  0.07289  Biso   1.000  H
  C75      1.0000 0.19078  0.59023  0.05759  Biso   1.000  C
  C76      1.0000 0.79263  0.58716  0.07321  Biso   1.000  C
  H71      1.0000 0.69477  0.49511  0.04319  Biso   1.000  H
  H72      1.0000 0.75792  0.40121  0.06619  Biso   1.000  H
  N19      1.0000 0.22113  0.19376  0.20209  Biso   1.000  N
  H73      1.0000 0.15672  0.13197  0.25079  Biso   1.000  H
  H74      1.0000 0.13810  0.27380  0.23800  Biso   1.000  H
  N20      1.0000 0.77864  0.15747  0.20849  Biso   1.000  N
  H75      1.0000 0.76563  0.33011  0.23268  Biso   1.000  H
  H76      1.0000 0.85492  0.27548  0.23980  Biso   1.000  H
  N21      1.0000 0.20382  0.70610  0.08139  Biso   1.000  N
  H77      1.0000 0.22620  0.58772  0.03260  Biso   1.000  H
  H78      1.0000 0.13401  0.58530  0.04670  Biso   1.000  H
  N22      1.0000 0.75128  0.70693  0.07060  Biso   1.000  N
  H79      1.0000 0.82339  0.58027  0.10101  Biso   1.000  H
  H80      1.0000 0.83110  0.58036  0.04960  Biso   1.000  H
  C77      1.0000 0.21690  0.08376  0.18530  Biso   1.000  C
  C78      1.0000 0.73633  0.19041  0.17590  Biso   1.000  C
  C79      1.0000 0.25360  0.78269  0.06700  Biso   1.000  C
  C80      1.0000 0.76618  0.78399  0.10130  Biso   1.000  C
  C81      1.0000 0.25243  0.05240  0.14430  Biso   1.000  C
  H81      1.0000 0.18949  0.02047  0.20031  Biso   1.000  H
  C82      1.0000 0.71531  0.10610  0.13960  Biso   1.000  C
  H82      1.0000 0.71710  0.27362  0.17461  Biso   1.000  H
  C83      1.0000 0.27003  0.90414  0.08739  Biso   1.000  C
  H83      1.0000 0.28177  0.76110  0.04200  Biso   1.000  H
  C84      1.0000 0.72894  0.90824  0.10310  Biso   1.000  C
  H84      1.0000 0.80298  0.75998  0.12391  Biso   1.000  H
  C85      1.0000 0.23902  0.93448  0.12739  Biso   1.000  C
  C86      1.0000 0.29798  0.13709  0.12269  Biso   1.000  C
  C87      1.0000 0.74700  0.98502  0.13779  Biso   1.000  C
  C88      1.0000 0.66642  0.14630  0.10610  Biso   1.000  C
  C89      1.0000 0.31528  0.99116  0.06580  Biso   1.000  C
  C90      1.0000 0.67832  0.95142  0.07009  Biso   1.000  C
  H85      1.0000 0.20910  0.87492  0.14279  Biso   1.000  H
  C91      1.0000 0.32921  0.11038  0.08329  Biso   1.000  C
  H86      1.0000 0.30839  0.21629  0.13541  Biso   1.000  H
  H87      1.0000 0.78129  0.95551  0.16070  Biso   1.000  H
  C92      1.0000 0.64558  0.06831  0.07070  Biso   1.000  C
  H88      1.0000 0.64581  0.22876  0.10661  Biso   1.000  H
  H89      1.0000 0.33722  0.97013  0.03891  Biso   1.000  H
  H90      1.0000 0.66583  0.89846  0.04629  Biso   1.000  H
  C93      1.0000 0.37423  0.20400  0.05920  Biso   1.000  C
  C94      1.0000 0.59418  0.11373  0.03492  Biso   1.000  C
  N23      1.0000 0.40109  0.18651  0.02300  Biso   1.000  N
  H91      1.0000 0.38333  0.28292  0.07231  Biso   1.000  H
  N24      1.0000 0.57652  0.22662  0.02741  Biso   1.000  N
  H92      1.0000 0.57203  0.05333  0.01559  Biso   1.000  H
  C95      1.0000 0.44230  0.29046  0.00242  Biso   1.000  C
  C96      1.0000 0.52484  0.25202  0.98940  Biso   1.000  C
  H93      1.0000 0.41018  0.31801  0.97671  Biso   1.000  H
  H94      1.0000 0.44683  0.36138  0.02271  Biso   1.000  H
  H95      1.0000 0.52077  0.17636  0.97130  Biso   1.000  H
  H96      1.0000 0.54909  0.31913  0.97230  Biso   1.000  H
  C97      1.0000 0.75366  0.71726  0.56699  Biso   1.000  C
  C98      1.0000 0.77003  0.59591  0.58741  Biso   1.000  C
  N25      1.0000 0.70382  0.79386  0.58139  Biso   1.000  N
  H97      1.0000 0.78183  0.73886  0.54200  Biso   1.000  H
  C99      1.0000 0.81534  0.50879  0.56580  Biso   1.000  C
  C100     1.0000 0.73902  0.56547  0.62738  Biso   1.000  C
  C101     1.0000 0.69084  0.90982  0.55759  Biso   1.000  C
  C102     1.0000 0.82921  0.38958  0.58329  Biso   1.000  C
  H98      1.0000 0.83722  0.52992  0.53890  Biso   1.000  H
  C103     1.0000 0.75243  0.44756  0.64430  Biso   1.000  C
  H99      1.0000 0.70916  0.62513  0.64281  Biso   1.000  H
  H100     1.0000 0.72626  0.91233  0.53259  Biso   1.000  H
  H101     1.0000 0.63401  0.91466  0.54670  Biso   1.000  H
  C104     1.0000 0.70971  0.01936  0.58732  Biso   1.000  C
  C105     1.0000 0.87423  0.29604  0.55920  Biso   1.000  C
  C106     1.0000 0.79804  0.36287  0.62271  Biso   1.000  C
  C107     1.0000 0.71696  0.41619  0.68530  Biso   1.000  C
  N26      1.0000 0.79673  0.02355  0.59820  Biso   1.000  N
  H102     1.0000 0.67911  0.01098  0.61389  Biso   1.000  H
  H103     1.0000 0.69285  0.09791  0.57289  Biso   1.000  H
  N27      1.0000 0.90115  0.31354  0.52299  Biso   1.000  N
  H104     1.0000 0.88333  0.21712  0.57231  Biso   1.000  H
  H105     1.0000 0.80845  0.28367  0.63541  Biso   1.000  H
  N28      1.0000 0.72113  0.30619  0.70211  Biso   1.000  N
  H106     1.0000 0.68955  0.47948  0.70031  Biso   1.000  H
  C108     1.0000 0.81766  0.01489  0.63779  Biso   1.000  C
  C109     1.0000 0.94236  0.20949  0.50241  Biso   1.000  C
  C110     1.0000 0.68172  0.28869  0.74199  Biso   1.000  C
  C111     1.0000 0.90424  0.01982  0.65119  Biso   1.000  C
  H107     1.0000 0.77787  0.00540  0.65879  Biso   1.000  H
  H108     1.0000 0.94683  0.13858  0.52270  Biso   1.000  H
  H109     1.0000 0.91012  0.18204  0.47671  Biso   1.000  H
  C112     1.0000 0.02484  0.24802  0.48940  Biso   1.000  C
  H110     1.0000 0.65673  0.36799  0.75081  Biso   1.000  H
  H111     1.0000 0.63816  0.22624  0.73799  Biso   1.000  H
  C113     1.0000 0.74066  0.24570  0.77671  Biso   1.000  C
  C114     1.0000 0.92653  0.02932  0.69461  Biso   1.000  C
  C115     1.0000 0.96265  0.01331  0.62069  Biso   1.000  C
  N29      1.0000 0.07652  0.27343  0.52741  Biso   1.000  N
  H112     1.0000 0.02070  0.32359  0.47130  Biso   1.000  H
  H113     1.0000 0.04903  0.18092  0.47229  Biso   1.000  H
  N30      1.0000 0.80055  0.34304  0.78821  Biso   1.000  N
  H114     1.0000 0.76908  0.17050  0.76679  Biso   1.000  H
  H115     1.0000 0.71086  0.22289  0.80261  Biso   1.000  H
  H116     1.0000 0.88612  0.03434  0.71541  Biso   1.000  H
  C116     1.0000 0.00985  0.03136  0.70801  Biso   1.000  C
  H117     1.0000 0.94692  0.00484  0.59112  Biso   1.000  H
  C117     1.0000 0.04516  0.01908  0.63289  Biso   1.000  C
  C118     1.0000 0.09424  0.38632  0.53491  Biso   1.000  C
  C119     1.0000 0.87324  0.31447  0.78579  Biso   1.000  C
  C120     1.0000 0.06557  0.02876  0.67622  Biso   1.000  C
  C121     1.0000 0.03404  0.03564  0.75362  Biso   1.000  C
  C122     1.0000 0.10454  0.01443  0.59910  Biso   1.000  C
  C123     1.0000 0.14564  0.43174  0.57070  Biso   1.000  C
  H118     1.0000 0.07203  0.44672  0.51562  Biso   1.000  H
  C124     1.0000 0.94003  0.40391  0.79749  Biso   1.000  C
  H119     1.0000 0.88672  0.23341  0.77629  Biso   1.000  H
  H120     1.0000 0.12114  0.03406  0.68459  Biso   1.000  H
  N31      1.0000 0.98765  0.03518  0.78409  Biso   1.000  N
  H121     1.0000 0.09036  0.03899  0.76061  Biso   1.000  H
  N32      1.0000 0.18113  0.02141  0.60671  Biso   1.000  N
  H122     1.0000 0.08536  0.00577  0.57012  Biso   1.000  H
  C125     1.0000 0.17832  0.54863  0.57012  Biso   1.000  C
  C126     1.0000 0.16642  0.35375  0.60609  Biso   1.000  C
  C127     1.0000 0.92366  0.52173  0.81330  Biso   1.000  C
  C128     1.0000 0.01974  0.36463  0.79439  Biso   1.000  C
  C129     1.0000 0.02268  0.04030  0.82760  Biso   1.000  C
  C130     1.0000 0.22994  0.01805  0.56931  Biso   1.000  C
  C131     1.0000 0.22893  0.59181  0.60310  Biso   1.000  C
  H123     1.0000 0.16583  0.60149  0.54631  Biso   1.000  H
  C132     1.0000 0.21531  0.39386  0.63959  Biso   1.000  C
  H124     1.0000 0.14587  0.27120  0.60661  Biso   1.000  H
  H125     1.0000 0.86914  0.54630  0.81671  Biso   1.000  H
  C133     1.0000 0.98598  0.60475  0.82419  Biso   1.000  C
  C134     1.0000 0.08365  0.44691  0.80551  Biso   1.000  C
  H126     1.0000 0.03105  0.28264  0.78499  Biso   1.000  H
  C135     1.0000 0.99296  0.93644  0.85649  Biso   1.000  C
  H127     1.0000 0.08224  0.03499  0.82641  Biso   1.000  H
  H128     1.0000 0.00926  0.12164  0.84061  Biso   1.000  H
  C136     1.0000 0.29263  0.91280  0.57321  Biso   1.000  C
  H129     1.0000 0.19483  0.00493  0.54319  Biso   1.000  H
  H130     1.0000 0.25792  0.09884  0.56619  Biso   1.000  H
  C137     1.0000 0.24706  0.51503  0.63779  Biso   1.000  C
  C138     1.0000 0.26624  0.71596  0.60129  Biso   1.000  C
  C139     1.0000 0.23633  0.30963  0.67589  Biso   1.000  C
  C140     1.0000 0.96595  0.73029  0.83839  Biso   1.000  C
  C141     1.0000 0.06528  0.56380  0.82110  Biso   1.000  C
  C142     1.0000 0.16782  0.41014  0.80142  Biso   1.000  C
  N33      1.0000 0.01887  0.81601  0.84071  Biso   1.000  N
  H131     1.0000 0.93323  0.93876  0.85701  Biso   1.000  H
  H132     1.0000 0.01468  0.94900  0.88629  Biso   1.000  H
  N34      1.0000 0.25134  0.79311  0.57060  Biso   1.000  N
  H133     1.0000 0.32345  0.91968  0.60100  Biso   1.000  H
  H134     1.0000 0.33116  0.91959  0.54960  Biso   1.000  H
  H135     1.0000 0.28135  0.54453  0.66069  Biso   1.000  H
  H136     1.0000 0.30304  0.73997  0.62391  Biso   1.000  H
  N35      1.0000 0.27864  0.34248  0.70849  Biso   1.000  N
  H137     1.0000 0.21716  0.22643  0.67460  Biso   1.000  H
  H138     1.0000 0.91214  0.74826  0.84609  Biso   1.000  H
  H139     1.0000 0.10807  0.61796  0.82989  Biso   1.000  H
  N36      1.0000 0.19083  0.30517  0.78821  Biso   1.000  N
  H140     1.0000 0.20837  0.46943  0.80911  Biso   1.000  H
  C143     1.0000 0.29683  0.24560  0.74051  Biso   1.000  C
  C144     1.0000 0.27767  0.28311  0.78512  Biso   1.000  C
  H141     1.0000 0.26563  0.16994  0.73271  Biso   1.000  H
  H142     1.0000 0.35498  0.22448  0.73980  Biso   1.000  H
  H143     1.0000 0.30773  0.35989  0.79301  Biso   1.000  H
  H144     1.0000 0.29488  0.21666  0.80551  Biso   1.000  H
  C145     1.0000 0.24640  0.28274  0.43300  Biso   1.000  C
  C146     1.0000 0.23003  0.40409  0.41261  Biso   1.000  C
  N37      1.0000 0.29624  0.20614  0.41860  Biso   1.000  N
  H145     1.0000 0.21823  0.26114  0.45799  Biso   1.000  H
  C147     1.0000 0.26104  0.43453  0.37260  Biso   1.000  C
  C148     1.0000 0.18472  0.49121  0.43419  Biso   1.000  C
  C149     1.0000 0.30922  0.09018  0.44240  Biso   1.000  C
  C150     1.0000 0.24763  0.55244  0.35569  Biso   1.000  C
  H146     1.0000 0.29090  0.37487  0.35721  Biso   1.000  H
  C151     1.0000 0.17085  0.61042  0.41670  Biso   1.000  C
  H147     1.0000 0.16284  0.47008  0.46109  Biso   1.000  H
  H148     1.0000 0.27380  0.08767  0.46740  Biso   1.000  H
  H149     1.0000 0.36605  0.08534  0.45329  Biso   1.000  H
  C152     1.0000 0.29035  0.98064  0.41271  Biso   1.000  C
  C153     1.0000 0.28310  0.58381  0.31469  Biso   1.000  C
  C154     1.0000 0.20202  0.63713  0.37731  Biso   1.000  C
  C155     1.0000 0.12583  0.70396  0.44079  Biso   1.000  C
  N38      1.0000 0.20333  0.97645  0.40179  Biso   1.000  N
  H150     1.0000 0.32094  0.98902  0.38610  Biso   1.000  H
  H151     1.0000 0.30721  0.90209  0.42710  Biso   1.000  H
  N39      1.0000 0.27893  0.69381  0.29791  Biso   1.000  N
  H152     1.0000 0.31051  0.52052  0.29971  Biso   1.000  H
  H153     1.0000 0.19162  0.71633  0.36462  Biso   1.000  H
  N40      1.0000 0.09891  0.68646  0.47700  Biso   1.000  N
  H154     1.0000 0.11673  0.78288  0.42772  Biso   1.000  H
  C156     1.0000 0.18239  0.98511  0.36220  Biso   1.000  C
  C157     1.0000 0.31834  0.71131  0.25800  Biso   1.000  C
  C158     1.0000 0.05776  0.79051  0.49761  Biso   1.000  C
  C159     1.0000 0.09582  0.98018  0.34880  Biso   1.000  C
  H155     1.0000 0.22225  0.99460  0.34120  Biso   1.000  H
  H156     1.0000 0.34334  0.63201  0.24921  Biso   1.000  H
  H157     1.0000 0.36190  0.77376  0.26200  Biso   1.000  H
  C160     1.0000 0.25940  0.75430  0.22331  Biso   1.000  C
  H158     1.0000 0.05323  0.86142  0.47729  Biso   1.000  H
  H159     1.0000 0.08994  0.81796  0.52331  Biso   1.000  H
  C161     1.0000 0.97522  0.75198  0.51059  Biso   1.000  C
  C162     1.0000 0.07353  0.97068  0.30541  Biso   1.000  C
  C163     1.0000 0.03741  0.98669  0.37930  Biso   1.000  C
  N41      1.0000 0.19952  0.65696  0.21181  Biso   1.000  N
  H160     1.0000 0.23104  0.82950  0.23320  Biso   1.000  H
  H161     1.0000 0.28920  0.77711  0.19741  Biso   1.000  H
  N42      1.0000 0.92354  0.72657  0.47262  Biso   1.000  N
  H162     1.0000 0.97935  0.67641  0.52869  Biso   1.000  H
  H163     1.0000 0.95103  0.81908  0.52770  Biso   1.000  H
  C164     1.0000 0.99021  0.96864  0.29202  Biso   1.000  C
  H164     1.0000 0.11394  0.96566  0.28461  Biso   1.000  H
  C165     1.0000 0.95490  0.98092  0.36710  Biso   1.000  C
  H165     1.0000 0.05314  0.99516  0.40890  Biso   1.000  H
  C166     1.0000 0.12681  0.68553  0.21420  Biso   1.000  C
  C167     1.0000 0.90582  0.61368  0.46511  Biso   1.000  C
  C168     1.0000 0.93449  0.97124  0.32381  Biso   1.000  C
  C169     1.0000 0.96602  0.96436  0.24641  Biso   1.000  C
  C170     1.0000 0.89551  0.98557  0.40088  Biso   1.000  C
  C171     1.0000 0.06003  0.59609  0.20250  Biso   1.000  C
  H166     1.0000 0.11334  0.76659  0.22370  Biso   1.000  H
  C172     1.0000 0.85442  0.56826  0.42929  Biso   1.000  C
  H167     1.0000 0.92803  0.55328  0.48441  Biso   1.000  H
  H168     1.0000 0.87892  0.96594  0.31540  Biso   1.000  H
  N43      1.0000 0.01241  0.96482  0.21590  Biso   1.000  N
  H169     1.0000 0.90970  0.96101  0.23942  Biso   1.000  H
  N44      1.0000 0.81893  0.97859  0.39332  Biso   1.000  N
  H170     1.0000 0.91470  0.99423  0.42991  Biso   1.000  H
  C173     1.0000 0.07640  0.47827  0.18669  Biso   1.000  C
  C174     1.0000 0.98032  0.63537  0.20560  Biso   1.000  C
  C175     1.0000 0.82174  0.45137  0.42991  Biso   1.000  C
  C176     1.0000 0.83364  0.64625  0.39390  Biso   1.000  C
  C177     1.0000 0.97738  0.95970  0.17239  Biso   1.000  C
  C178     1.0000 0.77012  0.98195  0.43071  Biso   1.000  C
  H171     1.0000 0.13092  0.45370  0.18331  Biso   1.000  H
  C179     1.0000 0.01414  0.39525  0.17580  Biso   1.000  C
  C180     1.0000 0.91641  0.55309  0.19452  Biso   1.000  C
  H172     1.0000 0.96901  0.71736  0.21500  Biso   1.000  H
  C181     1.0000 0.77112  0.40819  0.39689  Biso   1.000  C
  H173     1.0000 0.83423  0.39851  0.45371  Biso   1.000  H
  C182     1.0000 0.78475  0.60614  0.36040  Biso   1.000  C
  H174     1.0000 0.85425  0.72880  0.39341  Biso   1.000  H
  C183     1.0000 0.00710  0.06356  0.14350  Biso   1.000  C
  H175     1.0000 0.91782  0.96501  0.17361  Biso   1.000  H
  H176     1.0000 0.99080  0.87836  0.15941  Biso   1.000  H
  C184     1.0000 0.70743  0.08720  0.42681  Biso   1.000  C
  H177     1.0000 0.80522  0.99507  0.45680  Biso   1.000  H
  H178     1.0000 0.74214  0.90116  0.43380  Biso   1.000  H
  C185     1.0000 0.03411  0.26971  0.16160  Biso   1.000  C
  C186     1.0000 0.93478  0.43620  0.17889  Biso   1.000  C
  C187     1.0000 0.83224  0.58986  0.19861  Biso   1.000  C
  C188     1.0000 0.75300  0.48497  0.36220  Biso   1.000  C
  C189     1.0000 0.73382  0.28404  0.39869  Biso   1.000  C
  C190     1.0000 0.76373  0.69037  0.32410  Biso   1.000  C
  N45      1.0000 0.98120  0.18399  0.15931  Biso   1.000  N
  H179     1.0000 0.06683  0.06124  0.14301  Biso   1.000  H
  H180     1.0000 0.98538  0.05100  0.11370  Biso   1.000  H
  N46      1.0000 0.74872  0.20689  0.42939  Biso   1.000  N
  H181     1.0000 0.67661  0.08032  0.39902  Biso   1.000  H
  H182     1.0000 0.66896  0.08041  0.45039  Biso   1.000  H
  H183     1.0000 0.08792  0.25174  0.15390  Biso   1.000  H
  H184     1.0000 0.89198  0.38204  0.17010  Biso   1.000  H
  N47      1.0000 0.80924  0.69483  0.21181  Biso   1.000  N
  H185     1.0000 0.79169  0.53057  0.19091  Biso   1.000  H
  H186     1.0000 0.71871  0.45547  0.33930  Biso   1.000  H
  H187     1.0000 0.69702  0.26003  0.37612  Biso   1.000  H
  N48      1.0000 0.72142  0.65752  0.29150  Biso   1.000  N
  H188     1.0000 0.78290  0.77357  0.32538  Biso   1.000  H
  C191     1.0000 0.72240  0.71689  0.21490  Biso   1.000  C
  C192     1.0000 0.70323  0.75440  0.25952  Biso   1.000  C
  H189     1.0000 0.69234  0.64011  0.20701  Biso   1.000  H
  H190     1.0000 0.70518  0.78334  0.19452  Biso   1.000  H
  H191     1.0000 0.73443  0.83006  0.26731  Biso   1.000  H
  H192     1.0000 0.64514  0.77552  0.26019  Biso   1.000  H
  Ne1      1.0000 0.49221  0.88609  0.16935  Biso   1.000  Ne
  He1      1.0000 0.64646  0.78007  0.22095  Biso   1.000  He
  He2      1.0000 0.35407  0.78910  0.21906  Biso   1.000  He
  He3      1.0000 0.49621  0.16400  0.17742  Biso   1.000  He
  He4      1.0000 0.48919  0.79761  0.08264  Biso   1.000  He
  Ar1      1.0000 0.49600  0.88508  0.17011  Biso   1.000  Ar
  Ne2      1.0000 0.00783  0.38608  0.33066  Biso   1.000  Ne
  He5      1.0000 0.01090  0.29697  0.41801  Biso   1.000  He
  He6      1.0000 0.00376  0.65801  0.32259  Biso   1.000  He
  He7      1.0000 0.13810  0.29389  0.28319  Biso   1.000  He
  He8      1.0000 0.87527  0.29452  0.28501  Biso   1.000  He
  Ar2      1.0000 0.00373  0.37624  0.32545  Biso   1.000  Ar
  Ne3      1.0000 0.50786  0.11391  0.83065  Biso   1.000  Ne
  He9      1.0000 0.51074  0.20064  0.91545  Biso   1.000  He
  He10     1.0000 0.50385  0.83521  0.82257  Biso   1.000  He
  He11     1.0000 0.63630  0.20501  0.78371  Biso   1.000  He
  He12     1.0000 0.36942  0.20941  0.78339  Biso   1.000  He
  Ar3      1.0000 0.50385  0.12047  0.82256  Biso   1.000  Ar
  Ne4      1.0000 0.99223  0.61392  0.66935  Biso   1.000  Ne
  He13     1.0000 0.12332  0.70448  0.71457  Biso   1.000  He
  He14     1.0000 0.86215  0.70599  0.71674  Biso   1.000  He
  He15     1.0000 0.99646  0.35737  0.67733  Biso   1.000  He
  He16     1.0000 0.98897  0.70537  0.57940  Biso   1.000  He
  Ar4      1.0000 0.99648  0.62577  0.67067  Biso   1.000  Ar
