data_image0
_cell_length_a       10.014
_cell_length_b       13.054
_cell_length_c       13.797
_cell_angle_alpha    67.11
_cell_angle_beta     77.01
_cell_angle_gamma    84.97

_symmetry_space_group_name_H-M    "P 1"
_symmetry_int_tables_number       1

loop_
  _symmetry_equiv_pos_as_xyz
  'x, y, z'

loop_
  _atom_site_label
  _atom_site_occupancy
  _atom_site_fract_x
  _atom_site_fract_y
  _atom_site_fract_z
  _atom_site_thermal_displace_type
  _atom_site_B_iso_or_equiv
  _atom_site_type_symbol
  C1       1.0000 0.79681  0.38628  0.65832  Biso   1.000  C
  C2       1.0000 0.86165  0.29934  0.63419  Biso   1.000  C
  C3       1.0000 0.67946  0.37002  0.73819  Biso   1.000  C
  H1       1.0000 0.83243  0.45768  0.62012  Biso   1.000  H
  C4       1.0000 0.80867  0.19244  0.68897  Biso   1.000  C
  H2       1.0000 0.94107  0.31210  0.58103  Biso   1.000  H
  C5       1.0000 0.62807  0.26391  0.79369  Biso   1.000  C
  C6       1.0000 0.60773  0.46640  0.76336  Biso   1.000  C
  C7       1.0000 0.88100  0.09462  0.66628  Biso   1.000  C
  C8       1.0000 0.69228  0.17506  0.76972  Biso   1.000  C
  H3       1.0000 0.54973  0.25131  0.84781  Biso   1.000  H
  N1       1.0000 0.67847  0.50420  0.82602  Biso   1.000  N
  H4       1.0000 0.60130  0.52788  0.69661  Biso   1.000  H
  H5       1.0000 0.51517  0.44400  0.80350  Biso   1.000  H
  N2       1.0000 0.86461  0.09261  0.56229  Biso   1.000  N
  H6       1.0000 0.84474  0.02609  0.72419  Biso   1.000  H
  H7       1.0000 0.97781  0.09793  0.66492  Biso   1.000  H
  H8       1.0000 0.65677  0.10372  0.80816  Biso   1.000  H
  C9       1.0000 0.76889  0.58700  0.78403  Biso   1.000  C
  C10      1.0000 0.66472  0.45982  0.93709  Biso   1.000  C
  C11      1.0000 0.92745  0.16140  0.46617  Biso   1.000  C
  C12      1.0000 0.78465  0.01927  0.54894  Biso   1.000  C
  N3       1.0000 0.81326  0.59743  0.86487  Biso   1.000  N
  H9       1.0000 0.79655  0.63021  0.71132  Biso   1.000  H
  C13      1.0000 0.74816  0.51761  0.96106  Biso   1.000  C
  H10      1.0000 0.60833  0.40090  0.98583  Biso   1.000  H
  N4       1.0000 0.88809  0.13577  0.39153  Biso   1.000  N
  H11      1.0000 0.98805  0.21761  0.45290  Biso   1.000  H
  C14      1.0000 0.79898  0.04595  0.44317  Biso   1.000  C
  H12      1.0000 0.73091  0.96208  0.60363  Biso   1.000  H
  C15      1.0000 0.91922  0.67240  0.84749  Biso   1.000  C
  H13      1.0000 0.75991  0.50630  0.02951  Biso   1.000  H
  C16      1.0000 0.93293  0.19705  0.27797  Biso   1.000  C
  H14      1.0000 0.75728  0.01088  0.41052  Biso   1.000  H
  N5       1.0000 0.96177  0.73637  0.74583  Biso   1.000  N
  C17      1.0000 0.97499  0.67333  0.93018  Biso   1.000  C
  C18      1.0000 0.86582  0.18989  0.20389  Biso   1.000  C
  N6       1.0000 0.03823  0.26360  0.25424  Biso   1.000  N
  C19      1.0000 0.06708  0.80303  0.72202  Biso   1.000  C
  H15      1.0000 0.94011  0.62842  0.00136  Biso   1.000  H
  C20      1.0000 0.08397  0.74324  0.90299  Biso   1.000  C
  H16      1.0000 0.79119  0.14297  0.22424  Biso   1.000  H
  C21      1.0000 0.91605  0.25677  0.09700  Biso   1.000  C
  C22      1.0000 0.08080  0.32761  0.15250  Biso   1.000  C
  N7       1.0000 0.11191  0.86420  0.60853  Biso   1.000  N
  C23      1.0000 0.13420  0.81011  0.79610  Biso   1.000  C
  H17      1.0000 0.12447  0.74569  0.95640  Biso   1.000  H
  H18      1.0000 0.87555  0.25432  0.04359  Biso   1.000  H
  C24      1.0000 0.02502  0.32667  0.06981  Biso   1.000  C
  N8       1.0000 0.18666  0.40257  0.13512  Biso   1.000  N
  C25      1.0000 0.07257  0.83860  0.53382  Biso   1.000  C
  C26      1.0000 0.20103  0.95413  0.55682  Biso   1.000  C
  H19      1.0000 0.20881  0.85700  0.77583  Biso   1.000  H
  H20      1.0000 0.05991  0.37159  0.99863  Biso   1.000  H
  C27      1.0000 0.23111  0.41297  0.21604  Biso   1.000  C
  C28      1.0000 0.25186  0.48239  0.03893  Biso   1.000  C
  N9       1.0000 0.13541  0.90739  0.43770  Biso   1.000  N
  H21      1.0000 0.01187  0.78239  0.54709  Biso   1.000  H
  C29      1.0000 0.21524  0.98070  0.45113  Biso   1.000  C
  H22      1.0000 0.24274  0.98912  0.58947  Biso   1.000  H
  N10      1.0000 0.32155  0.49580  0.17397  Biso   1.000  N
  H23      1.0000 0.20337  0.36979  0.28866  Biso   1.000  H
  H24      1.0000 0.24011  0.49370  0.97048  Biso   1.000  H
  C30      1.0000 0.33530  0.54018  0.06290  Biso   1.000  C
  C31      1.0000 0.11902  0.90538  0.33370  Biso   1.000  C
  H25      1.0000 0.26911  0.03792  0.39636  Biso   1.000  H
  C32      1.0000 0.39229  0.53360  0.23663  Biso   1.000  C
  H26      1.0000 0.39167  0.59907  0.01424  Biso   1.000  H
  C33      1.0000 0.19135  0.80756  0.31102  Biso   1.000  C
  H27      1.0000 0.15528  0.97391  0.27580  Biso   1.000  H
  H28      1.0000 0.02221  0.90208  0.33507  Biso   1.000  H
  H29      1.0000 0.39872  0.47213  0.30338  Biso   1.000  H
  H30      1.0000 0.48485  0.55600  0.19649  Biso   1.000  H
  C34      1.0000 0.32046  0.62998  0.26180  Biso   1.000  C
  C35      1.0000 0.13826  0.70074  0.36580  Biso   1.000  C
  C36      1.0000 0.30774  0.82494  0.23027  Biso   1.000  C
  C37      1.0000 0.20321  0.61372  0.34167  Biso   1.000  C
  C38      1.0000 0.37195  0.73609  0.20630  Biso   1.000  C
  H31      1.0000 0.05895  0.68790  0.41896  Biso   1.000  H
  H32      1.0000 0.34315  0.89628  0.19183  Biso   1.000  H
  H33      1.0000 0.16758  0.54232  0.37987  Biso   1.000  H
  H34      1.0000 0.45029  0.74869  0.15217  Biso   1.000  H
