data_image0
_cell_length_a       14.794
_cell_length_b       23.716
_cell_length_c       16.008
_cell_angle_alpha    90
_cell_angle_beta     94.57
_cell_angle_gamma    90

_symmetry_space_group_name_H-M    "P 1"
_symmetry_int_tables_number       1

loop_
  _symmetry_equiv_pos_as_xyz
  'x, y, z'

loop_
  _atom_site_label
  _atom_site_occupancy
  _atom_site_fract_x
  _atom_site_fract_y
  _atom_site_fract_z
  _atom_site_thermal_displace_type
  _atom_site_B_iso_or_equiv
  _atom_site_type_symbol
  C1       1.0000 0.55183  0.53778  0.47020  Biso   1.000  C
  C2       1.0000 0.56358  0.51248  0.39481  Biso   1.000  C
  H1       1.0000 0.50077  0.56148  0.47540  Biso   1.000  H
  C3       1.0000 0.61373  0.52918  0.53907  Biso   1.000  C
  C4       1.0000 0.63703  0.47618  0.38359  Biso   1.000  C
  Br1      1.0000 0.47469  0.52559  0.30381  Biso   1.000  Br
  C5       1.0000 0.68866  0.49460  0.52773  Biso   1.000  C
  C6       1.0000 0.59826  0.55570  0.62073  Biso   1.000  C
  C7       1.0000 0.64760  0.44531  0.30463  Biso   1.000  C
  C8       1.0000 0.70008  0.46901  0.45159  Biso   1.000  C
  Br2      1.0000 0.77743  0.48031  0.61809  Biso   1.000  Br
  N1       1.0000 0.51786  0.56569  0.63997  Biso   1.000  N
  H2       1.0000 0.64852  0.56519  0.65870  Biso   1.000  H
  N2       1.0000 0.71208  0.41128  0.29598  Biso   1.000  N
  H3       1.0000 0.60414  0.45130  0.25851  Biso   1.000  H
  H4       1.0000 0.75184  0.44599  0.44588  Biso   1.000  H
  C9       1.0000 0.50984  0.59247  0.72181  Biso   1.000  C
  C10      1.0000 0.71388  0.38459  0.21338  Biso   1.000  C
  H5       1.0000 0.57154  0.59867  0.75057  Biso   1.000  H
  C11      1.0000 0.46173  0.64927  0.70708  Biso   1.000  C
  C12      1.0000 0.45506  0.55490  0.77476  Biso   1.000  C
  C13      1.0000 0.72788  0.32139  0.22448  Biso   1.000  C
  C14      1.0000 0.78815  0.41179  0.16607  Biso   1.000  C
  H6       1.0000 0.65405  0.39109  0.18111  Biso   1.000  H
  N3       1.0000 0.51771  0.68549  0.65858  Biso   1.000  N
  H7       1.0000 0.40213  0.64290  0.67437  Biso   1.000  H
  C15      1.0000 0.44542  0.67769  0.78843  Biso   1.000  C
  C16      1.0000 0.43595  0.58298  0.85880  Biso   1.000  C
  H8       1.0000 0.48831  0.51919  0.78642  Biso   1.000  H
  H9       1.0000 0.39664  0.54571  0.74318  Biso   1.000  H
  H10      1.0000 0.67737  0.30541  0.25399  Biso   1.000  H
  H11      1.0000 0.78499  0.31451  0.25957  Biso   1.000  H
  C17      1.0000 0.73219  0.29170  0.14038  Biso   1.000  C
  N4       1.0000 0.76679  0.46998  0.15441  Biso   1.000  N
  H12      1.0000 0.84794  0.40799  0.19947  Biso   1.000  H
  C18      1.0000 0.79176  0.38130  0.08103  Biso   1.000  C
  C19      1.0000 0.49716  0.69008  0.58168  Biso   1.000  C
  H13      1.0000 0.41231  0.71340  0.77671  Biso   1.000  H
  H14      1.0000 0.50444  0.68679  0.81901  Biso   1.000  H
  C20      1.0000 0.39024  0.63978  0.84382  Biso   1.000  C
  H15      1.0000 0.39644  0.55819  0.88982  Biso   1.000  H
  H16      1.0000 0.49370  0.58817  0.89358  Biso   1.000  H
  H17      1.0000 0.74564  0.25118  0.14978  Biso   1.000  H
  H18      1.0000 0.67280  0.29478  0.10773  Biso   1.000  H
  C21      1.0000 0.80505  0.31818  0.09168  Biso   1.000  C
  C22      1.0000 0.81727  0.50721  0.19339  Biso   1.000  C
  H19      1.0000 0.73461  0.38830  0.04612  Biso   1.000  H
  H20      1.0000 0.84219  0.39691  0.05120  Biso   1.000  H
  H21      1.0000 0.44586  0.66980  0.55831  Biso   1.000  H
  C23      1.0000 0.54798  0.72508  0.52510  Biso   1.000  C
  H22      1.0000 0.38412  0.65867  0.89822  Biso   1.000  H
  H23      1.0000 0.32865  0.63409  0.81619  Biso   1.000  H
  H24      1.0000 0.80429  0.30030  0.03578  Biso   1.000  H
  H25      1.0000 0.86515  0.31101  0.12151  Biso   1.000  H
  C24      1.0000 0.79049  0.56730  0.18857  Biso   1.000  C
  H26      1.0000 0.87139  0.49621  0.22523  Biso   1.000  H
  C25      1.0000 0.52993  0.72791  0.43968  Biso   1.000  C
  C26      1.0000 0.61867  0.75987  0.55950  Biso   1.000  C
  C27      1.0000 0.70090  0.58007  0.16789  Biso   1.000  C
  C28      1.0000 0.85055  0.61199  0.20392  Biso   1.000  C
  Br3      1.0000 0.43546  0.68114  0.38516  Biso   1.000  Br
  C29      1.0000 0.57466  0.76096  0.38691  Biso   1.000  C
  C30      1.0000 0.66243  0.79470  0.50730  Biso   1.000  C
  H27      1.0000 0.63587  0.75928  0.61791  Biso   1.000  H
  C31      1.0000 0.67306  0.63510  0.15930  Biso   1.000  C
  H28      1.0000 0.65780  0.55047  0.15949  Biso   1.000  H
  Br4      1.0000 0.97474  0.59753  0.24096  Biso   1.000  Br
  C32      1.0000 0.82326  0.66719  0.19308  Biso   1.000  C
  C33      1.0000 0.64568  0.79609  0.42357  Biso   1.000  C
  H29      1.0000 0.55939  0.76067  0.32819  Biso   1.000  H
  Br5      1.0000 0.75091  0.84483  0.56364  Biso   1.000  Br
  Br6      1.0000 0.54619  0.64733  0.13123  Biso   1.000  Br
  C34      1.0000 0.73337  0.68001  0.16970  Biso   1.000  C
  H30      1.0000 0.86639  0.69670  0.20179  Biso   1.000  H
  C35      1.0000 0.69603  0.83066  0.36542  Biso   1.000  C
  C36      1.0000 0.70538  0.73967  0.15711  Biso   1.000  C
  N5       1.0000 0.66999  0.83480  0.28840  Biso   1.000  N
  H31      1.0000 0.74929  0.85010  0.38647  Biso   1.000  H
  N6       1.0000 0.76138  0.77947  0.16218  Biso   1.000  N
  H32      1.0000 0.64300  0.74810  0.14470  Biso   1.000  H
  C37      1.0000 0.72626  0.86688  0.23388  Biso   1.000  C
  C38      1.0000 0.72526  0.83640  0.15090  Biso   1.000  C
  H33      1.0000 0.78990  0.86878  0.26007  Biso   1.000  H
  C39      1.0000 0.68878  0.92617  0.22172  Biso   1.000  C
  H34      1.0000 0.66110  0.83370  0.12653  Biso   1.000  H
  C40      1.0000 0.78091  0.86899  0.08842  Biso   1.000  C
  C41      1.0000 0.74607  0.95977  0.16338  Biso   1.000  C
  H35      1.0000 0.68919  0.94548  0.27662  Biso   1.000  H
  H36      1.0000 0.62514  0.92440  0.19709  Biso   1.000  H
  H37      1.0000 0.84577  0.86878  0.10923  Biso   1.000  H
  H38      1.0000 0.77508  0.84976  0.03340  Biso   1.000  H
  C42      1.0000 0.74910  0.92887  0.07777  Biso   1.000  C
  H39      1.0000 0.80846  0.96407  0.19001  Biso   1.000  H
  H40      1.0000 0.71980  0.99789  0.15423  Biso   1.000  H
  H41      1.0000 0.68780  0.92916  0.04813  Biso   1.000  H
  H42      1.0000 0.79035  0.94949  0.04268  Biso   1.000  H
  C43      1.0000 0.20418  0.50578  0.50228  Biso   1.000  C
  C44      1.0000 0.17859  0.51640  0.41868  Biso   1.000  C
  Br7      1.0000 0.31694  0.53685  0.55261  Biso   1.000  Br
  C45      1.0000 0.15608  0.47360  0.55430  Biso   1.000  C
  C46      1.0000 0.22983  0.55178  0.36548  Biso   1.000  C
  C47      1.0000 0.09736  0.49161  0.38679  Biso   1.000  C
  C48      1.0000 0.07337  0.45008  0.52171  Biso   1.000  C
  H43      1.0000 0.17806  0.46728  0.61089  Biso   1.000  H
  N7       1.0000 0.18915  0.57569  0.29899  Biso   1.000  N
  H44      1.0000 0.29285  0.55768  0.37902  Biso   1.000  H
  C49      1.0000 0.04754  0.45880  0.43698  Biso   1.000  C
  H45      1.0000 0.07636  0.49739  0.32982  Biso   1.000  H
  C50      1.0000 0.01788  0.41727  0.57818  Biso   1.000  C
  C51      1.0000 0.24781  0.60609  0.24390  Biso   1.000  C
  Br8      1.0000 0.93499  0.42963  0.38754  Biso   1.000  Br
  N8       1.0000 0.04285  0.40698  0.65300  Biso   1.000  N
  H46      1.0000 0.96042  0.40361  0.55618  Biso   1.000  H
  C52      1.0000 0.23555  0.57910  0.15742  Biso   1.000  C
  H47      1.0000 0.31249  0.60297  0.26659  Biso   1.000  H
  C53      1.0000 0.21985  0.66790  0.23789  Biso   1.000  C
  C54      1.0000 0.98054  0.37561  0.70019  Biso   1.000  C
  N9       1.0000 0.26545  0.52007  0.16469  Biso   1.000  N
  H48      1.0000 0.16986  0.58007  0.13712  Biso   1.000  H
  C55      1.0000 0.28896  0.61047  0.09632  Biso   1.000  C
  C56      1.0000 0.27309  0.70050  0.17572  Biso   1.000  C
  H49      1.0000 0.22995  0.68549  0.29391  Biso   1.000  H
  H50      1.0000 0.15425  0.67039  0.22028  Biso   1.000  H
  C57      1.0000 0.01646  0.31489  0.71310  Biso   1.000  C
  H51      1.0000 0.92035  0.37401  0.66698  Biso   1.000  H
  C58      1.0000 0.96822  0.40407  0.78391  Biso   1.000  C
  C59      1.0000 0.20448  0.48339  0.16231  Biso   1.000  C
  H52      1.0000 0.27872  0.59281  0.04030  Biso   1.000  H
  H53      1.0000 0.35451  0.60727  0.11412  Biso   1.000  H
  C60      1.0000 0.26312  0.67267  0.08980  Biso   1.000  C
  H54      1.0000 0.25040  0.73980  0.17121  Biso   1.000  H
  H55      1.0000 0.33800  0.70168  0.19628  Biso   1.000  H
  N10      1.0000 0.01946  0.28951  0.63107  Biso   1.000  N
  H56      1.0000 0.07887  0.31569  0.74230  Biso   1.000  H
  C61      1.0000 0.95272  0.28158  0.76562  Biso   1.000  C
  H57      1.0000 0.02842  0.40998  0.81418  Biso   1.000  H
  H58      1.0000 0.94020  0.44168  0.77332  Biso   1.000  H
  C62      1.0000 0.90932  0.36988  0.83850  Biso   1.000  C
  C63      1.0000 0.22715  0.42317  0.17127  Biso   1.000  C
  H59      1.0000 0.14270  0.49448  0.15448  Biso   1.000  H
  H60      1.0000 0.30256  0.69206  0.05183  Biso   1.000  H
  H61      1.0000 0.19960  0.67617  0.06580  Biso   1.000  H
  C64      1.0000 0.09023  0.26240  0.61540  Biso   1.000  C
  C65      1.0000 0.94199  0.31021  0.84890  Biso   1.000  C
  H62      1.0000 0.89261  0.27808  0.73409  Biso   1.000  H
  H63      1.0000 0.97725  0.24308  0.77570  Biso   1.000  H
  H64      1.0000 0.90953  0.38788  0.89427  Biso   1.000  H
  H65      1.0000 0.84615  0.36988  0.81299  Biso   1.000  H
  C66      1.0000 0.16756  0.38008  0.14652  Biso   1.000  C
  C67      1.0000 0.31207  0.40690  0.20518  Biso   1.000  C
  C68      1.0000 0.09993  0.23980  0.53030  Biso   1.000  C
  H66      1.0000 0.13714  0.25649  0.65852  Biso   1.000  H
  H67      1.0000 0.00113  0.31000  0.88262  Biso   1.000  H
  H68      1.0000 0.89830  0.28858  0.87998  Biso   1.000  H
  C69      1.0000 0.18969  0.32358  0.15228  Biso   1.000  C
  Br9      1.0000 0.04569  0.39653  0.10190  Biso   1.000  Br
  C70      1.0000 0.33666  0.35090  0.21138  Biso   1.000  C
  H69      1.0000 0.35451  0.43490  0.22473  Biso   1.000  H
  C71      1.0000 0.04750  0.26299  0.46230  Biso   1.000  C
  C72      1.0000 0.15974  0.19708  0.51137  Biso   1.000  C
  C73      1.0000 0.27618  0.30781  0.18249  Biso   1.000  C
  H70      1.0000 0.14567  0.29571  0.13568  Biso   1.000  H
  Br10     1.0000 0.45599  0.33290  0.25556  Biso   1.000  Br
  C74      1.0000 0.05466  0.24410  0.38159  Biso   1.000  C
  H71      1.0000 0.00588  0.29238  0.47202  Biso   1.000  H
  C75      1.0000 0.16879  0.17849  0.43122  Biso   1.000  C
  Br11     1.0000 0.23219  0.16015  0.59980  Biso   1.000  Br
  C76      1.0000 0.29979  0.24730  0.18587  Biso   1.000  C
  C77      1.0000 0.11564  0.20130  0.36441  Biso   1.000  C
  Br12     1.0000 0.98618  0.28129  0.29285  Biso   1.000  Br
  H72      1.0000 0.21155  0.14990  0.42157  Biso   1.000  H
  N11      1.0000 0.25337  0.21378  0.13593  Biso   1.000  N
  H73      1.0000 0.34760  0.23351  0.22379  Biso   1.000  H
  C78      1.0000 0.12447  0.17840  0.27862  Biso   1.000  C
  C79      1.0000 0.27127  0.15310  0.14282  Biso   1.000  C
  N12      1.0000 0.18468  0.14362  0.26358  Biso   1.000  N
  H74      1.0000 0.08309  0.19059  0.23388  Biso   1.000  H
  H75      1.0000 0.32520  0.14699  0.18349  Biso   1.000  H
  C80      1.0000 0.18899  0.12532  0.17710  Biso   1.000  C
  C81      1.0000 0.29251  0.13059  0.05759  Biso   1.000  C
  H76      1.0000 0.13288  0.13788  0.14332  Biso   1.000  H
  C82      1.0000 0.19501  0.06131  0.17403  Biso   1.000  C
  C83      1.0000 0.29796  0.06590  0.05878  Biso   1.000  C
  H77      1.0000 0.35097  0.14640  0.04249  Biso   1.000  H
  H78      1.0000 0.24467  0.14281  0.01460  Biso   1.000  H
  H79      1.0000 0.24456  0.04849  0.21483  Biso   1.000  H
  H80      1.0000 0.13760  0.04512  0.19107  Biso   1.000  H
  C84      1.0000 0.21197  0.03900  0.08767  Biso   1.000  C
  H81      1.0000 0.30778  0.05220  0.00182  Biso   1.000  H
  H82      1.0000 0.35058  0.05410  0.09682  Biso   1.000  H
  H83      1.0000 0.15969  0.04811  0.04738  Biso   1.000  H
  H84      1.0000 0.21898  0.99751  0.08980  Biso   1.000  H
  C85      1.0000 0.33746  0.29470  0.49270  Biso   1.000  C
  C86      1.0000 0.38129  0.25991  0.44049  Biso   1.000  C
  Br13     1.0000 0.24899  0.34487  0.43636  Biso   1.000  Br
  C87      1.0000 0.35428  0.29609  0.57642  Biso   1.000  C
  C88      1.0000 0.45199  0.22508  0.47490  Biso   1.000  C
  H85      1.0000 0.36409  0.25928  0.38209  Biso   1.000  H
  C89      1.0000 0.42524  0.26101  0.61308  Biso   1.000  C
  C90      1.0000 0.30387  0.33071  0.63458  Biso   1.000  C
  C91      1.0000 0.50274  0.19008  0.41831  Biso   1.000  C
  C92      1.0000 0.46997  0.22791  0.56031  Biso   1.000  C
  H86      1.0000 0.44051  0.26071  0.67180  Biso   1.000  H
  N13      1.0000 0.32997  0.33480  0.71160  Biso   1.000  N
  H87      1.0000 0.25068  0.35010  0.61352  Biso   1.000  H
  N14      1.0000 0.48219  0.18549  0.34142  Biso   1.000  N
  H88      1.0000 0.55403  0.16980  0.44168  Biso   1.000  H
  Br14     1.0000 0.56443  0.18114  0.61484  Biso   1.000  Br
  C93      1.0000 0.27364  0.36688  0.76612  Biso   1.000  C
  C94      1.0000 0.53816  0.14931  0.29291  Biso   1.000  C
  H89      1.0000 0.21007  0.36878  0.73992  Biso   1.000  H
  C95      1.0000 0.27464  0.33640  0.84909  Biso   1.000  C
  C96      1.0000 0.31112  0.42621  0.77827  Biso   1.000  C
  C97      1.0000 0.49005  0.09251  0.27818  Biso   1.000  C
  H90      1.0000 0.59776  0.14290  0.32562  Biso   1.000  H
  C98      1.0000 0.55448  0.17769  0.21163  Biso   1.000  C
  N15      1.0000 0.23852  0.27947  0.83781  Biso   1.000  N
  H91      1.0000 0.33879  0.33370  0.87347  Biso   1.000  H
  C99      1.0000 0.21905  0.36899  0.91157  Biso   1.000  C
  C100     1.0000 0.25382  0.45977  0.83662  Biso   1.000  C
  H92      1.0000 0.31071  0.44548  0.72338  Biso   1.000  H
  H93      1.0000 0.37475  0.42440  0.80290  Biso   1.000  H
  N16      1.0000 0.48203  0.06569  0.36003  Biso   1.000  N
  H94      1.0000 0.42836  0.09871  0.24942  Biso   1.000  H
  C101     1.0000 0.54490  0.05490  0.22523  Biso   1.000  C
  H95      1.0000 0.58759  0.21340  0.22329  Biso   1.000  H
  H96      1.0000 0.49546  0.18679  0.18099  Biso   1.000  H
  C102     1.0000 0.60965  0.13978  0.15617  Biso   1.000  C
  C103     1.0000 0.29452  0.23971  0.84288  Biso   1.000  C
  H97      1.0000 0.15413  0.36878  0.89083  Biso   1.000  H
  H98      1.0000 0.22481  0.34981  0.96659  Biso   1.000  H
  C104     1.0000 0.25080  0.42891  0.92222  Biso   1.000  C
  H99      1.0000 0.19144  0.46407  0.80998  Biso   1.000  H
  H100     1.0000 0.28010  0.49789  0.84577  Biso   1.000  H
  C105     1.0000 0.40163  0.05570  0.37927  Biso   1.000  C
  C106     1.0000 0.56395  0.08298  0.14119  Biso   1.000  C
  H101     1.0000 0.51159  0.01919  0.21357  Biso   1.000  H
  H102     1.0000 0.60326  0.04571  0.25681  Biso   1.000  H
  H103     1.0000 0.61578  0.15871  0.10177  Biso   1.000  H
  H104     1.0000 0.67125  0.13409  0.18381  Biso   1.000  H
  H105     1.0000 0.35689  0.24810  0.85529  Biso   1.000  H
  C107     1.0000 0.26653  0.18001  0.83029  Biso   1.000  C
  H106     1.0000 0.31209  0.42920  0.95186  Biso   1.000  H
  H107     1.0000 0.20955  0.44949  0.95732  Biso   1.000  H
  C108     1.0000 0.38616  0.02918  0.46092  Biso   1.000  C
  H108     1.0000 0.35138  0.06519  0.34129  Biso   1.000  H
  H109     1.0000 0.60346  0.05819  0.11017  Biso   1.000  H
  H110     1.0000 0.50620  0.08821  0.10641  Biso   1.000  H
  C109     1.0000 0.32684  0.13510  0.84069  Biso   1.000  C
  C110     1.0000 0.17664  0.16719  0.80691  Biso   1.000  C
  C111     1.0000 0.44807  0.03778  0.52980  Biso   1.000  C
  C112     1.0000 0.31123  0.99460  0.47227  Biso   1.000  C
  Br15     1.0000 0.45370  0.14733  0.86877  Biso   1.000  Br
  C113     1.0000 0.29906  0.08011  0.83211  Biso   1.000  C
  C114     1.0000 0.14934  0.11199  0.79607  Biso   1.000  C
  H111     1.0000 0.13351  0.19670  0.79820  Biso   1.000  H
  C115     1.0000 0.43632  0.01248  0.60518  Biso   1.000  C
  H112     1.0000 0.49913  0.06152  0.52459  Biso   1.000  H
  Br16     1.0000 0.22246  0.98035  0.38190  Biso   1.000  Br
  C116     1.0000 0.29988  0.96901  0.54841  Biso   1.000  C
  H113     1.0000 0.34210  0.05051  0.84050  Biso   1.000  H
  C117     1.0000 0.20941  0.06730  0.81143  Biso   1.000  C
  Br17     1.0000 0.02515  0.09753  0.75903  Biso   1.000  Br
  Br18     1.0000 0.52528  0.02559  0.69618  Biso   1.000  Br
  C118     1.0000 0.36286  0.97622  0.61640  Biso   1.000  C
  H114     1.0000 0.24806  0.94603  0.55411  Biso   1.000  H
  C119     1.0000 0.18263  0.00721  0.80660  Biso   1.000  C
  C120     1.0000 0.35237  0.94531  0.69543  Biso   1.000  C
  N17      1.0000 0.23310  0.97002  0.84558  Biso   1.000  N
  H115     1.0000 0.12851  0.99621  0.77476  Biso   1.000  H
  N18      1.0000 0.28782  0.91133  0.70401  Biso   1.000  N
  H116     1.0000 0.39575  0.95134  0.74149  Biso   1.000  H
  C121     1.0000 0.21175  0.91183  0.83392  Biso   1.000  C
  C122     1.0000 0.28601  0.88463  0.78661  Biso   1.000  C
  H117     1.0000 0.15196  0.90804  0.80052  Biso   1.000  H
  C123     1.0000 0.20813  0.88130  0.91896  Biso   1.000  C
  H118     1.0000 0.34585  0.89113  0.81888  Biso   1.000  H
  C124     1.0000 0.27201  0.82143  0.77552  Biso   1.000  C
  C125     1.0000 0.19484  0.81822  0.90831  Biso   1.000  C
  H119     1.0000 0.26535  0.88830  0.95387  Biso   1.000  H
  H120     1.0000 0.15771  0.89691  0.94879  Biso   1.000  H
  H121     1.0000 0.32253  0.80541  0.74600  Biso   1.000  H
  H122     1.0000 0.21491  0.81451  0.74042  Biso   1.000  H
  C126     1.0000 0.26770  0.79174  0.85962  Biso   1.000  C
  H123     1.0000 0.19561  0.80035  0.96421  Biso   1.000  H
  H124     1.0000 0.13475  0.81101  0.87848  Biso   1.000  H
  H125     1.0000 0.25425  0.75122  0.85022  Biso   1.000  H
  H126     1.0000 0.32710  0.79482  0.89227  Biso   1.000  H
  C127     1.0000 0.83111  0.67849  0.56877  Biso   1.000  C
  C128     1.0000 0.88425  0.70130  0.63558  Biso   1.000  C
  C129     1.0000 0.84015  0.69708  0.48862  Biso   1.000  C
  H127     1.0000 0.78834  0.64990  0.57843  Biso   1.000  H
  C130     1.0000 0.87543  0.67840  0.72137  Biso   1.000  C
  C131     1.0000 0.94523  0.74410  0.61841  Biso   1.000  C
  C132     1.0000 0.89997  0.73980  0.46970  Biso   1.000  C
  Br19     1.0000 0.76771  0.66015  0.40020  Biso   1.000  Br
  N19      1.0000 0.81521  0.64357  0.73641  Biso   1.000  N
  H128     1.0000 0.91680  0.69059  0.76612  Biso   1.000  H
  C133     1.0000 0.95247  0.76299  0.53769  Biso   1.000  C
  Br20     1.0000 0.01379  0.78129  0.70715  Biso   1.000  Br
  C134     1.0000 0.90966  0.76240  0.38459  Biso   1.000  C
  C135     1.0000 0.81091  0.62527  0.82289  Biso   1.000  C
  H129     1.0000 0.99401  0.79238  0.52798  Biso   1.000  H
  N20      1.0000 0.98043  0.78947  0.36893  Biso   1.000  N
  H130     1.0000 0.86275  0.75649  0.34148  Biso   1.000  H
  C136     1.0000 0.80489  0.56131  0.82596  Biso   1.000  C
  C137     1.0000 0.72863  0.65310  0.85717  Biso   1.000  C
  H131     1.0000 0.86702  0.63788  0.85667  Biso   1.000  H
  C138     1.0000 0.98343  0.81489  0.28689  Biso   1.000  C
  H132     1.0000 0.75534  0.54849  0.78517  Biso   1.000  H
  H133     1.0000 0.86229  0.54508  0.80892  Biso   1.000  H
  C139     1.0000 0.78793  0.53900  0.91232  Biso   1.000  C
  N21      1.0000 0.74652  0.71378  0.86407  Biso   1.000  N
  H134     1.0000 0.67469  0.64699  0.81650  Biso   1.000  H
  C140     1.0000 0.70738  0.63059  0.94240  Biso   1.000  C
  H135     1.0000 0.92109  0.81569  0.25769  Biso   1.000  H
  C141     1.0000 0.01936  0.87557  0.29980  Biso   1.000  C
  C142     1.0000 0.04718  0.78158  0.23438  Biso   1.000  C
  H136     1.0000 0.84021  0.54807  0.95262  Biso   1.000  H
  H137     1.0000 0.78092  0.49747  0.91019  Biso   1.000  H
  C143     1.0000 0.70194  0.56590  0.94121  Biso   1.000  C
  C144     1.0000 0.70011  0.74730  0.81412  Biso   1.000  C
  H138     1.0000 0.64893  0.64640  0.95750  Biso   1.000  H
  H139     1.0000 0.75523  0.64277  0.98539  Biso   1.000  H
  N22      1.0000 0.95705  0.90698  0.34699  Biso   1.000  N
  H140     1.0000 0.07954  0.87397  0.33302  Biso   1.000  H
  C145     1.0000 0.03168  0.90407  0.21608  Biso   1.000  C
  C146     1.0000 0.05791  0.81017  0.15109  Biso   1.000  C
  H141     1.0000 0.10728  0.77808  0.26590  Biso   1.000  H
  H142     1.0000 0.02265  0.74308  0.22429  Biso   1.000  H
  H143     1.0000 0.69211  0.55220  0.99818  Biso   1.000  H
  H144     1.0000 0.64932  0.55410  0.90317  Biso   1.000  H
  C147     1.0000 0.72372  0.80777  0.81750  Biso   1.000  C
  H145     1.0000 0.65236  0.73347  0.77621  Biso   1.000  H
  C148     1.0000 0.98202  0.91727  0.42182  Biso   1.000  C
  H146     1.0000 0.97147  0.90998  0.18581  Biso   1.000  H
  H147     1.0000 0.05969  0.94168  0.22667  Biso   1.000  H
  C149     1.0000 0.09058  0.86988  0.16150  Biso   1.000  C
  H148     1.0000 0.99876  0.81000  0.11738  Biso   1.000  H
  H149     1.0000 0.10160  0.78858  0.12001  Biso   1.000  H
  C150     1.0000 0.81021  0.82358  0.84771  Biso   1.000  C
  C151     1.0000 0.66323  0.85090  0.78861  Biso   1.000  C
  C152     1.0000 0.92653  0.95008  0.47828  Biso   1.000  C
  H150     1.0000 0.03948  0.90357  0.44381  Biso   1.000  H
  H151     1.0000 0.09036  0.88788  0.10572  Biso   1.000  H
  H152     1.0000 0.15381  0.86988  0.18700  Biso   1.000  H
  C153     1.0000 0.83234  0.88008  0.85348  Biso   1.000  C
  H153     1.0000 0.85423  0.79567  0.86432  Biso   1.000  H
  Br21     1.0000 0.54390  0.83290  0.74443  Biso   1.000  Br
  C154     1.0000 0.68783  0.90690  0.79482  Biso   1.000  C
  C155     1.0000 0.95235  0.95876  0.56301  Biso   1.000  C
  C156     1.0000 0.84382  0.97356  0.44569  Biso   1.000  C
  Br22     1.0000 0.95420  0.89653  0.89810  Biso   1.000  Br
  C157     1.0000 0.77275  0.92317  0.82872  Biso   1.000  C
  H154     1.0000 0.64545  0.93490  0.77527  Biso   1.000  H
  C158     1.0000 0.90254  0.99157  0.61321  Biso   1.000  C
  Br23     1.0000 0.06490  0.92958  0.61245  Biso   1.000  Br
  H155     1.0000 0.82184  0.96728  0.38911  Biso   1.000  H
  C159     1.0000 0.79572  0.00578  0.49771  Biso   1.000  C
  C160     1.0000 0.79542  0.98339  0.83768  Biso   1.000  C
  C161     1.0000 0.82131  0.01636  0.58131  Biso   1.000  C
  H156     1.0000 0.92354  0.99739  0.67017  Biso   1.000  H
  Br24     1.0000 0.68295  0.03685  0.44739  Biso   1.000  Br
  H157     1.0000 0.85720  0.99448  0.84552  Biso   1.000  H
  N23      1.0000 0.73445  0.02007  0.83530  Biso   1.000  N
  C162     1.0000 0.77006  0.05174  0.63451  Biso   1.000  C
  C163     1.0000 0.76434  0.07906  0.84257  Biso   1.000  C
  N24      1.0000 0.81074  0.07565  0.70100  Biso   1.000  N
  H158     1.0000 0.70705  0.05764  0.62098  Biso   1.000  H
  C164     1.0000 0.75215  0.10605  0.75609  Biso   1.000  C
  H159     1.0000 0.83004  0.08007  0.86288  Biso   1.000  H
  C165     1.0000 0.71094  0.11047  0.90367  Biso   1.000  C
  H160     1.0000 0.68740  0.10297  0.73340  Biso   1.000  H
  C166     1.0000 0.78005  0.16786  0.76211  Biso   1.000  C
  H161     1.0000 0.72124  0.09276  0.95970  Biso   1.000  H
  H162     1.0000 0.64539  0.10727  0.88587  Biso   1.000  H
  C167     1.0000 0.73685  0.17267  0.91019  Biso   1.000  C
  C168     1.0000 0.72680  0.20046  0.82427  Biso   1.000  C
  H163     1.0000 0.76995  0.18544  0.70608  Biso   1.000  H
  H164     1.0000 0.84565  0.17035  0.77972  Biso   1.000  H
  H165     1.0000 0.69733  0.19206  0.94817  Biso   1.000  H
  H166     1.0000 0.80029  0.17617  0.93419  Biso   1.000  H
  H167     1.0000 0.74950  0.23975  0.82878  Biso   1.000  H
  H168     1.0000 0.66190  0.20164  0.80372  Biso   1.000  H
