data_image0
_cell_length_a       13.473
_cell_length_b       23.261
_cell_length_c       11.079
_cell_angle_alpha    90
_cell_angle_beta     113.78
_cell_angle_gamma    90

_symmetry_space_group_name_H-M    "P 1"
_symmetry_int_tables_number       1

loop_
  _symmetry_equiv_pos_as_xyz
  'x, y, z'

loop_
  _atom_site_label
  _atom_site_occupancy
  _atom_site_fract_x
  _atom_site_fract_y
  _atom_site_fract_z
  _atom_site_thermal_displace_type
  _atom_site_B_iso_or_equiv
  _atom_site_type_symbol
  C1       1.0000 0.65419  0.51000  0.29433  Biso   1.000  C
  C2       1.0000 0.55679  0.49839  0.19086  Biso   1.000  C
  C3       1.0000 0.74737  0.47960  0.30695  Biso   1.000  C
  H1       1.0000 0.65806  0.53871  0.35706  Biso   1.000  H
  O1       1.0000 0.46682  0.53162  0.17626  Biso   1.000  O
  C4       1.0000 0.54682  0.45802  0.09429  Biso   1.000  C
  C5       1.0000 0.73964  0.43919  0.20911  Biso   1.000  C
  C6       1.0000 0.85238  0.49078  0.42107  Biso   1.000  C
  C7       1.0000 0.40338  0.51352  0.23968  Biso   1.000  C
  C8       1.0000 0.63930  0.42909  0.10416  Biso   1.000  C
  H2       1.0000 0.47882  0.45058  0.02377  Biso   1.000  H
  H3       1.0000 0.80220  0.41881  0.21424  Biso   1.000  H
  H4       1.0000 0.84190  0.52031  0.47789  Biso   1.000  H
  H5       1.0000 0.90622  0.50411  0.38872  Biso   1.000  H
  H6       1.0000 0.87799  0.45518  0.47167  Biso   1.000  H
  N1       1.0000 0.41648  0.46279  0.29038  Biso   1.000  N
  C9       1.0000 0.32829  0.55290  0.24757  Biso   1.000  C
  O2       1.0000 0.63849  0.39091  0.00612  Biso   1.000  O
  C10      1.0000 0.35597  0.44568  0.35301  Biso   1.000  C
  C11      1.0000 0.26378  0.53798  0.31159  Biso   1.000  C
  F1       1.0000 0.32313  0.60608  0.19688  Biso   1.000  F
  C12      1.0000 0.59269  0.33782  0.99941  Biso   1.000  C
  O3       1.0000 0.36760  0.39242  0.40687  Biso   1.000  O
  C13      1.0000 0.27780  0.48231  0.36505  Biso   1.000  C
  C14      1.0000 0.17769  0.57848  0.32323  Biso   1.000  C
  N2       1.0000 0.56973  0.32161  0.10051  Biso   1.000  N
  C15      1.0000 0.57358  0.30231  0.89229  Biso   1.000  C
  C16      1.0000 0.45409  0.35901  0.40381  Biso   1.000  C
  F2       1.0000 0.21973  0.46210  0.43123  Biso   1.000  F
  C17      1.0000 0.07902  0.55019  0.31800  Biso   1.000  C
  C18      1.0000 0.22861  0.61889  0.44100  Biso   1.000  C
  F3       1.0000 0.13729  0.61700  0.19579  Biso   1.000  F
  C19      1.0000 0.07300  0.56730  0.23002  Biso   1.000  C
  C20      1.0000 0.21331  0.63471  0.37402  Biso   1.000  C
  F4       1.0000 0.17613  0.55548  0.46447  Biso   1.000  F
  C21      1.0000 0.52537  0.26830  0.09587  Biso   1.000  C
  C22      1.0000 0.53097  0.24891  0.88154  Biso   1.000  C
  F5       1.0000 0.60292  0.32518  0.79632  Biso   1.000  F
  C23      1.0000 0.43388  0.32071  0.29965  Biso   1.000  C
  C24      1.0000 0.55430  0.36619  0.49919  Biso   1.000  C
  F6       1.0000 0.08400  0.54280  0.43419  Biso   1.000  F
  F7       1.0000 0.04022  0.51279  0.23189  Biso   1.000  F
  F8       1.0000 0.99748  0.59950  0.25073  Biso   1.000  F
  F9       1.0000 0.27168  0.58979  0.54111  Biso   1.000  F
  F10      1.0000 0.16091  0.65801  0.44879  Biso   1.000  F
  F11      1.0000 0.31350  0.64769  0.43488  Biso   1.000  F
  F12      1.0000 0.08362  0.57732  0.10958  Biso   1.000  F
  F13      1.0000 0.19158  0.66618  0.26148  Biso   1.000  F
  O4       1.0000 0.50249  0.25072  0.19589  Biso   1.000  O
  C25      1.0000 0.50630  0.23400  0.98935  Biso   1.000  C
  C26      1.0000 0.51321  0.21078  0.76328  Biso   1.000  C
  C27      1.0000 0.51865  0.29019  0.29857  Biso   1.000  C
  H7       1.0000 0.36319  0.31628  0.23219  Biso   1.000  H
  H8       1.0000 0.56509  0.39371  0.56666  Biso   1.000  H
  C28      1.0000 0.64302  0.33412  0.50107  Biso   1.000  C
  F14      1.0000 0.46186  0.18022  0.99231  Biso   1.000  F
  C29      1.0000 0.40421  0.21968  0.65527  Biso   1.000  C
  C30      1.0000 0.59346  0.19320  0.72303  Biso   1.000  C
  F15      1.0000 0.47401  0.14772  0.79592  Biso   1.000  F
  C31      1.0000 0.56888  0.15429  0.79553  Biso   1.000  C
  F16      1.0000 0.59928  0.23808  0.70163  Biso   1.000  F
  C32      1.0000 0.62174  0.29642  0.39592  Biso   1.000  C
  C33      1.0000 0.75843  0.34160  0.61164  Biso   1.000  C
  F17      1.0000 0.32935  0.20932  0.70370  Biso   1.000  F
  F18      1.0000 0.38320  0.18529  0.55318  Biso   1.000  F
  F19      1.0000 0.39190  0.27441  0.61365  Biso   1.000  F
  F20      1.0000 0.57728  0.14118  0.66977  Biso   1.000  F
  F21      1.0000 0.68772  0.20240  0.82196  Biso   1.000  F
  F22      1.0000 0.57953  0.23279  0.62706  Biso   1.000  F
  F23      1.0000 0.61460  0.13349  0.71761  Biso   1.000  F
  F24      1.0000 0.65509  0.15352  0.91764  Biso   1.000  F
  F25      1.0000 0.49770  0.12072  0.80648  Biso   1.000  F
  H9       1.0000 0.67948  0.27449  0.39099  Biso   1.000  H
  H10      1.0000 0.75600  0.36980  0.67614  Biso   1.000  H
  H11      1.0000 0.80790  0.35510  0.57277  Biso   1.000  H
  H12      1.0000 0.78397  0.30472  0.65553  Biso   1.000  H
  O5       1.0000 0.63853  0.60909  0.50610  Biso   1.000  O
  C34      1.0000 0.63930  0.57091  0.60424  Biso   1.000  C
  C35      1.0000 0.59266  0.66218  0.49939  Biso   1.000  C
  C36      1.0000 0.54678  0.54198  0.59428  Biso   1.000  C
  C37      1.0000 0.73961  0.56081  0.70909  Biso   1.000  C
  N3       1.0000 0.56970  0.67839  0.60049  Biso   1.000  N
  C38      1.0000 0.57362  0.69769  0.39227  Biso   1.000  C
  C39      1.0000 0.55679  0.50161  0.69094  Biso   1.000  C
  H13      1.0000 0.47879  0.54942  0.52375  Biso   1.000  H
  C40      1.0000 0.74744  0.52040  0.80703  Biso   1.000  C
  H14      1.0000 0.80217  0.58119  0.71422  Biso   1.000  H
  C41      1.0000 0.52541  0.73170  0.59585  Biso   1.000  C
  C42      1.0000 0.53102  0.75109  0.38152  Biso   1.000  C
  F26      1.0000 0.60288  0.67482  0.29630  Biso   1.000  F
  O6       1.0000 0.46682  0.46838  0.67634  Biso   1.000  O
  C43      1.0000 0.65423  0.49000  0.79431  Biso   1.000  C
  C44      1.0000 0.85242  0.50922  0.92105  Biso   1.000  C
  O7       1.0000 0.50246  0.74928  0.69587  Biso   1.000  O
  C45      1.0000 0.50635  0.76600  0.48933  Biso   1.000  C
  C46      1.0000 0.51322  0.78922  0.26316  Biso   1.000  C
  C47      1.0000 0.40342  0.48648  0.73966  Biso   1.000  C
  H15      1.0000 0.65814  0.46129  0.85714  Biso   1.000  H
  H16      1.0000 0.84187  0.47969  0.97787  Biso   1.000  H
  H17      1.0000 0.90619  0.49589  0.88870  Biso   1.000  H
  H18      1.0000 0.87796  0.54482  0.97165  Biso   1.000  H
  C48      1.0000 0.51873  0.70981  0.79865  Biso   1.000  C
  F27      1.0000 0.46190  0.81978  0.49229  Biso   1.000  F
  C49      1.0000 0.40415  0.78032  0.15515  Biso   1.000  C
  C50      1.0000 0.59350  0.80680  0.22301  Biso   1.000  C
  F28      1.0000 0.47398  0.85228  0.29590  Biso   1.000  F
  C51      1.0000 0.56893  0.84571  0.29551  Biso   1.000  C
  F29      1.0000 0.59932  0.76192  0.20161  Biso   1.000  F
  N4       1.0000 0.41652  0.53721  0.79036  Biso   1.000  N
  C52      1.0000 0.32825  0.44710  0.74755  Biso   1.000  C
  C53      1.0000 0.43388  0.67929  0.79973  Biso   1.000  C
  C54      1.0000 0.62171  0.70358  0.89590  Biso   1.000  C
  F30      1.0000 0.32939  0.79068  0.20368  Biso   1.000  F
  F31      1.0000 0.38322  0.81471  0.05307  Biso   1.000  F
  F32      1.0000 0.39194  0.72559  0.11363  Biso   1.000  F
  F33      1.0000 0.57729  0.85882  0.16965  Biso   1.000  F
  F34      1.0000 0.68769  0.79760  0.32194  Biso   1.000  F
  F35      1.0000 0.57950  0.76721  0.12704  Biso   1.000  F
  F36      1.0000 0.61457  0.86651  0.21759  Biso   1.000  F
  F37      1.0000 0.65514  0.84648  0.41762  Biso   1.000  F
  F38      1.0000 0.49771  0.87928  0.30636  Biso   1.000  F
  C55      1.0000 0.35602  0.55432  0.85299  Biso   1.000  C
  C56      1.0000 0.26375  0.46202  0.81157  Biso   1.000  C
  F39      1.0000 0.32310  0.39392  0.69686  Biso   1.000  F
  C57      1.0000 0.45413  0.64099  0.90379  Biso   1.000  C
  H19      1.0000 0.36316  0.68372  0.73217  Biso   1.000  H
  C58      1.0000 0.64299  0.66588  0.00105  Biso   1.000  C
  H20      1.0000 0.67953  0.72551  0.89097  Biso   1.000  H
  O8       1.0000 0.36760  0.60758  0.90695  Biso   1.000  O
  C59      1.0000 0.27784  0.51769  0.86503  Biso   1.000  C
  C60      1.0000 0.17773  0.42152  0.82321  Biso   1.000  C
  C61      1.0000 0.55427  0.63381  0.99917  Biso   1.000  C
  C62      1.0000 0.75837  0.65840  0.11152  Biso   1.000  C
  F40      1.0000 0.21970  0.53790  0.93121  Biso   1.000  F
  C63      1.0000 0.07899  0.44981  0.81798  Biso   1.000  C
  C64      1.0000 0.22858  0.38111  0.94098  Biso   1.000  C
  F41      1.0000 0.13726  0.38300  0.69577  Biso   1.000  F
  C65      1.0000 0.07297  0.43270  0.73000  Biso   1.000  C
  C66      1.0000 0.21328  0.36529  0.87400  Biso   1.000  C
  F42      1.0000 0.17610  0.44452  0.96445  Biso   1.000  F
  H21      1.0000 0.56513  0.60629  0.06664  Biso   1.000  H
  H22      1.0000 0.75601  0.63020  0.17602  Biso   1.000  H
  H23      1.0000 0.80794  0.64490  0.07275  Biso   1.000  H
  H24      1.0000 0.78402  0.69528  0.15551  Biso   1.000  H
  F43      1.0000 0.08396  0.45720  0.93417  Biso   1.000  F
  F44      1.0000 0.04019  0.48721  0.73187  Biso   1.000  F
  F45      1.0000 0.99753  0.40050  0.75071  Biso   1.000  F
  F46      1.0000 0.16088  0.34199  0.94877  Biso   1.000  F
  F47      1.0000 0.31347  0.35231  0.93486  Biso   1.000  F
  F48      1.0000 0.27172  0.41021  0.04109  Biso   1.000  F
  F49      1.0000 0.08358  0.42268  0.60956  Biso   1.000  F
  F50      1.0000 0.19162  0.33382  0.76146  Biso   1.000  F
  C67      1.0000 0.06889  0.34569  0.29551  Biso   1.000  C
  C68      1.0000 0.01318  0.28920  0.26316  Biso   1.000  C
  F51      1.0000 0.97402  0.35231  0.29590  Biso   1.000  F
  C69      1.0000 0.09354  0.30678  0.22301  Biso   1.000  C
  F52      1.0000 0.07726  0.35880  0.16965  Biso   1.000  F
  F53      1.0000 0.11460  0.36649  0.21759  Biso   1.000  F
  F54      1.0000 0.99767  0.37930  0.30636  Biso   1.000  F
  F55      1.0000 0.15510  0.34650  0.41762  Biso   1.000  F
  C70      1.0000 0.03098  0.25111  0.38152  Biso   1.000  C
  C71      1.0000 0.90419  0.28030  0.15515  Biso   1.000  C
  F56      1.0000 0.09928  0.26190  0.20161  Biso   1.000  F
  F57      1.0000 0.18773  0.29758  0.32194  Biso   1.000  F
  F58      1.0000 0.07953  0.26719  0.12704  Biso   1.000  F
  C72      1.0000 0.00631  0.26598  0.48933  Biso   1.000  C
  C73      1.0000 0.07358  0.19771  0.39227  Biso   1.000  C
  F59      1.0000 0.82943  0.29070  0.20368  Biso   1.000  F
  F60      1.0000 0.88318  0.31469  0.05307  Biso   1.000  F
  F61      1.0000 0.89190  0.22561  0.11363  Biso   1.000  F
  C74      1.0000 0.02538  0.23172  0.59585  Biso   1.000  C
  F62      1.0000 0.96187  0.31981  0.49229  Biso   1.000  F
  C75      1.0000 0.09270  0.16220  0.49939  Biso   1.000  C
  F63      1.0000 0.10292  0.17480  0.29630  Biso   1.000  F
  O9       1.0000 0.00250  0.24930  0.69587  Biso   1.000  O
  N5       1.0000 0.06966  0.17841  0.60049  Biso   1.000  N
  O10      1.0000 0.13849  0.10911  0.50610  Biso   1.000  O
  C76      1.0000 0.01869  0.20979  0.79865  Biso   1.000  C
  C77      1.0000 0.13934  0.07089  0.60424  Biso   1.000  C
  C78      1.0000 0.93392  0.17931  0.79973  Biso   1.000  C
  C79      1.0000 0.12167  0.20360  0.89590  Biso   1.000  C
  C80      1.0000 0.04682  0.04200  0.59428  Biso   1.000  C
  C81      1.0000 0.23957  0.06079  0.70909  Biso   1.000  C
  C82      1.0000 0.95410  0.14101  0.90379  Biso   1.000  C
  H25      1.0000 0.86320  0.18370  0.73217  Biso   1.000  H
  C83      1.0000 0.14303  0.16590  0.00105  Biso   1.000  C
  H26      1.0000 0.17949  0.22548  0.89097  Biso   1.000  H
  C84      1.0000 0.05683  0.00159  0.69094  Biso   1.000  C
  H27      1.0000 0.97876  0.04940  0.52375  Biso   1.000  H
  C85      1.0000 0.24740  0.02042  0.80703  Biso   1.000  C
  H28      1.0000 0.30221  0.08121  0.71422  Biso   1.000  H
  O11      1.0000 0.86763  0.10761  0.90695  Biso   1.000  O
  C86      1.0000 0.05430  0.13379  0.99917  Biso   1.000  C
  C87      1.0000 0.25841  0.15842  0.11152  Biso   1.000  C
  O12      1.0000 0.96678  0.96840  0.67634  Biso   1.000  O
  C88      1.0000 0.15419  0.98998  0.79431  Biso   1.000  C
  C89      1.0000 0.35238  0.00920  0.92105  Biso   1.000  C
  C90      1.0000 0.85598  0.05430  0.85299  Biso   1.000  C
  H29      1.0000 0.06510  0.10632  0.06664  Biso   1.000  H
  H30      1.0000 0.25597  0.13022  0.17602  Biso   1.000  H
  H31      1.0000 0.30790  0.14492  0.07275  Biso   1.000  H
  H32      1.0000 0.28405  0.19531  0.15551  Biso   1.000  H
  C91      1.0000 0.90339  0.98650  0.73966  Biso   1.000  C
  H33      1.0000 0.15810  0.96131  0.85714  Biso   1.000  H
  H34      1.0000 0.34190  0.97971  0.97787  Biso   1.000  H
  H35      1.0000 0.40623  0.99592  0.88870  Biso   1.000  H
  H36      1.0000 0.37799  0.04480  0.97165  Biso   1.000  H
  N6       1.0000 0.91649  0.03719  0.79036  Biso   1.000  N
  C92      1.0000 0.77781  0.01771  0.86503  Biso   1.000  C
  C93      1.0000 0.82829  0.94708  0.74755  Biso   1.000  C
  F64      1.0000 0.71974  0.03792  0.93121  Biso   1.000  F
  C94      1.0000 0.76379  0.96200  0.81157  Biso   1.000  C
  F65      1.0000 0.82306  0.89390  0.69686  Biso   1.000  F
  C95      1.0000 0.67769  0.92150  0.82321  Biso   1.000  C
  C96      1.0000 0.57902  0.94979  0.81798  Biso   1.000  C
  C97      1.0000 0.72862  0.88109  0.94098  Biso   1.000  C
  F66      1.0000 0.63729  0.88298  0.69577  Biso   1.000  F
  C98      1.0000 0.57301  0.93272  0.73000  Biso   1.000  C
  C99      1.0000 0.71331  0.86531  0.87400  Biso   1.000  C
  F67      1.0000 0.67606  0.94450  0.96445  Biso   1.000  F
  F68      1.0000 0.58400  0.95718  0.93417  Biso   1.000  F
  F69      1.0000 0.49749  0.90052  0.75071  Biso   1.000  F
  F70      1.0000 0.54016  0.98719  0.73187  Biso   1.000  F
  F71      1.0000 0.66091  0.84201  0.94877  Biso   1.000  F
  F72      1.0000 0.81350  0.85228  0.93486  Biso   1.000  F
  F73      1.0000 0.77176  0.91019  0.04109  Biso   1.000  F
  F74      1.0000 0.58362  0.92270  0.60956  Biso   1.000  F
  F75      1.0000 0.69158  0.83380  0.76146  Biso   1.000  F
  O13      1.0000 0.00253  0.75070  0.19589  Biso   1.000  O
  C100     1.0000 0.01869  0.79021  0.29857  Biso   1.000  C
  C101     1.0000 0.02541  0.76828  0.09587  Biso   1.000  C
  C102     1.0000 0.93392  0.82069  0.29965  Biso   1.000  C
  C103     1.0000 0.12170  0.79640  0.39592  Biso   1.000  C
  C104     1.0000 0.00627  0.73402  0.98935  Biso   1.000  C
  N7       1.0000 0.06970  0.82159  0.10051  Biso   1.000  N
  C105     1.0000 0.95413  0.85899  0.40381  Biso   1.000  C
  H37      1.0000 0.86323  0.81630  0.23219  Biso   1.000  H
  C106     1.0000 0.14298  0.83410  0.50107  Biso   1.000  C
  H38      1.0000 0.17952  0.77452  0.39099  Biso   1.000  H
  F76      1.0000 0.96190  0.68019  0.99231  Biso   1.000  F
  C107     1.0000 0.03101  0.74889  0.88154  Biso   1.000  C
  C108     1.0000 0.09266  0.83780  0.99941  Biso   1.000  C
  O14      1.0000 0.86756  0.89239  0.40687  Biso   1.000  O
  C109     1.0000 0.05426  0.86621  0.49919  Biso   1.000  C
  C110     1.0000 0.25840  0.84158  0.61164  Biso   1.000  C
  C111     1.0000 0.07354  0.80229  0.89229  Biso   1.000  C
  C112     1.0000 0.01317  0.71080  0.76328  Biso   1.000  C
  O15      1.0000 0.13852  0.89089  0.00612  Biso   1.000  O
  C113     1.0000 0.85601  0.94570  0.35301  Biso   1.000  C
  H39      1.0000 0.06505  0.89368  0.56666  Biso   1.000  H
  H40      1.0000 0.25603  0.86978  0.67614  Biso   1.000  H
  H41      1.0000 0.30786  0.85508  0.57277  Biso   1.000  H
  H42      1.0000 0.28401  0.80469  0.65553  Biso   1.000  H
  F77      1.0000 0.10288  0.82520  0.79632  Biso   1.000  F
  C114     1.0000 0.90418  0.71970  0.65527  Biso   1.000  C
  F78      1.0000 0.97397  0.64769  0.79592  Biso   1.000  F
  C115     1.0000 0.09350  0.69322  0.72303  Biso   1.000  C
  C116     1.0000 0.06892  0.65431  0.79553  Biso   1.000  C
  F79      1.0000 0.09932  0.73810  0.70163  Biso   1.000  F
  C117     1.0000 0.13926  0.92911  0.10416  Biso   1.000  C
  N8       1.0000 0.91652  0.96281  0.29038  Biso   1.000  N
  C118     1.0000 0.77784  0.98229  0.36505  Biso   1.000  C
  F80      1.0000 0.82939  0.70930  0.70370  Biso   1.000  F
  F81      1.0000 0.88317  0.68531  0.55318  Biso   1.000  F
  F82      1.0000 0.89186  0.77439  0.61365  Biso   1.000  F
  F83      1.0000 0.07732  0.64120  0.66977  Biso   1.000  F
  F84      1.0000 0.18768  0.70242  0.82196  Biso   1.000  F
  F85      1.0000 0.07949  0.73281  0.62706  Biso   1.000  F
  F86      1.0000 0.11456  0.63351  0.71761  Biso   1.000  F
  F87      1.0000 0.99773  0.62070  0.80648  Biso   1.000  F
  F88      1.0000 0.15506  0.65350  0.91764  Biso   1.000  F
  C119     1.0000 0.04678  0.95800  0.09429  Biso   1.000  C
  C120     1.0000 0.23960  0.93921  0.20911  Biso   1.000  C
  C121     1.0000 0.90342  0.01350  0.23968  Biso   1.000  C
  F89      1.0000 0.71970  0.96208  0.43123  Biso   1.000  F
  C122     1.0000 0.76382  0.03800  0.31159  Biso   1.000  C
  C123     1.0000 0.05675  0.99841  0.19086  Biso   1.000  C
  H43      1.0000 0.97879  0.95060  0.02377  Biso   1.000  H
  C124     1.0000 0.24740  0.97958  0.30695  Biso   1.000  C
  H44      1.0000 0.30224  0.91879  0.21424  Biso   1.000  H
  O16      1.0000 0.96678  0.03160  0.17626  Biso   1.000  O
  C125     1.0000 0.82832  0.05292  0.24757  Biso   1.000  C
  C126     1.0000 0.67772  0.07850  0.32323  Biso   1.000  C
  C127     1.0000 0.15422  0.01002  0.29433  Biso   1.000  C
  C128     1.0000 0.35241  0.99080  0.42107  Biso   1.000  C
  F90      1.0000 0.82309  0.10610  0.19688  Biso   1.000  F
  C129     1.0000 0.57898  0.05021  0.31800  Biso   1.000  C
  C130     1.0000 0.72857  0.11891  0.44100  Biso   1.000  C
  F91      1.0000 0.63732  0.11702  0.19579  Biso   1.000  F
  C131     1.0000 0.57304  0.06728  0.23002  Biso   1.000  C
  C132     1.0000 0.71334  0.13469  0.37402  Biso   1.000  C
  F92      1.0000 0.67609  0.05550  0.46447  Biso   1.000  F
  H45      1.0000 0.15810  0.03869  0.35706  Biso   1.000  H
  H46      1.0000 0.37802  0.95520  0.47167  Biso   1.000  H
  H47      1.0000 0.34186  0.02029  0.47789  Biso   1.000  H
  H48      1.0000 0.40619  0.00408  0.38872  Biso   1.000  H
  F93      1.0000 0.58403  0.04282  0.43419  Biso   1.000  F
  F94      1.0000 0.49752  0.09948  0.25073  Biso   1.000  F
  F95      1.0000 0.54019  0.01281  0.23189  Biso   1.000  F
  F96      1.0000 0.77172  0.08981  0.54111  Biso   1.000  F
  F97      1.0000 0.66087  0.15799  0.44879  Biso   1.000  F
  F98      1.0000 0.81346  0.14772  0.43488  Biso   1.000  F
  F99      1.0000 0.58358  0.07730  0.10958  Biso   1.000  F
  F100     1.0000 0.69161  0.16620  0.26148  Biso   1.000  F
