data_image0
_cell_length_a       13.751
_cell_length_b       18.304
_cell_length_c       19.521
_cell_angle_alpha    78.89
_cell_angle_beta     78.46
_cell_angle_gamma    78.1

_symmetry_space_group_name_H-M    "P 1"
_symmetry_int_tables_number       1

loop_
  _symmetry_equiv_pos_as_xyz
  'x, y, z'

loop_
  _atom_site_label
  _atom_site_occupancy
  _atom_site_fract_x
  _atom_site_fract_y
  _atom_site_fract_z
  _atom_site_thermal_displace_type
  _atom_site_B_iso_or_equiv
  _atom_site_type_symbol
  C1       1.0000 0.58577  0.41894  0.52514  Biso   1.000  C
  C2       1.0000 0.49909  0.39248  0.56247  Biso   1.000  C
  C3       1.0000 0.63392  0.46097  0.55596  Biso   1.000  C
  O1       1.0000 0.62805  0.40657  0.45710  Biso   1.000  O
  C4       1.0000 0.46022  0.40445  0.63120  Biso   1.000  C
  H1       1.0000 0.46652  0.36608  0.54060  Biso   1.000  H
  C5       1.0000 0.59625  0.47164  0.62580  Biso   1.000  C
  C6       1.0000 0.72238  0.49734  0.51482  Biso   1.000  C
  C7       1.0000 0.58532  0.35783  0.42729  Biso   1.000  C
  C8       1.0000 0.36319  0.37748  0.66964  Biso   1.000  C
  C9       1.0000 0.51145  0.44350  0.66350  Biso   1.000  C
  H2       1.0000 0.62869  0.49827  0.64767  Biso   1.000  H
  H3       1.0000 0.70878  0.55036  0.51990  Biso   1.000  H
  H4       1.0000 0.72787  0.49469  0.46499  Biso   1.000  H
  C10      1.0000 0.82237  0.46089  0.53827  Biso   1.000  C
  C11      1.0000 0.65530  0.33818  0.36042  Biso   1.000  C
  H5       1.0000 0.57688  0.31219  0.46092  Biso   1.000  H
  H6       1.0000 0.51962  0.38286  0.41628  Biso   1.000  H
  C12      1.0000 0.37840  0.30439  0.72126  Biso   1.000  C
  H7       1.0000 0.32603  0.37057  0.63480  Biso   1.000  H
  H8       1.0000 0.32219  0.41666  0.69521  Biso   1.000  H
  O2       1.0000 0.47065  0.45193  0.73270  Biso   1.000  O
  C13      1.0000 0.86737  0.38870  0.52435  Biso   1.000  C
  C14      1.0000 0.87213  0.49780  0.57296  Biso   1.000  C
  C15      1.0000 0.60610  0.29037  0.32510  Biso   1.000  C
  C16      1.0000 0.75682  0.29571  0.37689  Biso   1.000  C
  H9       1.0000 0.66511  0.38510  0.32791  Biso   1.000  H
  C17      1.0000 0.40563  0.23485  0.69797  Biso   1.000  C
  C18      1.0000 0.36358  0.30540  0.79375  Biso   1.000  C
  C19      1.0000 0.51608  0.49548  0.76648  Biso   1.000  C
  H10      1.0000 0.83448  0.36321  0.50169  Biso   1.000  H
  C20      1.0000 0.95986  0.35372  0.54336  Biso   1.000  C
  O3       1.0000 0.82472  0.56851  0.58704  Biso   1.000  O
  C21      1.0000 0.96617  0.46347  0.59048  Biso   1.000  C
  H11      1.0000 0.54207  0.31828  0.31488  Biso   1.000  H
  H12      1.0000 0.64897  0.27901  0.28190  Biso   1.000  H
  H13      1.0000 0.59653  0.24426  0.35650  Biso   1.000  H
  H14      1.0000 0.78657  0.32637  0.39870  Biso   1.000  H
  H15      1.0000 0.74811  0.24960  0.40860  Biso   1.000  H
  H16      1.0000 0.80013  0.28428  0.33379  Biso   1.000  H
  O4       1.0000 0.42008  0.23680  0.62548  Biso   1.000  O
  C22      1.0000 0.41723  0.16814  0.74620  Biso   1.000  C
  H17      1.0000 0.34530  0.35147  0.81027  Biso   1.000  H
  C23      1.0000 0.37570  0.23866  0.84220  Biso   1.000  C
  C24      1.0000 0.45970  0.49606  0.84178  Biso   1.000  C
  H18      1.0000 0.58652  0.47341  0.76691  Biso   1.000  H
  H19      1.0000 0.51250  0.54678  0.74101  Biso   1.000  H
  O5       1.0000 0.00735  0.28270  0.53081  Biso   1.000  O
  C25      1.0000 0.01194  0.39193  0.57603  Biso   1.000  C
  C26      1.0000 0.86481  0.60048  0.63416  Biso   1.000  C
  H20      1.0000 0.99941  0.48940  0.61251  Biso   1.000  H
  C27      1.0000 0.43681  0.16655  0.60044  Biso   1.000  C
  H21      1.0000 0.43473  0.12209  0.72958  Biso   1.000  H
  C28      1.0000 0.40312  0.16886  0.81874  Biso   1.000  C
  O6       1.0000 0.36233  0.23724  0.91447  Biso   1.000  O
  C29      1.0000 0.51024  0.53986  0.87937  Biso   1.000  C
  C30      1.0000 0.34858  0.52679  0.84331  Biso   1.000  C
  H22      1.0000 0.46653  0.44369  0.86629  Biso   1.000  H
  C31      1.0000 0.95891  0.24367  0.49507  Biso   1.000  C
  C32      1.0000 0.11641  0.35812  0.59244  Biso   1.000  C
  C33      1.0000 0.79161  0.66936  0.65481  Biso   1.000  C
  H23      1.0000 0.87558  0.56371  0.67610  Biso   1.000  H
  H24      1.0000 0.92921  0.61458  0.61118  Biso   1.000  H
  C34      1.0000 0.45452  0.18124  0.52027  Biso   1.000  C
  H25      1.0000 0.49499  0.13357  0.61717  Biso   1.000  H
  H26      1.0000 0.37857  0.14191  0.61807  Biso   1.000  H
  C35      1.0000 0.41506  0.09520  0.87016  Biso   1.000  C
  C36      1.0000 0.32139  0.30659  0.94063  Biso   1.000  C
  H27      1.0000 0.58026  0.51800  0.87720  Biso   1.000  H
  H28      1.0000 0.50387  0.59168  0.85681  Biso   1.000  H
  H29      1.0000 0.47820  0.53756  0.92808  Biso   1.000  H
  H30      1.0000 0.32059  0.49707  0.81927  Biso   1.000  H
  H31      1.0000 0.31492  0.52436  0.89149  Biso   1.000  H
  H32      1.0000 0.33993  0.57839  0.82007  Biso   1.000  H
  H33      1.0000 0.88809  0.24689  0.51572  Biso   1.000  H
  H34      1.0000 0.96401  0.26562  0.44540  Biso   1.000  H
  C37      1.0000 0.01333  0.16040  0.50349  Biso   1.000  C
  C38      1.0000 0.12027  0.30332  0.66175  Biso   1.000  C
  H35      1.0000 0.15380  0.33188  0.55400  Biso   1.000  H
  H36      1.0000 0.15068  0.39911  0.59371  Biso   1.000  H
  C39      1.0000 0.83532  0.70308  0.70517  Biso   1.000  C
  C40      1.0000 0.68951  0.65039  0.68849  Biso   1.000  C
  H37      1.0000 0.78419  0.70679  0.61198  Biso   1.000  H
  C41      1.0000 0.36721  0.23360  0.49057  Biso   1.000  C
  C42      1.0000 0.47797  0.10601  0.49327  Biso   1.000  C
  H38      1.0000 0.51408  0.20549  0.50428  Biso   1.000  H
  H39      1.0000 0.40860  0.05469  0.84681  Biso   1.000  H
  H40      1.0000 0.36048  0.09857  0.91008  Biso   1.000  H
  C43      1.0000 0.51432  0.07443  0.89795  Biso   1.000  C
  H41      1.0000 0.36323  0.34429  0.91871  Biso   1.000  H
  H42      1.0000 0.25412  0.32527  0.92951  Biso   1.000  H
  C44      1.0000 0.31748  0.29248  0.02027  Biso   1.000  C
  C45      1.0000 0.96086  0.11917  0.46589  Biso   1.000  C
  H43      1.0000 0.00642  0.13872  0.55389  Biso   1.000  H
  C46      1.0000 0.12020  0.15577  0.47299  Biso   1.000  C
  C47      1.0000 0.10691  0.32874  0.72624  Biso   1.000  C
  C48      1.0000 0.14201  0.22565  0.66180  Biso   1.000  C
  H44      1.0000 0.89990  0.71539  0.68251  Biso   1.000  H
  H45      1.0000 0.79048  0.74808  0.71740  Biso   1.000  H
  H46      1.0000 0.84299  0.66698  0.74737  Biso   1.000  H
  H47      1.0000 0.66302  0.63000  0.65577  Biso   1.000  H
  H48      1.0000 0.69564  0.61377  0.73048  Biso   1.000  H
  H49      1.0000 0.64468  0.69540  0.70067  Biso   1.000  H
  H50      1.0000 0.35448  0.28037  0.50889  Biso   1.000  H
  H51      1.0000 0.38337  0.24332  0.43990  Biso   1.000  H
  H52      1.0000 0.30823  0.21040  0.50428  Biso   1.000  H
  H53      1.0000 0.53419  0.07448  0.51270  Biso   1.000  H
  H54      1.0000 0.42031  0.08131  0.50762  Biso   1.000  H
  H55      1.0000 0.49432  0.11450  0.44260  Biso   1.000  H
  C49      1.0000 0.60188  0.03761  0.86004  Biso   1.000  C
  C50      1.0000 0.51962  0.08950  0.96382  Biso   1.000  C
  C51      1.0000 0.27812  0.36816  0.04759  Biso   1.000  C
  C52      1.0000 0.25710  0.23290  0.05770  Biso   1.000  C
  H56      1.0000 0.38679  0.27509  0.02937  Biso   1.000  H
  H57      1.0000 0.99075  0.06657  0.47087  Biso   1.000  H
  H58      1.0000 0.89072  0.12429  0.48617  Biso   1.000  H
  H59      1.0000 0.96770  0.14050  0.41660  Biso   1.000  H
  H60      1.0000 0.15361  0.10410  0.48008  Biso   1.000  H
  H61      1.0000 0.12690  0.17467  0.42322  Biso   1.000  H
  H62      1.0000 0.15027  0.18551  0.49560  Biso   1.000  H
  O7       1.0000 0.08607  0.40622  0.72397  Biso   1.000  O
  C53      1.0000 0.11339  0.27759  0.78846  Biso   1.000  C
  C54      1.0000 0.14960  0.17432  0.72412  Biso   1.000  C
  H63      1.0000 0.15168  0.20749  0.61918  Biso   1.000  H
  O8       1.0000 0.59448  0.02418  0.79433  Biso   1.000  O
  C55      1.0000 0.68927  0.01487  0.88927  Biso   1.000  C
  H64      1.0000 0.46213  0.11409  0.98987  Biso   1.000  H
  C56      1.0000 0.60822  0.06910  0.99241  Biso   1.000  C
  H65      1.0000 0.31972  0.40439  0.02281  Biso   1.000  H
  H66      1.0000 0.21001  0.38637  0.03959  Biso   1.000  H
  H67      1.0000 0.27988  0.36117  0.09731  Biso   1.000  H
  H68      1.0000 0.28431  0.18669  0.03906  Biso   1.000  H
  H69      1.0000 0.25972  0.22469  0.10737  Biso   1.000  H
  H70      1.0000 0.18833  0.24918  0.05060  Biso   1.000  H
  C57      1.0000 0.07810  0.43407  0.78862  Biso   1.000  C
  C58      1.0000 0.13409  0.19978  0.78872  Biso   1.000  C
  H71      1.0000 0.10363  0.29581  0.83108  Biso   1.000  H
  O9       1.0000 0.17453  0.09711  0.72608  Biso   1.000  O
  C59      1.0000 0.68662  0.00040  0.74996  Biso   1.000  C
  C60      1.0000 0.69461  0.03003  0.95593  Biso   1.000  C
  H72      1.0000 0.74613  0.98894  0.86391  Biso   1.000  H
  O10      1.0000 0.61548  0.08412  0.05733  Biso   1.000  O
  C61      1.0000 0.04284  0.51902  0.77585  Biso   1.000  C
  H73      1.0000 0.03023  0.41031  0.82520  Biso   1.000  H
  H74      1.0000 0.14303  0.42251  0.80418  Biso   1.000  H
  C62      1.0000 0.14160  0.14538  0.85734  Biso   1.000  C
  C63      1.0000 0.18243  0.06779  0.66260  Biso   1.000  C
  H75      1.0000 0.73028  0.03768  0.74049  Biso   1.000  H
  C64      1.0000 0.67776  0.01529  0.67329  Biso   1.000  C
  C65      1.0000 0.64979  0.99236  0.67949  Biso   1.000  C
  H76      1.0000 0.72188  0.95234  0.77109  Biso   1.000  H
  C66      1.0000 0.79039  0.00229  0.98733  Biso   1.000  C
  C67      1.0000 0.53449  0.13558  0.08920  Biso   1.000  C
  H77      1.0000 0.97790  0.52859  0.75918  Biso   1.000  H
  C68      1.0000 0.02511  0.54900  0.84569  Biso   1.000  C
  C69      1.0000 0.11535  0.55899  0.71931  Biso   1.000  C
  C70      1.0000 0.04785  0.11043  0.88811  Biso   1.000  C
  H78      1.0000 0.19868  0.10510  0.84919  Biso   1.000  H
  H79      1.0000 0.15494  0.17197  0.89197  Biso   1.000  H
  C71      1.0000 0.21705  0.98343  0.67546  Biso   1.000  C
  H80      1.0000 0.11743  0.07928  0.64708  Biso   1.000  H
  H81      1.0000 0.23022  0.09110  0.62569  Biso   1.000  H
  H82      1.0000 0.63129  0.04499  0.65741  Biso   1.000  H
  C72      1.0000 0.78621  0.00798  0.62628  Biso   1.000  C
  H83      1.0000 0.63941  0.06600  0.66127  Biso   1.000  H
  C73      1.0000 0.74959  0.96345  0.63078  Biso   1.000  C
  C74      1.0000 0.62207  0.95896  0.66599  Biso   1.000  C
  C75      1.0000 0.57209  0.96196  0.67700  Biso   1.000  C
  C76      1.0000 0.87858  0.04064  0.94931  Biso   1.000  C
  H84      1.0000 0.81003  0.94822  0.98680  Biso   1.000  H
  H85      1.0000 0.77617  0.00999  0.03636  Biso   1.000  H
  C77      1.0000 0.56400  0.15388  0.15348  Biso   1.000  C
  H86      1.0000 0.52050  0.18136  0.05579  Biso   1.000  H
  H87      1.0000 0.47416  0.11299  0.10297  Biso   1.000  H
  H88      1.0000 0.97481  0.52527  0.87879  Biso   1.000  H
  H89      1.0000 0.00262  0.60269  0.83791  Biso   1.000  H
  H90      1.0000 0.08688  0.53790  0.86449  Biso   1.000  H
  H91      1.0000 0.09002  0.61238  0.71258  Biso   1.000  H
  H92      1.0000 0.18002  0.54966  0.73387  Biso   1.000  H
  H93      1.0000 0.12182  0.54027  0.67568  Biso   1.000  H
  C78      1.0000 0.96362  0.14902  0.92745  Biso   1.000  C
  C79      1.0000 0.04459  0.03783  0.87858  Biso   1.000  C
  C80      1.0000 0.21860  0.95156  0.60891  Biso   1.000  C
  H94      1.0000 0.17284  0.95963  0.71560  Biso   1.000  H
  C81      1.0000 0.32816  0.96648  0.68960  Biso   1.000  C
  H95      1.0000 0.82157  0.04422  0.63549  Biso   1.000  H
  H96      1.0000 0.77975  0.01750  0.57709  Biso   1.000  H
  H97      1.0000 0.82304  0.95786  0.63771  Biso   1.000  H
  H98      1.0000 0.73454  0.95694  0.58662  Biso   1.000  H
  H99      1.0000 0.79397  0.99956  0.62220  Biso   1.000  H
  H100     1.0000 0.78162  0.91588  0.65360  Biso   1.000  H
  H101     1.0000 0.56539  0.96427  0.62818  Biso   1.000  H
  H102     1.0000 0.58184  0.90964  0.69887  Biso   1.000  H
  H103     1.0000 0.55573  0.96685  0.69400  Biso   1.000  H
  H104     1.0000 0.61599  0.96237  0.61727  Biso   1.000  H
  H105     1.0000 0.65667  0.90903  0.68229  Biso   1.000  H
  H106     1.0000 0.51136  0.98856  0.70099  Biso   1.000  H
  C82      1.0000 0.88087  0.11389  0.95826  Biso   1.000  C
  C83      1.0000 0.96068  0.00370  0.90717  Biso   1.000  C
  C84      1.0000 0.65987  0.18600  0.13516  Biso   1.000  C
  C85      1.0000 0.47797  0.20979  0.18679  Biso   1.000  C
  H107     1.0000 0.57386  0.10739  0.18779  Biso   1.000  H
  O11      1.0000 0.96917  0.22188  0.93375  Biso   1.000  O
  H108     1.0000 0.09996  0.01132  0.85237  Biso   1.000  H
  H109     1.0000 0.15149  0.96067  0.59827  Biso   1.000  H
  H110     1.0000 0.26164  0.97586  0.57010  Biso   1.000  H
  H111     1.0000 0.24345  0.89817  0.61627  Biso   1.000  H
  H112     1.0000 0.33054  0.98467  0.73201  Biso   1.000  H
  H113     1.0000 0.35225  0.91286  0.69500  Biso   1.000  H
  H114     1.0000 0.36994  0.99136  0.65031  Biso   1.000  H
  H115     1.0000 0.82609  0.13997  0.98537  Biso   1.000  H
  O12      1.0000 0.95325  0.93255  0.89637  Biso   1.000  O
  H116     1.0000 0.71369  0.14980  0.11510  Biso   1.000  H
  H117     1.0000 0.65117  0.23160  0.10149  Biso   1.000  H
  H118     1.0000 0.67607  0.19710  0.17726  Biso   1.000  H
  H119     1.0000 0.49545  0.22181  0.22809  Biso   1.000  H
  H120     1.0000 0.46617  0.25521  0.15317  Biso   1.000  H
  H121     1.0000 0.41798  0.18778  0.20008  Biso   1.000  H
  C86      1.0000 0.88358  0.26427  0.97139  Biso   1.000  C
  C87      1.0000 0.03708  0.89285  0.85565  Biso   1.000  C
  C88      1.0000 0.90150  0.34518  0.96271  Biso   1.000  C
  H122     1.0000 0.82350  0.26360  0.95286  Biso   1.000  H
  H123     1.0000 0.87419  0.24247  0.02117  Biso   1.000  H
  C89      1.0000 0.00758  0.82207  0.84231  Biso   1.000  C
  H124     1.0000 0.05661  0.92433  0.81101  Biso   1.000  H
  H125     1.0000 0.09376  0.87932  0.88090  Biso   1.000  H
  C90      1.0000 0.99618  0.34957  0.98897  Biso   1.000  C
  H126     1.0000 0.90922  0.36600  0.91209  Biso   1.000  H
  C91      1.0000 0.80932  0.39158  0.00046  Biso   1.000  C
  C92      1.0000 0.92481  0.84157  0.79788  Biso   1.000  C
  H127     1.0000 0.98238  0.79363  0.88811  Biso   1.000  H
  C93      1.0000 0.10048  0.77324  0.80741  Biso   1.000  C
  H128     1.0000 0.99025  0.32937  0.03859  Biso   1.000  H
  H129     1.0000 0.00501  0.40130  0.98188  Biso   1.000  H
  H130     1.0000 0.05333  0.32067  0.96340  Biso   1.000  H
  H131     1.0000 0.81958  0.44289  0.99517  Biso   1.000  H
  H132     1.0000 0.75149  0.39079  0.98029  Biso   1.000  H
  H133     1.0000 0.79849  0.37068  0.04986  Biso   1.000  H
  H134     1.0000 0.86717  0.87187  0.82150  Biso   1.000  H
  H135     1.0000 0.94847  0.86919  0.75266  Biso   1.000  H
  H136     1.0000 0.90659  0.79584  0.79126  Biso   1.000  H
  H137     1.0000 0.15117  0.76137  0.83706  Biso   1.000  H
  H138     1.0000 0.08277  0.72737  0.80069  Biso   1.000  H
  H139     1.0000 0.12596  0.80023  0.76230  Biso   1.000  H
  C94      1.0000 0.41420  0.58102  0.47484  Biso   1.000  C
  C95      1.0000 0.36613  0.53898  0.44403  Biso   1.000  C
  O13      1.0000 0.37199  0.59338  0.54288  Biso   1.000  O
  C96      1.0000 0.50088  0.60747  0.43751  Biso   1.000  C
  C97      1.0000 0.27760  0.50262  0.48517  Biso   1.000  C
  C98      1.0000 0.40380  0.52832  0.37419  Biso   1.000  C
  C99      1.0000 0.41473  0.64212  0.57269  Biso   1.000  C
  C100     1.0000 0.53983  0.59550  0.36879  Biso   1.000  C
  H140     1.0000 0.53353  0.63388  0.45938  Biso   1.000  H
  C101     1.0000 0.17761  0.53907  0.46171  Biso   1.000  C
  H141     1.0000 0.29120  0.44960  0.48008  Biso   1.000  H
  H142     1.0000 0.27210  0.50527  0.53499  Biso   1.000  H
  C102     1.0000 0.48860  0.55645  0.33649  Biso   1.000  C
  H143     1.0000 0.37129  0.50169  0.35232  Biso   1.000  H
  C103     1.0000 0.34473  0.66183  0.63957  Biso   1.000  C
  H144     1.0000 0.42316  0.68777  0.53907  Biso   1.000  H
  H145     1.0000 0.48043  0.61709  0.58370  Biso   1.000  H
  C104     1.0000 0.63679  0.62248  0.33035  Biso   1.000  C
  C105     1.0000 0.12792  0.50215  0.42703  Biso   1.000  C
  C106     1.0000 0.13260  0.61126  0.47564  Biso   1.000  C
  O14      1.0000 0.52940  0.54803  0.26728  Biso   1.000  O
  C107     1.0000 0.39395  0.70958  0.67488  Biso   1.000  C
  C108     1.0000 0.24321  0.70430  0.62310  Biso   1.000  C
  H146     1.0000 0.33494  0.61486  0.67208  Biso   1.000  H
  C109     1.0000 0.62164  0.69556  0.27872  Biso   1.000  C
  H147     1.0000 0.67401  0.62939  0.36519  Biso   1.000  H
  H148     1.0000 0.67779  0.58330  0.30477  Biso   1.000  H
  O15      1.0000 0.17533  0.43144  0.41295  Biso   1.000  O
  C110     1.0000 0.03381  0.53649  0.40950  Biso   1.000  C
  H149     1.0000 0.16555  0.63680  0.49830  Biso   1.000  H
  C111     1.0000 0.04012  0.64623  0.45663  Biso   1.000  C
  C112     1.0000 0.48389  0.50448  0.23350  Biso   1.000  C
  H150     1.0000 0.45791  0.68167  0.68510  Biso   1.000  H
  H151     1.0000 0.35099  0.72100  0.71809  Biso   1.000  H
  H152     1.0000 0.40352  0.75569  0.64348  Biso   1.000  H
  H153     1.0000 0.21340  0.67359  0.60128  Biso   1.000  H
  H154     1.0000 0.25194  0.75035  0.59138  Biso   1.000  H
  H155     1.0000 0.19992  0.71568  0.66620  Biso   1.000  H
  C113     1.0000 0.63640  0.69456  0.20623  Biso   1.000  C
  C114     1.0000 0.59440  0.76516  0.30202  Biso   1.000  C
  C115     1.0000 0.13524  0.39947  0.36582  Biso   1.000  C
  H156     1.0000 0.00062  0.51061  0.38748  Biso   1.000  H
  C116     1.0000 0.98811  0.60803  0.42396  Biso   1.000  C
  O16      1.0000 0.99270  0.71726  0.46918  Biso   1.000  O
  C117     1.0000 0.54027  0.50389  0.15821  Biso   1.000  C
  H157     1.0000 0.41351  0.52660  0.23308  Biso   1.000  H
  H158     1.0000 0.48754  0.45317  0.25897  Biso   1.000  H
  H159     1.0000 0.65468  0.64849  0.18971  Biso   1.000  H
  C118     1.0000 0.62435  0.76130  0.15779  Biso   1.000  C
  O17      1.0000 0.57996  0.76315  0.37450  Biso   1.000  O
  C119     1.0000 0.58282  0.83181  0.25378  Biso   1.000  C
  C120     1.0000 0.20842  0.33065  0.34517  Biso   1.000  C
  H160     1.0000 0.12438  0.43630  0.32389  Biso   1.000  H
  H161     1.0000 0.07084  0.38538  0.38880  Biso   1.000  H
  C121     1.0000 0.88357  0.64184  0.40754  Biso   1.000  C
  C122     1.0000 0.04114  0.75628  0.50492  Biso   1.000  C
  C123     1.0000 0.48981  0.46009  0.12062  Biso   1.000  C
  C124     1.0000 0.65137  0.47322  0.15667  Biso   1.000  C
  H162     1.0000 0.53351  0.55627  0.13370  Biso   1.000  H
  O18      1.0000 0.63772  0.76271  0.08551  Biso   1.000  O
  C125     1.0000 0.59693  0.83109  0.18124  Biso   1.000  C
  C126     1.0000 0.56324  0.83341  0.39955  Biso   1.000  C
  H163     1.0000 0.56531  0.87786  0.27041  Biso   1.000  H
  C127     1.0000 0.16473  0.29688  0.29482  Biso   1.000  C
  C128     1.0000 0.31053  0.34956  0.31150  Biso   1.000  C
  H164     1.0000 0.21578  0.29316  0.38801  Biso   1.000  H
  C129     1.0000 0.87969  0.69669  0.33824  Biso   1.000  C
  H165     1.0000 0.84618  0.66807  0.44599  Biso   1.000  H
  H166     1.0000 0.84928  0.60090  0.40627  Biso   1.000  H
  H167     1.0000 0.11195  0.75307  0.48427  Biso   1.000  H
  H168     1.0000 0.03602  0.73440  0.55458  Biso   1.000  H
  C130     1.0000 0.98671  0.83956  0.49650  Biso   1.000  C
  H169     1.0000 0.41969  0.48201  0.12279  Biso   1.000  H
  H170     1.0000 0.49610  0.40827  0.14317  Biso   1.000  H
  H171     1.0000 0.52178  0.46239  0.07190  Biso   1.000  H
  H172     1.0000 0.67938  0.50289  0.18071  Biso   1.000  H
  H173     1.0000 0.68513  0.47560  0.10849  Biso   1.000  H
  H174     1.0000 0.66012  0.42156  0.17992  Biso   1.000  H
  C131     1.0000 0.67858  0.69337  0.05936  Biso   1.000  C
  C132     1.0000 0.58491  0.90476  0.12983  Biso   1.000  C
  C133     1.0000 0.54552  0.81871  0.47971  Biso   1.000  C
  H175     1.0000 0.50505  0.86638  0.38282  Biso   1.000  H
  H176     1.0000 0.62141  0.85805  0.38192  Biso   1.000  H
  H177     1.0000 0.10015  0.28457  0.31748  Biso   1.000  H
  H178     1.0000 0.20950  0.25188  0.28259  Biso   1.000  H
  H179     1.0000 0.15699  0.33297  0.25262  Biso   1.000  H
  H180     1.0000 0.33701  0.37001  0.34422  Biso   1.000  H
  H181     1.0000 0.30441  0.38618  0.26951  Biso   1.000  H
  H182     1.0000 0.35528  0.30461  0.29932  Biso   1.000  H
  C134     1.0000 0.89307  0.67122  0.27374  Biso   1.000  C
  C135     1.0000 0.85802  0.77436  0.33818  Biso   1.000  C
  C136     1.0000 0.03911  0.88078  0.53409  Biso   1.000  C
  H183     1.0000 0.99361  0.86129  0.44609  Biso   1.000  H
  C137     1.0000 0.87984  0.84418  0.52700  Biso   1.000  C
  H184     1.0000 0.63682  0.65567  0.08128  Biso   1.000  H
  H185     1.0000 0.74593  0.67469  0.07047  Biso   1.000  H
  C138     1.0000 0.68256  0.70747  0.97972  Biso   1.000  C
  H186     1.0000 0.59145  0.94526  0.15318  Biso   1.000  H
  H187     1.0000 0.63950  0.90139  0.08991  Biso   1.000  H
  C139     1.0000 0.48573  0.92553  0.10203  Biso   1.000  C
  C140     1.0000 0.52201  0.89394  0.50672  Biso   1.000  C
  C141     1.0000 0.63283  0.76636  0.50942  Biso   1.000  C
  H188     1.0000 0.48590  0.79447  0.49570  Biso   1.000  H
  O19      1.0000 0.91391  0.59373  0.27602  Biso   1.000  O
  C142     1.0000 0.88659  0.72236  0.21153  Biso   1.000  C
  C143     1.0000 0.85045  0.82563  0.27586  Biso   1.000  C
  H189     1.0000 0.84829  0.79246  0.38081  Biso   1.000  H
  H190     1.0000 0.00922  0.93338  0.52911  Biso   1.000  H
  H191     1.0000 0.10933  0.87566  0.51381  Biso   1.000  H
  H192     1.0000 0.03235  0.85946  0.58339  Biso   1.000  H
  H193     1.0000 0.84644  0.89585  0.51990  Biso   1.000  H
  H194     1.0000 0.87315  0.82529  0.57677  Biso   1.000  H
  H195     1.0000 0.84969  0.81450  0.50439  Biso   1.000  H
  C144     1.0000 0.72193  0.63179  0.95240  Biso   1.000  C
  C145     1.0000 0.74293  0.76711  0.94229  Biso   1.000  C
  H196     1.0000 0.61325  0.72486  0.97061  Biso   1.000  H
  C146     1.0000 0.39817  0.96234  0.13994  Biso   1.000  C
  C147     1.0000 0.48043  0.91045  0.03616  Biso   1.000  C
  H197     1.0000 0.46586  0.92547  0.48729  Biso   1.000  H
  H198     1.0000 0.57972  0.91870  0.49237  Biso   1.000  H
  H199     1.0000 0.50573  0.88545  0.55739  Biso   1.000  H
  H200     1.0000 0.64549  0.71959  0.49110  Biso   1.000  H
  H201     1.0000 0.61659  0.75669  0.56009  Biso   1.000  H
  H202     1.0000 0.69181  0.78955  0.49570  Biso   1.000  H
  C148     1.0000 0.92187  0.56589  0.21137  Biso   1.000  C
  C149     1.0000 0.86589  0.80018  0.21126  Biso   1.000  C
  H203     1.0000 0.89641  0.70420  0.16891  Biso   1.000  H
  O20      1.0000 0.82552  0.90284  0.27390  Biso   1.000  O
  H204     1.0000 0.68033  0.59557  0.97718  Biso   1.000  H
  H205     1.0000 0.79004  0.61358  0.96039  Biso   1.000  H
  H206     1.0000 0.72010  0.63878  0.90268  Biso   1.000  H
  H207     1.0000 0.71573  0.81326  0.96092  Biso   1.000  H
  H208     1.0000 0.74033  0.77526  0.89262  Biso   1.000  H
  H209     1.0000 0.81172  0.75078  0.94938  Biso   1.000  H
  O21      1.0000 0.40557  0.97577  0.20565  Biso   1.000  O
  C150     1.0000 0.31071  0.98509  0.11072  Biso   1.000  C
  H210     1.0000 0.53792  0.88587  0.01011  Biso   1.000  H
  C151     1.0000 0.39183  0.93085  0.00757  Biso   1.000  C
  C152     1.0000 0.95720  0.48094  0.22413  Biso   1.000  C
  H211     1.0000 0.96980  0.58970  0.17478  Biso   1.000  H
  H212     1.0000 0.85700  0.57750  0.19580  Biso   1.000  H
  C153     1.0000 0.85843  0.85463  0.14264  Biso   1.000  C
  C154     1.0000 0.81762  0.93217  0.33739  Biso   1.000  C
  C155     1.0000 0.31344  0.99956  0.24997  Biso   1.000  C
  C156     1.0000 0.30544  0.96992  0.04405  Biso   1.000  C
  H213     1.0000 0.25385  0.01101  0.13608  Biso   1.000  H
  O22      1.0000 0.38457  0.91584  0.94266  Biso   1.000  O
  H214     1.0000 0.02214  0.47137  0.24081  Biso   1.000  H
  C157     1.0000 0.97492  0.45101  0.15429  Biso   1.000  C
  C158     1.0000 0.88470  0.44097  0.28068  Biso   1.000  C
  H215     1.0000 0.80129  0.89485  0.15080  Biso   1.000  H
  H216     1.0000 0.84511  0.82798  0.10802  Biso   1.000  H
  C159     1.0000 0.95220  0.88953  0.11188  Biso   1.000  C
  H217     1.0000 0.88262  0.92067  0.35290  Biso   1.000  H
  H218     1.0000 0.76983  0.90886  0.37429  Biso   1.000  H
  C160     1.0000 0.78292  0.01652  0.32452  Biso   1.000  C
  H219     1.0000 0.26977  0.96228  0.25950  Biso   1.000  H
  C161     1.0000 0.32221  0.98467  0.32669  Biso   1.000  C
  C162     1.0000 0.35025  0.00760  0.32050  Biso   1.000  C
  H220     1.0000 0.27816  0.04762  0.22890  Biso   1.000  H
  C163     1.0000 0.20966  0.99766  0.01265  Biso   1.000  C
  C164     1.0000 0.46556  0.86438  0.91078  Biso   1.000  C
  H221     1.0000 0.02524  0.47468  0.12120  Biso   1.000  H
  H222     1.0000 0.99743  0.39727  0.16208  Biso   1.000  H
  H223     1.0000 0.91308  0.46211  0.13550  Biso   1.000  H
  H224     1.0000 0.91003  0.38757  0.28740  Biso   1.000  H
  H225     1.0000 0.82003  0.45029  0.26612  Biso   1.000  H
  H226     1.0000 0.87823  0.45968  0.32431  Biso   1.000  H
  C165     1.0000 0.03643  0.85094  0.07254  Biso   1.000  C
  C166     1.0000 0.95544  0.96218  0.12141  Biso   1.000  C
  C167     1.0000 0.78145  0.04840  0.39108  Biso   1.000  C
  H227     1.0000 0.82713  0.04032  0.28439  Biso   1.000  H
  C168     1.0000 0.67187  0.03353  0.31038  Biso   1.000  C
  H228     1.0000 0.36876  0.95496  0.34258  Biso   1.000  H
  C169     1.0000 0.21384  0.99198  0.37371  Biso   1.000  C
  H229     1.0000 0.36064  0.93395  0.33871  Biso   1.000  H
  C170     1.0000 0.25045  0.03651  0.36921  Biso   1.000  C
  C171     1.0000 0.37798  0.04100  0.33400  Biso   1.000  C
  C172     1.0000 0.42796  0.03800  0.32299  Biso   1.000  C
  C173     1.0000 0.12147  0.95931  0.05067  Biso   1.000  C
  H230     1.0000 0.22388  0.98997  0.96362  Biso   1.000  H
  H231     1.0000 0.18994  0.05173  0.01318  Biso   1.000  H
  C174     1.0000 0.43604  0.84608  0.84650  Biso   1.000  C
  H232     1.0000 0.47955  0.81860  0.94419  Biso   1.000  H
  H233     1.0000 0.52581  0.88697  0.89702  Biso   1.000  H
  O23      1.0000 0.03088  0.77808  0.06624  Biso   1.000  O
  C175     1.0000 0.11917  0.88606  0.04172  Biso   1.000  C
  C176     1.0000 0.03936  0.99626  0.09282  Biso   1.000  C
  H234     1.0000 0.90000  0.98869  0.14762  Biso   1.000  H
  H235     1.0000 0.84856  0.03929  0.40172  Biso   1.000  H
  H236     1.0000 0.73834  0.02410  0.42989  Biso   1.000  H
  H237     1.0000 0.75652  0.10179  0.38372  Biso   1.000  H
  H238     1.0000 0.66942  0.01534  0.26797  Biso   1.000  H
  H239     1.0000 0.64780  0.08710  0.30498  Biso   1.000  H
  H240     1.0000 0.63004  0.00859  0.34967  Biso   1.000  H
  H241     1.0000 0.17846  0.95579  0.36450  Biso   1.000  H
  H242     1.0000 0.22023  0.98245  0.42290  Biso   1.000  H
  H243     1.0000 0.17699  0.04215  0.36227  Biso   1.000  H
  H244     1.0000 0.26543  0.04302  0.41337  Biso   1.000  H
  H245     1.0000 0.20607  0.00045  0.37779  Biso   1.000  H
  H246     1.0000 0.21834  0.08413  0.34639  Biso   1.000  H
  H247     1.0000 0.43464  0.03574  0.37180  Biso   1.000  H
  H248     1.0000 0.41814  0.09032  0.30112  Biso   1.000  H
  H249     1.0000 0.44424  0.03310  0.30599  Biso   1.000  H
  H250     1.0000 0.38405  0.03764  0.38271  Biso   1.000  H
  H251     1.0000 0.34338  0.09093  0.31769  Biso   1.000  H
  H252     1.0000 0.48869  0.01139  0.29900  Biso   1.000  H
  C177     1.0000 0.34016  0.81401  0.86482  Biso   1.000  C
  C178     1.0000 0.52201  0.79017  0.81320  Biso   1.000  C
  H253     1.0000 0.42612  0.89257  0.81219  Biso   1.000  H
  C179     1.0000 0.11640  0.73569  0.02859  Biso   1.000  C
  H254     1.0000 0.17395  0.85998  0.01461  Biso   1.000  H
  O24      1.0000 0.04680  0.06741  0.10362  Biso   1.000  O
  H255     1.0000 0.28635  0.85021  0.88489  Biso   1.000  H
  H256     1.0000 0.34886  0.76841  0.89850  Biso   1.000  H
  H257     1.0000 0.32389  0.80291  0.82273  Biso   1.000  H
  H258     1.0000 0.50451  0.77821  0.77190  Biso   1.000  H
  H259     1.0000 0.53386  0.74480  0.84682  Biso   1.000  H
  H260     1.0000 0.58206  0.81217  0.79991  Biso   1.000  H
  C180     1.0000 0.09854  0.65477  0.03728  Biso   1.000  C
  H261     1.0000 0.17655  0.73636  0.04712  Biso   1.000  H
  H262     1.0000 0.12586  0.75748  0.97882  Biso   1.000  H
  C181     1.0000 0.96296  0.10710  0.14434  Biso   1.000  C
  C182     1.0000 0.00380  0.65038  0.01101  Biso   1.000  C
  H263     1.0000 0.09081  0.63401  0.08789  Biso   1.000  H
  C183     1.0000 0.19072  0.60838  0.99952  Biso   1.000  C
  C184     1.0000 0.99246  0.17794  0.15768  Biso   1.000  C
  H264     1.0000 0.94344  0.07562  0.18897  Biso   1.000  H
  H265     1.0000 0.90628  0.12063  0.11908  Biso   1.000  H
  H266     1.0000 0.99502  0.59871  0.01811  Biso   1.000  H
  H267     1.0000 0.94671  0.67929  0.03659  Biso   1.000  H
  H268     1.0000 0.00972  0.67059  0.96140  Biso   1.000  H
  H269     1.0000 0.18039  0.55707  0.00482  Biso   1.000  H
  H270     1.0000 0.24855  0.60916  0.01970  Biso   1.000  H
  H271     1.0000 0.20156  0.62927  0.95012  Biso   1.000  H
  C185     1.0000 0.89956  0.22671  0.19257  Biso   1.000  C
  C186     1.0000 0.07515  0.15844  0.20210  Biso   1.000  C
  H272     1.0000 0.01767  0.20632  0.11188  Biso   1.000  H
  H273     1.0000 0.84886  0.23864  0.16292  Biso   1.000  H
  H274     1.0000 0.91728  0.27259  0.19930  Biso   1.000  H
  H275     1.0000 0.87409  0.19973  0.23769  Biso   1.000  H
  H276     1.0000 0.13286  0.12814  0.17849  Biso   1.000  H
  H277     1.0000 0.05156  0.13082  0.24732  Biso   1.000  H
  H278     1.0000 0.09346  0.20411  0.20872  Biso   1.000  H
