data_image0
_cell_length_a       19.998
_cell_length_b       15.235
_cell_length_c       24.559
_cell_angle_alpha    90
_cell_angle_beta     90
_cell_angle_gamma    90

_symmetry_space_group_name_H-M    "P 1"
_symmetry_int_tables_number       1

loop_
  _symmetry_equiv_pos_as_xyz
  'x, y, z'

loop_
  _atom_site_label
  _atom_site_occupancy
  _atom_site_fract_x
  _atom_site_fract_y
  _atom_site_fract_z
  _atom_site_thermal_displace_type
  _atom_site_B_iso_or_equiv
  _atom_site_type_symbol
  C1       1.0000 0.54680  0.62068  0.51920  Biso   1.000  C
  C2       1.0000 0.58641  0.62560  0.47372  Biso   1.000  C
  I1       1.0000 0.44254  0.62973  0.51236  Biso   1.000  I
  C3       1.0000 0.57431  0.60479  0.56961  Biso   1.000  C
  O1       1.0000 0.55681  0.63518  0.42249  Biso   1.000  O
  C4       1.0000 0.65482  0.61017  0.47661  Biso   1.000  C
  C5       1.0000 0.64351  0.59107  0.57380  Biso   1.000  C
  H1       1.0000 0.54680  0.60302  0.60121  Biso   1.000  H
  C6       1.0000 0.54470  0.71723  0.40291  Biso   1.000  C
  I2       1.0000 0.71427  0.60965  0.40730  Biso   1.000  I
  C7       1.0000 0.68332  0.59212  0.52751  Biso   1.000  C
  H2       1.0000 0.66312  0.58123  0.60841  Biso   1.000  H
  N1       1.0000 0.51290  0.71441  0.35592  Biso   1.000  N
  N2       1.0000 0.56491  0.78668  0.43088  Biso   1.000  N
  H3       1.0000 0.72982  0.58057  0.53040  Biso   1.000  H
  C8       1.0000 0.50160  0.79442  0.33601  Biso   1.000  C
  C9       1.0000 0.54990  0.86131  0.40511  Biso   1.000  C
  O2       1.0000 0.46810  0.79350  0.28853  Biso   1.000  O
  N3       1.0000 0.51820  0.87089  0.35791  Biso   1.000  N
  O3       1.0000 0.56901  0.93318  0.43296  Biso   1.000  O
  C10      1.0000 0.45860  0.87253  0.25978  Biso   1.000  C
  C11      1.0000 0.55391  0.01680  0.41068  Biso   1.000  C
  C12      1.0000 0.39379  0.90121  0.25331  Biso   1.000  C
  C13      1.0000 0.51160  0.91139  0.23319  Biso   1.000  C
  C14      1.0000 0.59521  0.05153  0.37070  Biso   1.000  C
  C15      1.0000 0.50200  0.06479  0.43320  Biso   1.000  C
  H4       1.0000 0.35789  0.87187  0.27090  Biso   1.000  H
  C16      1.0000 0.38209  0.97453  0.22029  Biso   1.000  C
  C17      1.0000 0.49820  0.98339  0.20139  Biso   1.000  C
  H5       1.0000 0.55571  0.88920  0.23682  Biso   1.000  H
  C18      1.0000 0.58221  0.13659  0.35409  Biso   1.000  C
  H6       1.0000 0.63081  0.01838  0.35551  Biso   1.000  H
  H7       1.0000 0.47440  0.03991  0.46061  Biso   1.000  H
  C19      1.0000 0.49080  0.14933  0.41520  Biso   1.000  C
  H8       1.0000 0.33778  0.99619  0.21609  Biso   1.000  H
  C20      1.0000 0.43469  0.01562  0.19370  Biso   1.000  C
  O4       1.0000 0.55101  0.02041  0.17041  Biso   1.000  O
  O5       1.0000 0.62641  0.17867  0.31732  Biso   1.000  O
  C21      1.0000 0.53050  0.18589  0.37530  Biso   1.000  C
  H9       1.0000 0.45540  0.18280  0.43060  Biso   1.000  H
  H10      1.0000 0.42709  0.06479  0.17069  Biso   1.000  H
  C22      1.0000 0.59161  0.07923  0.19439  Biso   1.000  C
  C23      1.0000 0.62801  0.15471  0.26479  Biso   1.000  C
  H11      1.0000 0.52240  0.24378  0.36260  Biso   1.000  H
  N4       1.0000 0.58351  0.09609  0.24671  Biso   1.000  N
  N5       1.0000 0.63691  0.11250  0.16039  Biso   1.000  N
  N6       1.0000 0.67482  0.19527  0.23698  Biso   1.000  N
  C24      1.0000 0.67572  0.17132  0.18490  Biso   1.000  C
  O6       1.0000 0.72382  0.21392  0.15599  Biso   1.000  O
  C25      1.0000 0.73492  0.18910  0.10228  Biso   1.000  C
  C26      1.0000 0.70422  0.23243  0.05941  Biso   1.000  C
  C27      1.0000 0.78478  0.12537  0.09210  Biso   1.000  C
  I3       1.0000 0.63746  0.33430  0.07688  Biso   1.000  I
  C28      1.0000 0.72162  0.21122  0.00619  Biso   1.000  C
  I4       1.0000 0.83258  0.06393  0.15681  Biso   1.000  I
  C29      1.0000 0.80048  0.10581  0.03758  Biso   1.000  C
  H12      1.0000 0.70072  0.24070  0.97671  Biso   1.000  H
  C30      1.0000 0.76878  0.14788  0.99601  Biso   1.000  C
  H13      1.0000 0.83358  0.06282  0.02968  Biso   1.000  H
  H14      1.0000 0.77948  0.13311  0.95940  Biso   1.000  H
  C31      1.0000 0.45320  0.37932  0.48080  Biso   1.000  C
  C32      1.0000 0.42569  0.39521  0.43039  Biso   1.000  C
  C33      1.0000 0.41359  0.37440  0.52628  Biso   1.000  C
  I5       1.0000 0.55746  0.37027  0.48764  Biso   1.000  I
  C34      1.0000 0.35649  0.40893  0.42620  Biso   1.000  C
  H15      1.0000 0.45320  0.39698  0.39879  Biso   1.000  H
  C35      1.0000 0.34518  0.38983  0.52339  Biso   1.000  C
  O7       1.0000 0.44319  0.36482  0.57751  Biso   1.000  O
  C36      1.0000 0.31668  0.40788  0.47249  Biso   1.000  C
  H16      1.0000 0.33688  0.41877  0.39159  Biso   1.000  H
  I6       1.0000 0.28573  0.39035  0.59270  Biso   1.000  I
  C37      1.0000 0.45530  0.28277  0.59709  Biso   1.000  C
  H17      1.0000 0.27018  0.41943  0.46960  Biso   1.000  H
  N7       1.0000 0.48710  0.28559  0.64408  Biso   1.000  N
  N8       1.0000 0.43509  0.21332  0.56912  Biso   1.000  N
  C38      1.0000 0.49840  0.20558  0.66399  Biso   1.000  C
  C39      1.0000 0.45010  0.13869  0.59489  Biso   1.000  C
  O8       1.0000 0.53190  0.20650  0.71147  Biso   1.000  O
  N9       1.0000 0.48180  0.12911  0.64209  Biso   1.000  N
  O9       1.0000 0.43099  0.06682  0.56704  Biso   1.000  O
  C40      1.0000 0.54140  0.12747  0.74022  Biso   1.000  C
  C41      1.0000 0.44609  0.98320  0.58932  Biso   1.000  C
  C42      1.0000 0.60621  0.09879  0.74669  Biso   1.000  C
  C43      1.0000 0.48840  0.08861  0.76681  Biso   1.000  C
  C44      1.0000 0.40479  0.94847  0.62930  Biso   1.000  C
  C45      1.0000 0.49800  0.93521  0.56680  Biso   1.000  C
  H18      1.0000 0.64211  0.12813  0.72910  Biso   1.000  H
  C46      1.0000 0.61791  0.02547  0.77971  Biso   1.000  C
  C47      1.0000 0.50180  0.01661  0.79861  Biso   1.000  C
  H19      1.0000 0.44429  0.11080  0.76318  Biso   1.000  H
  C48      1.0000 0.41779  0.86341  0.64591  Biso   1.000  C
  H20      1.0000 0.36919  0.98162  0.64449  Biso   1.000  H
  H21      1.0000 0.52560  0.96009  0.53939  Biso   1.000  H
  C49      1.0000 0.50920  0.85067  0.58480  Biso   1.000  C
  H22      1.0000 0.66222  0.00381  0.78391  Biso   1.000  H
  C50      1.0000 0.56531  0.98438  0.80630  Biso   1.000  C
  O10      1.0000 0.44899  0.97959  0.82959  Biso   1.000  O
  O11      1.0000 0.37359  0.82133  0.68268  Biso   1.000  O
  C51      1.0000 0.46950  0.81411  0.62470  Biso   1.000  C
  H23      1.0000 0.54460  0.81720  0.56940  Biso   1.000  H
  H24      1.0000 0.57291  0.93521  0.82931  Biso   1.000  H
  C52      1.0000 0.40839  0.92077  0.80561  Biso   1.000  C
  C53      1.0000 0.37199  0.84529  0.73521  Biso   1.000  C
  H25      1.0000 0.47760  0.75622  0.63740  Biso   1.000  H
  N10      1.0000 0.41649  0.90391  0.75329  Biso   1.000  N
  N11      1.0000 0.36309  0.88750  0.83961  Biso   1.000  N
  N12      1.0000 0.32518  0.80473  0.76302  Biso   1.000  N
  C54      1.0000 0.32428  0.82868  0.81510  Biso   1.000  C
  O12      1.0000 0.27618  0.78608  0.84401  Biso   1.000  O
  C55      1.0000 0.26508  0.81090  0.89772  Biso   1.000  C
  C56      1.0000 0.29578  0.76757  0.94059  Biso   1.000  C
  C57      1.0000 0.21522  0.87463  0.90790  Biso   1.000  C
  I7       1.0000 0.36254  0.66570  0.92312  Biso   1.000  I
  C58      1.0000 0.27838  0.78878  0.99381  Biso   1.000  C
  I8       1.0000 0.16742  0.93607  0.84319  Biso   1.000  I
  C59      1.0000 0.19952  0.89419  0.96242  Biso   1.000  C
  H26      1.0000 0.29928  0.75930  0.02329  Biso   1.000  H
  C60      1.0000 0.23122  0.85212  0.00399  Biso   1.000  C
  H27      1.0000 0.16642  0.93718  0.97032  Biso   1.000  H
  H28      1.0000 0.22052  0.86689  0.04060  Biso   1.000  H
  O13      1.0000 0.55101  0.47962  0.67039  Biso   1.000  O
  C61      1.0000 0.59161  0.42081  0.69441  Biso   1.000  C
  C62      1.0000 0.49820  0.51657  0.70141  Biso   1.000  C
  N13      1.0000 0.63691  0.38753  0.66041  Biso   1.000  N
  N14      1.0000 0.58351  0.40387  0.74669  Biso   1.000  N
  C63      1.0000 0.43469  0.48441  0.69372  Biso   1.000  C
  C64      1.0000 0.51160  0.58858  0.73321  Biso   1.000  C
  C65      1.0000 0.67572  0.32872  0.68488  Biso   1.000  C
  C66      1.0000 0.62801  0.34532  0.76481  Biso   1.000  C
  C67      1.0000 0.38209  0.52550  0.72031  Biso   1.000  C
  H29      1.0000 0.42709  0.43518  0.67071  Biso   1.000  H
  C68      1.0000 0.45860  0.62750  0.75980  Biso   1.000  C
  H30      1.0000 0.55571  0.61083  0.73680  Biso   1.000  H
  O14      1.0000 0.72382  0.28612  0.65601  Biso   1.000  O
  N15      1.0000 0.67482  0.30469  0.73700  Biso   1.000  N
  O15      1.0000 0.62641  0.32130  0.81730  Biso   1.000  O
  C69      1.0000 0.39379  0.59882  0.75329  Biso   1.000  C
  H31      1.0000 0.33778  0.50377  0.71611  Biso   1.000  H
  O16      1.0000 0.46810  0.70653  0.78855  Biso   1.000  O
  C70      1.0000 0.73492  0.31093  0.60230  Biso   1.000  C
  C71      1.0000 0.58221  0.36337  0.85411  Biso   1.000  C
  H32      1.0000 0.35789  0.62809  0.77092  Biso   1.000  H
  C72      1.0000 0.50160  0.70561  0.83599  Biso   1.000  C
  C73      1.0000 0.70422  0.26761  0.55939  Biso   1.000  C
  C74      1.0000 0.78478  0.37460  0.59208  Biso   1.000  C
  C75      1.0000 0.59521  0.44851  0.87072  Biso   1.000  C
  C76      1.0000 0.53050  0.31408  0.87528  Biso   1.000  C
  N16      1.0000 0.51290  0.78563  0.85590  Biso   1.000  N
  N17      1.0000 0.51820  0.62908  0.85789  Biso   1.000  N
  I9       1.0000 0.63746  0.16567  0.57690  Biso   1.000  I
  C77      1.0000 0.72162  0.28881  0.50621  Biso   1.000  C
  I10      1.0000 0.83258  0.43610  0.65683  Biso   1.000  I
  C78      1.0000 0.80048  0.39422  0.53760  Biso   1.000  C
  H33      1.0000 0.63081  0.48159  0.85549  Biso   1.000  H
  C79      1.0000 0.55391  0.48323  0.91070  Biso   1.000  C
  C80      1.0000 0.49080  0.35071  0.91518  Biso   1.000  C
  H34      1.0000 0.52240  0.25619  0.86262  Biso   1.000  H
  C81      1.0000 0.54470  0.78280  0.90289  Biso   1.000  C
  C82      1.0000 0.54990  0.63873  0.90509  Biso   1.000  C
  H35      1.0000 0.70072  0.25927  0.47669  Biso   1.000  H
  C83      1.0000 0.76878  0.35208  0.49599  Biso   1.000  C
  H36      1.0000 0.83358  0.43722  0.52970  Biso   1.000  H
  O17      1.0000 0.56901  0.56679  0.93294  Biso   1.000  O
  C84      1.0000 0.50200  0.43518  0.93318  Biso   1.000  C
  H37      1.0000 0.45540  0.31723  0.93062  Biso   1.000  H
  N18      1.0000 0.56491  0.71329  0.93090  Biso   1.000  N
  O18      1.0000 0.55681  0.86479  0.92251  Biso   1.000  O
  H38      1.0000 0.77948  0.36692  0.45938  Biso   1.000  H
  H39      1.0000 0.47440  0.46012  0.96058  Biso   1.000  H
  C85      1.0000 0.58641  0.87437  0.97370  Biso   1.000  C
  C86      1.0000 0.65482  0.88979  0.97659  Biso   1.000  C
  C87      1.0000 0.54680  0.87929  0.01922  Biso   1.000  C
  I11      1.0000 0.71427  0.89032  0.90728  Biso   1.000  I
  C88      1.0000 0.68332  0.90791  0.02748  Biso   1.000  C
  I12      1.0000 0.44254  0.87023  0.01238  Biso   1.000  I
  C89      1.0000 0.57431  0.89518  0.06959  Biso   1.000  C
  H40      1.0000 0.72982  0.91940  0.03042  Biso   1.000  H
  C90      1.0000 0.64351  0.90889  0.07378  Biso   1.000  C
  H41      1.0000 0.54680  0.89701  0.10118  Biso   1.000  H
  H42      1.0000 0.66312  0.91881  0.10839  Biso   1.000  H
  O19      1.0000 0.44899  0.52038  0.32961  Biso   1.000  O
  C91      1.0000 0.50180  0.48343  0.29859  Biso   1.000  C
  C92      1.0000 0.40839  0.57919  0.30559  Biso   1.000  C
  C93      1.0000 0.48840  0.41142  0.26679  Biso   1.000  C
  C94      1.0000 0.56531  0.51559  0.30628  Biso   1.000  C
  N19      1.0000 0.41649  0.59613  0.25331  Biso   1.000  N
  N20      1.0000 0.36309  0.61247  0.33959  Biso   1.000  N
  C95      1.0000 0.54140  0.37250  0.24020  Biso   1.000  C
  H43      1.0000 0.44429  0.38917  0.26320  Biso   1.000  H
  C96      1.0000 0.61791  0.47450  0.27969  Biso   1.000  C
  H44      1.0000 0.57291  0.56482  0.32929  Biso   1.000  H
  C97      1.0000 0.37199  0.65468  0.23519  Biso   1.000  C
  C98      1.0000 0.32428  0.67128  0.31512  Biso   1.000  C
  O20      1.0000 0.53190  0.29347  0.21145  Biso   1.000  O
  C99      1.0000 0.60621  0.40118  0.24671  Biso   1.000  C
  H45      1.0000 0.66222  0.49623  0.28389  Biso   1.000  H
  O21      1.0000 0.37359  0.67870  0.18270  Biso   1.000  O
  N21      1.0000 0.32518  0.69531  0.26300  Biso   1.000  N
  O22      1.0000 0.27618  0.71388  0.34399  Biso   1.000  O
  C100     1.0000 0.49840  0.29439  0.16401  Biso   1.000  C
  H46      1.0000 0.64211  0.37191  0.22908  Biso   1.000  H
  C101     1.0000 0.41779  0.63663  0.14589  Biso   1.000  C
  C102     1.0000 0.26508  0.68907  0.39770  Biso   1.000  C
  N22      1.0000 0.48710  0.21437  0.14410  Biso   1.000  N
  N23      1.0000 0.48180  0.37092  0.14211  Biso   1.000  N
  C103     1.0000 0.40479  0.55149  0.12928  Biso   1.000  C
  C104     1.0000 0.46950  0.68592  0.12472  Biso   1.000  C
  C105     1.0000 0.29578  0.73239  0.44061  Biso   1.000  C
  C106     1.0000 0.21522  0.62540  0.40792  Biso   1.000  C
  C107     1.0000 0.45530  0.21720  0.09711  Biso   1.000  C
  C108     1.0000 0.45010  0.36127  0.09491  Biso   1.000  C
  C109     1.0000 0.44609  0.51677  0.08930  Biso   1.000  C
  H47      1.0000 0.36919  0.51841  0.14451  Biso   1.000  H
  C110     1.0000 0.50920  0.64929  0.08482  Biso   1.000  C
  H48      1.0000 0.47760  0.74381  0.13738  Biso   1.000  H
  I13      1.0000 0.36254  0.83433  0.42310  Biso   1.000  I
  C111     1.0000 0.27838  0.71119  0.49379  Biso   1.000  C
  I14      1.0000 0.16742  0.56390  0.34317  Biso   1.000  I
  C112     1.0000 0.19952  0.60578  0.46240  Biso   1.000  C
  O23      1.0000 0.44319  0.13521  0.07749  Biso   1.000  O
  N24      1.0000 0.43509  0.28671  0.06910  Biso   1.000  N
  O24      1.0000 0.43099  0.43321  0.06706  Biso   1.000  O
  C113     1.0000 0.49800  0.56482  0.06682  Biso   1.000  C
  H49      1.0000 0.54460  0.68277  0.06938  Biso   1.000  H
  H50      1.0000 0.29928  0.74073  0.52331  Biso   1.000  H
  C114     1.0000 0.23122  0.64792  0.50401  Biso   1.000  C
  H51      1.0000 0.16642  0.56278  0.47030  Biso   1.000  H
  C115     1.0000 0.41359  0.12563  0.02630  Biso   1.000  C
  H52      1.0000 0.52560  0.53988  0.03942  Biso   1.000  H
  H53      1.0000 0.22052  0.63308  0.54062  Biso   1.000  H
  C116     1.0000 0.34518  0.11021  0.02341  Biso   1.000  C
  C117     1.0000 0.45320  0.12071  0.98078  Biso   1.000  C
  I15      1.0000 0.28573  0.10968  0.09272  Biso   1.000  I
  C118     1.0000 0.31668  0.09209  0.97252  Biso   1.000  C
  I16      1.0000 0.55746  0.12977  0.98762  Biso   1.000  I
  C119     1.0000 0.42569  0.10482  0.93041  Biso   1.000  C
  H54      1.0000 0.27018  0.08060  0.96958  Biso   1.000  H
  C120     1.0000 0.35649  0.09111  0.92622  Biso   1.000  C
  H55      1.0000 0.45320  0.10299  0.89882  Biso   1.000  H
  H56      1.0000 0.33688  0.08119  0.89161  Biso   1.000  H
  I17      1.0000 0.78573  0.10968  0.40730  Biso   1.000  I
  C121     1.0000 0.84518  0.11021  0.47661  Biso   1.000  C
  C122     1.0000 0.91359  0.12563  0.47372  Biso   1.000  C
  C123     1.0000 0.81668  0.09209  0.52751  Biso   1.000  C
  O25      1.0000 0.94319  0.13521  0.42249  Biso   1.000  O
  C124     1.0000 0.95320  0.12071  0.51920  Biso   1.000  C
  H57      1.0000 0.77018  0.08060  0.53040  Biso   1.000  H
  C125     1.0000 0.85649  0.09111  0.57380  Biso   1.000  C
  C126     1.0000 0.95530  0.21720  0.40291  Biso   1.000  C
  C127     1.0000 0.92569  0.10482  0.56961  Biso   1.000  C
  I18      1.0000 0.05746  0.12977  0.51236  Biso   1.000  I
  H58      1.0000 0.83688  0.08119  0.60841  Biso   1.000  H
  N25      1.0000 0.98710  0.21437  0.35592  Biso   1.000  N
  N26      1.0000 0.93509  0.28671  0.43088  Biso   1.000  N
  H59      1.0000 0.95320  0.10299  0.60121  Biso   1.000  H
  C128     1.0000 0.99840  0.29439  0.33601  Biso   1.000  C
  C129     1.0000 0.95010  0.36127  0.40511  Biso   1.000  C
  O26      1.0000 0.03190  0.29347  0.28853  Biso   1.000  O
  N27      1.0000 0.98180  0.37092  0.35791  Biso   1.000  N
  O27      1.0000 0.93099  0.43321  0.43296  Biso   1.000  O
  C130     1.0000 0.04140  0.37250  0.25978  Biso   1.000  C
  C131     1.0000 0.94609  0.51677  0.41068  Biso   1.000  C
  C132     1.0000 0.98840  0.41142  0.23319  Biso   1.000  C
  C133     1.0000 0.10621  0.40118  0.25331  Biso   1.000  C
  C134     1.0000 0.90479  0.55149  0.37070  Biso   1.000  C
  C135     1.0000 0.99800  0.56482  0.43320  Biso   1.000  C
  C136     1.0000 0.00180  0.48343  0.20139  Biso   1.000  C
  H60      1.0000 0.94429  0.38917  0.23682  Biso   1.000  H
  C137     1.0000 0.11791  0.47450  0.22029  Biso   1.000  C
  H61      1.0000 0.14211  0.37191  0.27090  Biso   1.000  H
  C138     1.0000 0.91779  0.63663  0.35409  Biso   1.000  C
  H62      1.0000 0.86919  0.51841  0.35551  Biso   1.000  H
  C139     1.0000 0.00920  0.64929  0.41520  Biso   1.000  C
  H63      1.0000 0.02560  0.53988  0.46061  Biso   1.000  H
  O28      1.0000 0.94899  0.52038  0.17041  Biso   1.000  O
  C140     1.0000 0.06531  0.51559  0.19370  Biso   1.000  C
  H64      1.0000 0.16222  0.49623  0.21609  Biso   1.000  H
  O29      1.0000 0.87359  0.67870  0.31732  Biso   1.000  O
  C141     1.0000 0.96950  0.68592  0.37530  Biso   1.000  C
  H65      1.0000 0.04460  0.68277  0.43060  Biso   1.000  H
  C142     1.0000 0.90839  0.57919  0.19439  Biso   1.000  C
  H66      1.0000 0.07291  0.56482  0.17069  Biso   1.000  H
  C143     1.0000 0.87199  0.65468  0.26479  Biso   1.000  C
  H67      1.0000 0.97760  0.74381  0.36260  Biso   1.000  H
  N28      1.0000 0.86309  0.61247  0.16039  Biso   1.000  N
  N29      1.0000 0.91649  0.59613  0.24671  Biso   1.000  N
  N30      1.0000 0.82518  0.69531  0.23698  Biso   1.000  N
  C144     1.0000 0.82428  0.67128  0.18490  Biso   1.000  C
  O30      1.0000 0.77618  0.71388  0.15599  Biso   1.000  O
  C145     1.0000 0.76508  0.68907  0.10228  Biso   1.000  C
  C146     1.0000 0.71522  0.62540  0.09210  Biso   1.000  C
  C147     1.0000 0.79578  0.73239  0.05941  Biso   1.000  C
  I19      1.0000 0.66742  0.56390  0.15681  Biso   1.000  I
  C148     1.0000 0.69952  0.60578  0.03758  Biso   1.000  C
  I20      1.0000 0.86254  0.83433  0.07688  Biso   1.000  I
  C149     1.0000 0.77838  0.71119  0.00619  Biso   1.000  C
  H68      1.0000 0.66642  0.56278  0.02968  Biso   1.000  H
  C150     1.0000 0.73122  0.64792  0.99601  Biso   1.000  C
  H69      1.0000 0.79928  0.74073  0.97671  Biso   1.000  H
  H70      1.0000 0.72052  0.63308  0.95940  Biso   1.000  H
  I21      1.0000 0.21427  0.89032  0.59270  Biso   1.000  I
  C151     1.0000 0.15482  0.88979  0.52339  Biso   1.000  C
  C152     1.0000 0.08641  0.87437  0.52628  Biso   1.000  C
  C153     1.0000 0.18332  0.90791  0.47249  Biso   1.000  C
  O31      1.0000 0.05681  0.86479  0.57751  Biso   1.000  O
  C154     1.0000 0.04680  0.87929  0.48080  Biso   1.000  C
  H71      1.0000 0.22982  0.91940  0.46960  Biso   1.000  H
  C155     1.0000 0.14351  0.90889  0.42620  Biso   1.000  C
  C156     1.0000 0.04470  0.78280  0.59709  Biso   1.000  C
  C157     1.0000 0.07431  0.89518  0.43039  Biso   1.000  C
  I22      1.0000 0.94254  0.87023  0.48764  Biso   1.000  I
  H72      1.0000 0.16312  0.91881  0.39159  Biso   1.000  H
  N31      1.0000 0.06491  0.71329  0.56912  Biso   1.000  N
  N32      1.0000 0.01290  0.78563  0.64408  Biso   1.000  N
  H73      1.0000 0.04680  0.89701  0.39879  Biso   1.000  H
  C158     1.0000 0.04990  0.63873  0.59489  Biso   1.000  C
  C159     1.0000 0.00160  0.70561  0.66399  Biso   1.000  C
  O32      1.0000 0.06901  0.56679  0.56704  Biso   1.000  O
  N33      1.0000 0.01820  0.62908  0.64209  Biso   1.000  N
  O33      1.0000 0.96810  0.70653  0.71147  Biso   1.000  O
  C160     1.0000 0.05391  0.48323  0.58932  Biso   1.000  C
  C161     1.0000 0.95860  0.62750  0.74022  Biso   1.000  C
  C162     1.0000 0.00200  0.43518  0.56680  Biso   1.000  C
  C163     1.0000 0.09521  0.44851  0.62930  Biso   1.000  C
  C164     1.0000 0.01160  0.58858  0.76681  Biso   1.000  C
  C165     1.0000 0.89379  0.59882  0.74669  Biso   1.000  C
  H74      1.0000 0.97440  0.46012  0.53939  Biso   1.000  H
  C166     1.0000 0.99080  0.35071  0.58480  Biso   1.000  C
  C167     1.0000 0.08221  0.36337  0.64591  Biso   1.000  C
  H75      1.0000 0.13081  0.48159  0.64449  Biso   1.000  H
  H76      1.0000 0.05571  0.61083  0.76318  Biso   1.000  H
  C168     1.0000 0.99820  0.51657  0.79861  Biso   1.000  C
  H77      1.0000 0.85789  0.62809  0.72910  Biso   1.000  H
  C169     1.0000 0.88209  0.52550  0.77971  Biso   1.000  C
  C170     1.0000 0.03050  0.31408  0.62470  Biso   1.000  C
  H78      1.0000 0.95540  0.31723  0.56940  Biso   1.000  H
  O34      1.0000 0.12641  0.32130  0.68268  Biso   1.000  O
  O35      1.0000 0.05101  0.47962  0.82959  Biso   1.000  O
  C171     1.0000 0.93469  0.48441  0.80630  Biso   1.000  C
  H79      1.0000 0.83778  0.50377  0.78391  Biso   1.000  H
  H80      1.0000 0.02240  0.25619  0.63740  Biso   1.000  H
  C172     1.0000 0.12801  0.34532  0.73521  Biso   1.000  C
  C173     1.0000 0.09161  0.42081  0.80561  Biso   1.000  C
  H81      1.0000 0.92709  0.43518  0.82931  Biso   1.000  H
  N34      1.0000 0.08351  0.40387  0.75329  Biso   1.000  N
  N35      1.0000 0.17482  0.30469  0.76302  Biso   1.000  N
  N36      1.0000 0.13691  0.38753  0.83961  Biso   1.000  N
  C174     1.0000 0.17572  0.32872  0.81510  Biso   1.000  C
  O36      1.0000 0.22382  0.28612  0.84401  Biso   1.000  O
  C175     1.0000 0.23492  0.31093  0.89772  Biso   1.000  C
  C176     1.0000 0.20422  0.26761  0.94059  Biso   1.000  C
  C177     1.0000 0.28478  0.37460  0.90790  Biso   1.000  C
  I23      1.0000 0.13746  0.16567  0.92312  Biso   1.000  I
  C178     1.0000 0.22162  0.28881  0.99381  Biso   1.000  C
  I24      1.0000 0.33258  0.43610  0.84319  Biso   1.000  I
  C179     1.0000 0.30048  0.39422  0.96242  Biso   1.000  C
  H82      1.0000 0.20072  0.25927  0.02329  Biso   1.000  H
  C180     1.0000 0.26878  0.35208  0.00399  Biso   1.000  C
  H83      1.0000 0.33358  0.43722  0.97032  Biso   1.000  H
  H84      1.0000 0.27948  0.36692  0.04060  Biso   1.000  H
  I25      1.0000 0.66742  0.93607  0.65683  Biso   1.000  I
  C181     1.0000 0.71522  0.87463  0.59208  Biso   1.000  C
  C182     1.0000 0.76508  0.81090  0.60230  Biso   1.000  C
  C183     1.0000 0.69952  0.89419  0.53760  Biso   1.000  C
  O37      1.0000 0.77618  0.78608  0.65601  Biso   1.000  O
  C184     1.0000 0.79578  0.76757  0.55939  Biso   1.000  C
  C185     1.0000 0.73122  0.85212  0.49599  Biso   1.000  C
  H85      1.0000 0.66642  0.93718  0.52970  Biso   1.000  H
  C186     1.0000 0.82428  0.82868  0.68488  Biso   1.000  C
  I26      1.0000 0.86254  0.66570  0.57690  Biso   1.000  I
  C187     1.0000 0.77838  0.78878  0.50621  Biso   1.000  C
  H86      1.0000 0.72052  0.86689  0.45938  Biso   1.000  H
  N37      1.0000 0.86309  0.88750  0.66041  Biso   1.000  N
  N38      1.0000 0.82518  0.80473  0.73700  Biso   1.000  N
  H87      1.0000 0.79928  0.75930  0.47669  Biso   1.000  H
  C188     1.0000 0.90839  0.92077  0.69441  Biso   1.000  C
  C189     1.0000 0.87199  0.84529  0.76481  Biso   1.000  C
  O38      1.0000 0.94899  0.97959  0.67039  Biso   1.000  O
  N39      1.0000 0.91649  0.90391  0.74669  Biso   1.000  N
  O39      1.0000 0.87359  0.82133  0.81730  Biso   1.000  O
  C190     1.0000 0.00180  0.01661  0.70141  Biso   1.000  C
  C191     1.0000 0.91779  0.86341  0.85411  Biso   1.000  C
  C192     1.0000 0.98840  0.08861  0.73321  Biso   1.000  C
  C193     1.0000 0.06531  0.98438  0.69372  Biso   1.000  C
  C194     1.0000 0.90479  0.94847  0.87072  Biso   1.000  C
  C195     1.0000 0.96950  0.81411  0.87528  Biso   1.000  C
  H88      1.0000 0.94429  0.11080  0.73680  Biso   1.000  H
  C196     1.0000 0.04140  0.12747  0.75980  Biso   1.000  C
  C197     1.0000 0.11791  0.02547  0.72031  Biso   1.000  C
  H89      1.0000 0.07291  0.93521  0.67071  Biso   1.000  H
  C198     1.0000 0.94609  0.98320  0.91070  Biso   1.000  C
  H90      1.0000 0.86919  0.98162  0.85549  Biso   1.000  H
  C199     1.0000 0.00920  0.85067  0.91518  Biso   1.000  C
  H91      1.0000 0.97760  0.75622  0.86262  Biso   1.000  H
  O40      1.0000 0.03190  0.20650  0.78855  Biso   1.000  O
  C200     1.0000 0.10621  0.09879  0.75329  Biso   1.000  C
  H92      1.0000 0.16222  0.00381  0.71611  Biso   1.000  H
  O41      1.0000 0.93099  0.06682  0.93294  Biso   1.000  O
  C201     1.0000 0.99800  0.93521  0.93318  Biso   1.000  C
  H93      1.0000 0.04460  0.81720  0.93062  Biso   1.000  H
  C202     1.0000 0.99840  0.20558  0.83599  Biso   1.000  C
  H94      1.0000 0.14211  0.12813  0.77092  Biso   1.000  H
  C203     1.0000 0.95010  0.13869  0.90509  Biso   1.000  C
  H95      1.0000 0.02560  0.96009  0.96058  Biso   1.000  H
  N40      1.0000 0.98710  0.28559  0.85590  Biso   1.000  N
  N41      1.0000 0.98180  0.12911  0.85789  Biso   1.000  N
  N42      1.0000 0.93509  0.21332  0.93090  Biso   1.000  N
  C204     1.0000 0.95530  0.28277  0.90289  Biso   1.000  C
  O42      1.0000 0.94319  0.36482  0.92251  Biso   1.000  O
  C205     1.0000 0.91359  0.37440  0.97370  Biso   1.000  C
  C206     1.0000 0.84518  0.38983  0.97659  Biso   1.000  C
  C207     1.0000 0.95320  0.37932  0.01922  Biso   1.000  C
  I27      1.0000 0.78573  0.39035  0.90728  Biso   1.000  I
  C208     1.0000 0.81668  0.40788  0.02748  Biso   1.000  C
  C209     1.0000 0.92569  0.39521  0.06959  Biso   1.000  C
  I28      1.0000 0.05746  0.37027  0.01238  Biso   1.000  I
  H96      1.0000 0.77018  0.41943  0.03042  Biso   1.000  H
  C210     1.0000 0.85649  0.40893  0.07378  Biso   1.000  C
  H97      1.0000 0.95320  0.39698  0.10118  Biso   1.000  H
  H98      1.0000 0.83688  0.41877  0.10839  Biso   1.000  H
  I29      1.0000 0.33258  0.06393  0.34317  Biso   1.000  I
  C211     1.0000 0.28478  0.12537  0.40792  Biso   1.000  C
  C212     1.0000 0.23492  0.18910  0.39770  Biso   1.000  C
  C213     1.0000 0.30048  0.10581  0.46240  Biso   1.000  C
  O43      1.0000 0.22382  0.21392  0.34399  Biso   1.000  O
  C214     1.0000 0.20422  0.23243  0.44061  Biso   1.000  C
  C215     1.0000 0.26878  0.14788  0.50401  Biso   1.000  C
  H99      1.0000 0.33358  0.06282  0.47030  Biso   1.000  H
  C216     1.0000 0.17572  0.17132  0.31512  Biso   1.000  C
  I30      1.0000 0.13746  0.33430  0.42310  Biso   1.000  I
  C217     1.0000 0.22162  0.21122  0.49379  Biso   1.000  C
  H100     1.0000 0.27948  0.13311  0.54062  Biso   1.000  H
  N43      1.0000 0.13691  0.11250  0.33959  Biso   1.000  N
  N44      1.0000 0.17482  0.19527  0.26300  Biso   1.000  N
  H101     1.0000 0.20072  0.24070  0.52331  Biso   1.000  H
  C218     1.0000 0.09161  0.07923  0.30559  Biso   1.000  C
  C219     1.0000 0.12801  0.15471  0.23519  Biso   1.000  C
  O44      1.0000 0.05101  0.02041  0.32961  Biso   1.000  O
  N45      1.0000 0.08351  0.09609  0.25331  Biso   1.000  N
  O45      1.0000 0.12641  0.17867  0.18270  Biso   1.000  O
  C220     1.0000 0.99820  0.98339  0.29859  Biso   1.000  C
  C221     1.0000 0.08221  0.13659  0.14589  Biso   1.000  C
  C222     1.0000 0.01160  0.91139  0.26679  Biso   1.000  C
  C223     1.0000 0.93469  0.01562  0.30628  Biso   1.000  C
  C224     1.0000 0.09521  0.05153  0.12928  Biso   1.000  C
  C225     1.0000 0.03050  0.18589  0.12472  Biso   1.000  C
  C226     1.0000 0.95860  0.87253  0.24020  Biso   1.000  C
  H102     1.0000 0.05571  0.88920  0.26320  Biso   1.000  H
  C227     1.0000 0.88209  0.97453  0.27969  Biso   1.000  C
  H103     1.0000 0.92709  0.06479  0.32929  Biso   1.000  H
  C228     1.0000 0.05391  0.01680  0.08930  Biso   1.000  C
  H104     1.0000 0.13081  0.01838  0.14451  Biso   1.000  H
  C229     1.0000 0.99080  0.14933  0.08482  Biso   1.000  C
  H105     1.0000 0.02240  0.24378  0.13738  Biso   1.000  H
  O46      1.0000 0.96810  0.79350  0.21145  Biso   1.000  O
  C230     1.0000 0.89379  0.90121  0.24671  Biso   1.000  C
  H106     1.0000 0.83778  0.99619  0.28389  Biso   1.000  H
  O47      1.0000 0.06901  0.93318  0.06706  Biso   1.000  O
  C231     1.0000 0.00200  0.06479  0.06682  Biso   1.000  C
  H107     1.0000 0.95540  0.18280  0.06938  Biso   1.000  H
  C232     1.0000 0.00160  0.79442  0.16401  Biso   1.000  C
  H108     1.0000 0.85789  0.87187  0.22908  Biso   1.000  H
  C233     1.0000 0.04990  0.86131  0.09491  Biso   1.000  C
  H109     1.0000 0.97440  0.03991  0.03942  Biso   1.000  H
  N46      1.0000 0.01290  0.71441  0.14410  Biso   1.000  N
  N47      1.0000 0.01820  0.87089  0.14211  Biso   1.000  N
  N48      1.0000 0.06491  0.78668  0.06910  Biso   1.000  N
  C234     1.0000 0.04470  0.71723  0.09711  Biso   1.000  C
  O48      1.0000 0.05681  0.63518  0.07749  Biso   1.000  O
  C235     1.0000 0.08641  0.62560  0.02630  Biso   1.000  C
  C236     1.0000 0.15482  0.61017  0.02341  Biso   1.000  C
  C237     1.0000 0.04680  0.62068  0.98078  Biso   1.000  C
  I31      1.0000 0.21427  0.60965  0.09272  Biso   1.000  I
  C238     1.0000 0.18332  0.59212  0.97252  Biso   1.000  C
  I32      1.0000 0.94254  0.62973  0.98762  Biso   1.000  I
  C239     1.0000 0.07431  0.60479  0.93041  Biso   1.000  C
  H110     1.0000 0.22982  0.58057  0.96958  Biso   1.000  H
  C240     1.0000 0.14351  0.59107  0.92622  Biso   1.000  C
  H111     1.0000 0.04680  0.60302  0.89882  Biso   1.000  H
  H112     1.0000 0.16312  0.58123  0.89161  Biso   1.000  H
