data_image0
_cell_length_a       16.5
_cell_length_b       17.634
_cell_length_c       22.614
_cell_angle_alpha    90
_cell_angle_beta     90
_cell_angle_gamma    90

_symmetry_space_group_name_H-M    "P 1"
_symmetry_int_tables_number       1

loop_
  _symmetry_equiv_pos_as_xyz
  'x, y, z'

loop_
  _atom_site_label
  _atom_site_occupancy
  _atom_site_fract_x
  _atom_site_fract_y
  _atom_site_fract_z
  _atom_site_thermal_displace_type
  _atom_site_B_iso_or_equiv
  _atom_site_type_symbol
  C1       1.0000 0.75188  0.21067  0.23061  Biso   1.000  C
  C2       1.0000 0.67273  0.16718  0.23720  Biso   1.000  C
  C3       1.0000 0.82042  0.16281  0.20341  Biso   1.000  C
  H1       1.0000 0.76897  0.22871  0.26921  Biso   1.000  H
  H2       1.0000 0.74261  0.25479  0.20580  Biso   1.000  H
  C4       1.0000 0.65261  0.12260  0.18108  Biso   1.000  C
  H3       1.0000 0.62921  0.20251  0.24569  Biso   1.000  H
  H4       1.0000 0.67709  0.13241  0.27032  Biso   1.000  H
  C5       1.0000 0.79891  0.07928  0.20041  Biso   1.000  C
  H5       1.0000 0.83188  0.18113  0.16379  Biso   1.000  H
  H6       1.0000 0.86921  0.16888  0.22689  Biso   1.000  H
  N1       1.0000 0.64358  0.17109  0.12970  Biso   1.000  N
  N2       1.0000 0.58497  0.07060  0.19010  Biso   1.000  N
  C6       1.0000 0.72291  0.06748  0.16269  Biso   1.000  C
  H7       1.0000 0.78952  0.06011  0.23998  Biso   1.000  H
  H8       1.0000 0.84382  0.05132  0.18338  Biso   1.000  H
  C7       1.0000 0.59218  0.23738  0.12510  Biso   1.000  C
  C8       1.0000 0.69127  0.14841  0.08309  Biso   1.000  C
  C9       1.0000 0.50612  0.09158  0.21248  Biso   1.000  C
  C10      1.0000 0.60842  0.99609  0.18718  Biso   1.000  C
  N3       1.0000 0.73691  0.08761  0.10087  Biso   1.000  N
  N4       1.0000 0.68721  0.99240  0.17056  Biso   1.000  N
  N5       1.0000 0.50958  0.22201  0.10900  Biso   1.000  N
  H9       1.0000 0.59248  0.26358  0.16282  Biso   1.000  H
  H10      1.0000 0.61527  0.27141  0.09591  Biso   1.000  H
  O1       1.0000 0.69442  0.17971  0.03485  Biso   1.000  O
  N6       1.0000 0.45109  0.11949  0.16782  Biso   1.000  N
  H11      1.0000 0.48188  0.04769  0.23141  Biso   1.000  H
  H12      1.0000 0.51291  0.13049  0.24250  Biso   1.000  H
  O2       1.0000 0.56479  0.94148  0.19895  Biso   1.000  O
  C11      1.0000 0.79982  0.05711  0.06310  Biso   1.000  C
  C12      1.0000 0.72897  0.92129  0.16282  Biso   1.000  C
  C13      1.0000 0.44818  0.19859  0.15000  Biso   1.000  C
  C14      1.0000 0.48042  0.23222  0.05280  Biso   1.000  C
  C15      1.0000 0.38073  0.08240  0.15428  Biso   1.000  C
  H13      1.0000 0.84739  0.04661  0.08689  Biso   1.000  H
  H14      1.0000 0.81448  0.09510  0.03401  Biso   1.000  H
  N7       1.0000 0.77600  0.98820  0.03259  Biso   1.000  N
  H15      1.0000 0.70400  0.88380  0.18829  Biso   1.000  H
  H16      1.0000 0.78473  0.92758  0.17569  Biso   1.000  H
  N8       1.0000 0.72970  0.89180  0.10290  Biso   1.000  N
  C16      1.0000 0.36909  0.20268  0.11338  Biso   1.000  C
  H17      1.0000 0.44600  0.23228  0.18440  Biso   1.000  H
  N9       1.0000 0.39958  0.21351  0.05333  Biso   1.000  N
  O3       1.0000 0.51873  0.25559  0.01044  Biso   1.000  O
  N10      1.0000 0.33103  0.13088  0.12408  Biso   1.000  N
  O4       1.0000 0.36388  0.01713  0.16905  Biso   1.000  O
  C17      1.0000 0.76661  0.98571  0.97280  Biso   1.000  C
  C18      1.0000 0.78679  0.91352  0.05780  Biso   1.000  C
  C19      1.0000 0.67503  0.83821  0.08349  Biso   1.000  C
  H18      1.0000 0.33479  0.24509  0.12590  Biso   1.000  H
  C20      1.0000 0.34630  0.23857  0.00570  Biso   1.000  C
  C21      1.0000 0.24988  0.11121  0.10511  Biso   1.000  C
  N11      1.0000 0.75582  0.91187  0.95622  Biso   1.000  N
  O5       1.0000 0.76861  0.04049  0.93889  Biso   1.000  O
  H19      1.0000 0.84279  0.90581  0.07102  Biso   1.000  H
  C22      1.0000 0.76552  0.85987  0.00531  Biso   1.000  C
  N12      1.0000 0.69182  0.82369  0.02529  Biso   1.000  N
  O6       1.0000 0.62303  0.80832  0.11325  Biso   1.000  O
  H20      1.0000 0.30448  0.27112  0.02211  Biso   1.000  H
  H21      1.0000 0.37752  0.26829  0.97771  Biso   1.000  H
  N13      1.0000 0.30818  0.17631  0.97471  Biso   1.000  N
  H22      1.0000 0.21479  0.15470  0.11121  Biso   1.000  H
  H23      1.0000 0.23000  0.07038  0.12979  Biso   1.000  H
  N14      1.0000 0.24418  0.08813  0.04378  Biso   1.000  N
  C23      1.0000 0.75012  0.88879  0.89489  Biso   1.000  C
  H24      1.0000 0.80861  0.82290  0.99779  Biso   1.000  H
  C24      1.0000 0.65370  0.76143  0.99430  Biso   1.000  C
  C25      1.0000 0.23448  0.14013  0.99469  Biso   1.000  C
  C26      1.0000 0.32497  0.16179  0.91651  Biso   1.000  C
  C27      1.0000 0.23339  0.01429  0.02720  Biso   1.000  C
  H25      1.0000 0.78521  0.84530  0.88879  Biso   1.000  H
  H26      1.0000 0.77000  0.92962  0.87021  Biso   1.000  H
  N15      1.0000 0.66903  0.86912  0.87592  Biso   1.000  N
  H27      1.0000 0.69552  0.72888  0.97789  Biso   1.000  H
  N16      1.0000 0.60042  0.78649  0.94667  Biso   1.000  N
  H28      1.0000 0.62248  0.73171  0.02229  Biso   1.000  H
  H29      1.0000 0.19139  0.17710  0.00221  Biso   1.000  H
  C28      1.0000 0.21321  0.08648  0.94220  Biso   1.000  C
  N17      1.0000 0.27030  0.10820  0.89710  Biso   1.000  N
  O7       1.0000 0.37703  0.19168  0.88675  Biso   1.000  O
  O8       1.0000 0.23139  0.95951  0.06111  Biso   1.000  O
  N18      1.0000 0.22400  0.01180  0.96741  Biso   1.000  N
  C29      1.0000 0.61927  0.91760  0.84572  Biso   1.000  C
  C30      1.0000 0.63091  0.79732  0.88662  Biso   1.000  C
  C31      1.0000 0.51958  0.76778  0.94720  Biso   1.000  C
  H30      1.0000 0.15721  0.09419  0.92898  Biso   1.000  H
  C32      1.0000 0.27103  0.07871  0.83718  Biso   1.000  C
  C33      1.0000 0.20018  0.94289  0.93690  Biso   1.000  C
  N19      1.0000 0.54891  0.88051  0.83218  Biso   1.000  N
  O9       1.0000 0.63612  0.98287  0.83095  Biso   1.000  O
  C34      1.0000 0.55182  0.80141  0.85000  Biso   1.000  C
  H31      1.0000 0.66521  0.75491  0.87410  Biso   1.000  H
  N20      1.0000 0.49042  0.77799  0.89100  Biso   1.000  N
  O10      1.0000 0.48127  0.74441  0.98956  Biso   1.000  O
  H32      1.0000 0.29600  0.11620  0.81171  Biso   1.000  H
  H33      1.0000 0.21527  0.07242  0.82431  Biso   1.000  H
  N21      1.0000 0.31279  0.00760  0.82944  Biso   1.000  N
  H34      1.0000 0.15261  0.95339  0.91311  Biso   1.000  H
  H35      1.0000 0.18552  0.90490  0.96599  Biso   1.000  H
  N22      1.0000 0.26309  0.91239  0.89913  Biso   1.000  N
  C35      1.0000 0.49388  0.90842  0.78752  Biso   1.000  C
  H36      1.0000 0.55400  0.76772  0.81560  Biso   1.000  H
  C36      1.0000 0.40782  0.76262  0.87490  Biso   1.000  C
  C37      1.0000 0.27709  0.93252  0.83731  Biso   1.000  C
  C38      1.0000 0.39158  0.00391  0.81282  Biso   1.000  C
  C39      1.0000 0.30873  0.85159  0.91691  Biso   1.000  C
  N23      1.0000 0.41503  0.92940  0.80990  Biso   1.000  N
  H37      1.0000 0.51812  0.95231  0.76859  Biso   1.000  H
  H38      1.0000 0.48709  0.86951  0.75750  Biso   1.000  H
  N24      1.0000 0.35642  0.82891  0.87030  Biso   1.000  N
  H39      1.0000 0.40752  0.73642  0.83718  Biso   1.000  H
  H40      1.0000 0.38473  0.72859  0.90409  Biso   1.000  H
  C40      1.0000 0.34739  0.87740  0.81892  Biso   1.000  C
  C41      1.0000 0.20109  0.92072  0.79959  Biso   1.000  C
  O11      1.0000 0.43521  0.05852  0.80105  Biso   1.000  O
  O12      1.0000 0.30558  0.82029  0.96515  Biso   1.000  O
  C42      1.0000 0.32727  0.83282  0.76280  Biso   1.000  C
  H41      1.0000 0.21048  0.93989  0.76002  Biso   1.000  H
  H42      1.0000 0.15618  0.94868  0.81662  Biso   1.000  H
  C43      1.0000 0.17958  0.83719  0.79659  Biso   1.000  C
  H43      1.0000 0.37079  0.79749  0.75431  Biso   1.000  H
  H44      1.0000 0.32291  0.86759  0.72968  Biso   1.000  H
  C44      1.0000 0.24812  0.78933  0.76939  Biso   1.000  C
  H45      1.0000 0.16812  0.81887  0.83621  Biso   1.000  H
  H46      1.0000 0.13079  0.83112  0.77311  Biso   1.000  H
  H47      1.0000 0.23097  0.77129  0.73079  Biso   1.000  H
  H48      1.0000 0.25739  0.74521  0.79420  Biso   1.000  H
  O13      1.0000 0.63612  0.51713  0.33095  Biso   1.000  O
  C45      1.0000 0.61927  0.58240  0.34572  Biso   1.000  C
  N25      1.0000 0.54891  0.61949  0.33218  Biso   1.000  N
  N26      1.0000 0.66903  0.63088  0.37592  Biso   1.000  N
  C46      1.0000 0.49388  0.59158  0.28752  Biso   1.000  C
  C47      1.0000 0.55182  0.69859  0.35000  Biso   1.000  C
  C48      1.0000 0.63091  0.70268  0.38662  Biso   1.000  C
  C49      1.0000 0.75012  0.61121  0.39489  Biso   1.000  C
  N27      1.0000 0.41503  0.57060  0.30990  Biso   1.000  N
  H49      1.0000 0.51812  0.54769  0.26859  Biso   1.000  H
  H50      1.0000 0.48709  0.63049  0.25750  Biso   1.000  H
  N28      1.0000 0.49042  0.72201  0.39100  Biso   1.000  N
  H51      1.0000 0.55400  0.73228  0.31560  Biso   1.000  H
  H52      1.0000 0.66521  0.74509  0.37410  Biso   1.000  H
  N29      1.0000 0.60042  0.71351  0.44667  Biso   1.000  N
  H53      1.0000 0.78521  0.65470  0.38879  Biso   1.000  H
  H54      1.0000 0.77000  0.57038  0.37021  Biso   1.000  H
  N30      1.0000 0.75582  0.58813  0.45622  Biso   1.000  N
  C50      1.0000 0.39158  0.49609  0.31282  Biso   1.000  C
  C51      1.0000 0.34739  0.62260  0.31892  Biso   1.000  C
  C52      1.0000 0.40782  0.73738  0.37490  Biso   1.000  C
  C53      1.0000 0.51958  0.73222  0.44720  Biso   1.000  C
  C54      1.0000 0.65370  0.73857  0.49430  Biso   1.000  C
  C55      1.0000 0.76552  0.64013  0.50531  Biso   1.000  C
  C56      1.0000 0.76661  0.51429  0.47280  Biso   1.000  C
  N31      1.0000 0.31279  0.49240  0.32944  Biso   1.000  N
  O14      1.0000 0.43521  0.44148  0.30105  Biso   1.000  O
  C57      1.0000 0.27709  0.56748  0.33731  Biso   1.000  C
  C58      1.0000 0.32727  0.66718  0.26280  Biso   1.000  C
  N32      1.0000 0.35642  0.67109  0.37030  Biso   1.000  N
  H55      1.0000 0.40752  0.76358  0.33718  Biso   1.000  H
  H56      1.0000 0.38473  0.77141  0.40409  Biso   1.000  H
  O15      1.0000 0.48127  0.75559  0.48956  Biso   1.000  O
  H57      1.0000 0.69552  0.77112  0.47789  Biso   1.000  H
  H58      1.0000 0.62248  0.76829  0.52229  Biso   1.000  H
  N33      1.0000 0.69182  0.67631  0.52529  Biso   1.000  N
  C59      1.0000 0.78679  0.58648  0.55780  Biso   1.000  C
  H59      1.0000 0.80861  0.67710  0.49779  Biso   1.000  H
  N34      1.0000 0.77600  0.51180  0.53259  Biso   1.000  N
  O16      1.0000 0.76861  0.45951  0.43889  Biso   1.000  O
  C60      1.0000 0.27103  0.42129  0.33718  Biso   1.000  C
  C61      1.0000 0.20109  0.57928  0.29959  Biso   1.000  C
  N35      1.0000 0.26309  0.58761  0.39913  Biso   1.000  N
  H60      1.0000 0.37079  0.70251  0.25431  Biso   1.000  H
  H61      1.0000 0.32291  0.63241  0.22968  Biso   1.000  H
  C62      1.0000 0.24812  0.71067  0.26939  Biso   1.000  C
  C63      1.0000 0.30873  0.64841  0.41691  Biso   1.000  C
  C64      1.0000 0.67503  0.66179  0.58349  Biso   1.000  C
  N36      1.0000 0.72970  0.60820  0.60290  Biso   1.000  N
  H62      1.0000 0.84279  0.59419  0.57102  Biso   1.000  H
  C65      1.0000 0.79982  0.44289  0.56310  Biso   1.000  C
  H63      1.0000 0.29600  0.38380  0.31171  Biso   1.000  H
  H64      1.0000 0.21527  0.42758  0.32431  Biso   1.000  H
  N37      1.0000 0.27030  0.39180  0.39710  Biso   1.000  N
  H65      1.0000 0.21048  0.56011  0.26002  Biso   1.000  H
  H66      1.0000 0.15618  0.55132  0.31662  Biso   1.000  H
  C66      1.0000 0.17958  0.66281  0.29659  Biso   1.000  C
  C67      1.0000 0.20018  0.55711  0.43690  Biso   1.000  C
  H67      1.0000 0.23097  0.72871  0.23079  Biso   1.000  H
  H68      1.0000 0.25739  0.75479  0.29420  Biso   1.000  H
  O17      1.0000 0.30558  0.67971  0.46515  Biso   1.000  O
  O18      1.0000 0.62303  0.69168  0.61325  Biso   1.000  O
  C68      1.0000 0.72897  0.57871  0.66282  Biso   1.000  C
  N38      1.0000 0.73691  0.41239  0.60087  Biso   1.000  N
  H69      1.0000 0.84739  0.45339  0.58689  Biso   1.000  H
  H70      1.0000 0.81448  0.40490  0.53401  Biso   1.000  H
  C69      1.0000 0.21321  0.41352  0.44220  Biso   1.000  C
  C70      1.0000 0.32497  0.33821  0.41651  Biso   1.000  C
  H71      1.0000 0.16812  0.68113  0.33621  Biso   1.000  H
  H72      1.0000 0.13079  0.66888  0.27311  Biso   1.000  H
  N39      1.0000 0.22400  0.48820  0.46741  Biso   1.000  N
  H73      1.0000 0.15261  0.54661  0.41311  Biso   1.000  H
  H74      1.0000 0.18552  0.59510  0.46599  Biso   1.000  H
  N40      1.0000 0.68721  0.50760  0.67056  Biso   1.000  N
  H75      1.0000 0.70400  0.61620  0.68829  Biso   1.000  H
  H76      1.0000 0.78473  0.57242  0.67569  Biso   1.000  H
  C71      1.0000 0.69127  0.35159  0.58309  Biso   1.000  C
  C72      1.0000 0.72291  0.43252  0.66269  Biso   1.000  C
  H77      1.0000 0.15721  0.40581  0.42898  Biso   1.000  H
  C73      1.0000 0.23448  0.35987  0.49469  Biso   1.000  C
  N41      1.0000 0.30818  0.32369  0.47471  Biso   1.000  N
  O19      1.0000 0.37703  0.30832  0.38675  Biso   1.000  O
  C74      1.0000 0.23339  0.48571  0.52720  Biso   1.000  C
  C75      1.0000 0.60842  0.50391  0.68718  Biso   1.000  C
  N42      1.0000 0.64358  0.32891  0.62970  Biso   1.000  N
  O20      1.0000 0.69442  0.32029  0.53485  Biso   1.000  O
  C76      1.0000 0.65261  0.37740  0.68108  Biso   1.000  C
  C77      1.0000 0.79891  0.42072  0.70041  Biso   1.000  C
  H78      1.0000 0.19139  0.32290  0.50221  Biso   1.000  H
  N43      1.0000 0.24418  0.41187  0.54378  Biso   1.000  N
  C78      1.0000 0.34630  0.26143  0.50570  Biso   1.000  C
  O21      1.0000 0.23139  0.54049  0.56111  Biso   1.000  O
  N44      1.0000 0.58497  0.42940  0.69010  Biso   1.000  N
  O22      1.0000 0.56479  0.55852  0.69895  Biso   1.000  O
  C79      1.0000 0.59218  0.26262  0.62510  Biso   1.000  C
  C80      1.0000 0.67273  0.33282  0.73720  Biso   1.000  C
  H79      1.0000 0.78952  0.43989  0.73998  Biso   1.000  H
  H80      1.0000 0.84382  0.44868  0.68338  Biso   1.000  H
  C81      1.0000 0.82042  0.33719  0.70341  Biso   1.000  C
  C82      1.0000 0.24988  0.38879  0.60511  Biso   1.000  C
  H81      1.0000 0.30448  0.22888  0.52211  Biso   1.000  H
  H82      1.0000 0.37752  0.23171  0.47771  Biso   1.000  H
  N45      1.0000 0.39958  0.28649  0.55333  Biso   1.000  N
  C83      1.0000 0.50612  0.40842  0.71248  Biso   1.000  C
  N46      1.0000 0.50958  0.27799  0.60900  Biso   1.000  N
  H83      1.0000 0.59248  0.23642  0.66282  Biso   1.000  H
  H84      1.0000 0.61527  0.22859  0.59591  Biso   1.000  H
  H85      1.0000 0.62921  0.29749  0.74569  Biso   1.000  H
  H86      1.0000 0.67709  0.36759  0.77032  Biso   1.000  H
  C84      1.0000 0.75188  0.28933  0.73061  Biso   1.000  C
  H87      1.0000 0.83188  0.31887  0.66379  Biso   1.000  H
  H88      1.0000 0.86921  0.33112  0.72689  Biso   1.000  H
  H89      1.0000 0.21479  0.34530  0.61121  Biso   1.000  H
  H90      1.0000 0.23000  0.42962  0.62979  Biso   1.000  H
  N47      1.0000 0.33103  0.36912  0.62408  Biso   1.000  N
  C85      1.0000 0.36909  0.29732  0.61338  Biso   1.000  C
  C86      1.0000 0.48042  0.26778  0.55280  Biso   1.000  C
  N48      1.0000 0.45109  0.38051  0.66782  Biso   1.000  N
  H91      1.0000 0.48188  0.45231  0.73141  Biso   1.000  H
  H92      1.0000 0.51291  0.36951  0.74250  Biso   1.000  H
  C87      1.0000 0.44818  0.30141  0.65000  Biso   1.000  C
  H93      1.0000 0.76897  0.27129  0.76921  Biso   1.000  H
  H94      1.0000 0.74261  0.24521  0.70580  Biso   1.000  H
  C88      1.0000 0.38073  0.41760  0.65428  Biso   1.000  C
  H95      1.0000 0.33479  0.25491  0.62590  Biso   1.000  H
  O23      1.0000 0.51873  0.24441  0.51044  Biso   1.000  O
  H96      1.0000 0.44600  0.26772  0.68440  Biso   1.000  H
  O24      1.0000 0.36388  0.48287  0.66905  Biso   1.000  O
  C89      1.0000 0.77103  0.42129  0.16282  Biso   1.000  C
  N49      1.0000 0.77030  0.39180  0.10290  Biso   1.000  N
  H97      1.0000 0.79600  0.38380  0.18829  Biso   1.000  H
  H98      1.0000 0.71527  0.42758  0.17569  Biso   1.000  H
  N50      1.0000 0.81279  0.49240  0.17056  Biso   1.000  N
  C90      1.0000 0.71321  0.41352  0.05780  Biso   1.000  C
  C91      1.0000 0.82497  0.33821  0.08349  Biso   1.000  C
  C92      1.0000 0.77709  0.56748  0.16269  Biso   1.000  C
  C93      1.0000 0.89158  0.49609  0.18718  Biso   1.000  C
  H99      1.0000 0.65721  0.40581  0.07102  Biso   1.000  H
  C94      1.0000 0.73448  0.35987  0.00531  Biso   1.000  C
  N51      1.0000 0.72400  0.48820  0.03259  Biso   1.000  N
  N52      1.0000 0.80818  0.32369  0.02529  Biso   1.000  N
  O25      1.0000 0.87697  0.30832  0.11325  Biso   1.000  O
  N53      1.0000 0.76309  0.58761  0.10087  Biso   1.000  N
  C95      1.0000 0.84739  0.62260  0.18108  Biso   1.000  C
  C96      1.0000 0.70109  0.57928  0.20041  Biso   1.000  C
  N54      1.0000 0.91503  0.57060  0.19010  Biso   1.000  N
  O26      1.0000 0.93521  0.44148  0.19895  Biso   1.000  O
  H100     1.0000 0.69139  0.32290  0.99779  Biso   1.000  H
  N55      1.0000 0.74418  0.41187  0.95622  Biso   1.000  N
  C97      1.0000 0.70018  0.55711  0.06310  Biso   1.000  C
  C98      1.0000 0.73339  0.48571  0.97280  Biso   1.000  C
  C99      1.0000 0.84630  0.26143  0.99430  Biso   1.000  C
  C100     1.0000 0.80873  0.64841  0.08309  Biso   1.000  C
  N56      1.0000 0.85642  0.67109  0.12970  Biso   1.000  N
  C101     1.0000 0.82727  0.66718  0.23720  Biso   1.000  C
  H101     1.0000 0.71048  0.56011  0.23998  Biso   1.000  H
  H102     1.0000 0.65618  0.55132  0.18338  Biso   1.000  H
  C102     1.0000 0.67958  0.66281  0.20341  Biso   1.000  C
  C103     1.0000 0.99388  0.59158  0.21248  Biso   1.000  C
  C104     1.0000 0.74988  0.38879  0.89489  Biso   1.000  C
  H103     1.0000 0.65261  0.54661  0.08689  Biso   1.000  H
  H104     1.0000 0.68552  0.59510  0.03401  Biso   1.000  H
  O27      1.0000 0.73139  0.54049  0.93889  Biso   1.000  O
  H105     1.0000 0.87752  0.23171  0.02229  Biso   1.000  H
  H106     1.0000 0.80448  0.22888  0.97789  Biso   1.000  H
  N57      1.0000 0.89958  0.28649  0.94667  Biso   1.000  N
  O28      1.0000 0.80558  0.67971  0.03485  Biso   1.000  O
  C105     1.0000 0.90782  0.73738  0.12510  Biso   1.000  C
  H107     1.0000 0.87079  0.70251  0.24569  Biso   1.000  H
  H108     1.0000 0.82291  0.63241  0.27032  Biso   1.000  H
  C106     1.0000 0.74812  0.71067  0.23061  Biso   1.000  C
  H109     1.0000 0.66812  0.68113  0.16379  Biso   1.000  H
  H110     1.0000 0.63079  0.66888  0.22689  Biso   1.000  H
  H111     1.0000 0.98709  0.63049  0.24250  Biso   1.000  H
  H112     1.0000 0.01812  0.54769  0.23141  Biso   1.000  H
  N58      1.0000 0.04891  0.61949  0.16782  Biso   1.000  N
  H113     1.0000 0.71479  0.34530  0.88879  Biso   1.000  H
  H114     1.0000 0.73000  0.42962  0.87021  Biso   1.000  H
  N59      1.0000 0.83097  0.36912  0.87592  Biso   1.000  N
  C107     1.0000 0.86909  0.29732  0.88662  Biso   1.000  C
  C108     1.0000 0.98042  0.26778  0.94720  Biso   1.000  C
  H115     1.0000 0.90752  0.76358  0.16282  Biso   1.000  H
  H116     1.0000 0.88473  0.77141  0.09591  Biso   1.000  H
  N60      1.0000 0.99042  0.72201  0.10900  Biso   1.000  N
  H117     1.0000 0.73103  0.72871  0.26921  Biso   1.000  H
  H118     1.0000 0.75739  0.75479  0.20580  Biso   1.000  H
  C109     1.0000 0.05182  0.69859  0.15000  Biso   1.000  C
  C110     1.0000 0.11927  0.58240  0.15428  Biso   1.000  C
  C111     1.0000 0.88073  0.41760  0.84572  Biso   1.000  C
  H119     1.0000 0.83479  0.25491  0.87410  Biso   1.000  H
  C112     1.0000 0.94818  0.30141  0.85000  Biso   1.000  C
  N61      1.0000 0.00958  0.27799  0.89100  Biso   1.000  N
  O29      1.0000 0.01873  0.24441  0.98956  Biso   1.000  O
  C113     1.0000 0.01958  0.73222  0.05280  Biso   1.000  C
  C114     1.0000 0.13091  0.70268  0.11338  Biso   1.000  C
  H120     1.0000 0.05400  0.73228  0.18440  Biso   1.000  H
  N62      1.0000 0.16897  0.63088  0.12408  Biso   1.000  N
  O30      1.0000 0.13612  0.51713  0.16905  Biso   1.000  O
  N63      1.0000 0.95109  0.38051  0.83218  Biso   1.000  N
  O31      1.0000 0.86388  0.48287  0.83095  Biso   1.000  O
  H121     1.0000 0.94600  0.26772  0.81560  Biso   1.000  H
  C115     1.0000 0.09218  0.26262  0.87490  Biso   1.000  C
  O32      1.0000 0.98127  0.75559  0.01044  Biso   1.000  O
  N64      1.0000 0.10042  0.71351  0.05333  Biso   1.000  N
  H122     1.0000 0.16521  0.74509  0.12590  Biso   1.000  H
  C116     1.0000 0.25012  0.61121  0.10511  Biso   1.000  C
  C117     1.0000 0.00612  0.40842  0.78752  Biso   1.000  C
  H123     1.0000 0.09248  0.23642  0.83718  Biso   1.000  H
  H124     1.0000 0.11527  0.22859  0.90409  Biso   1.000  H
  N65      1.0000 0.14358  0.32891  0.87030  Biso   1.000  N
  C118     1.0000 0.15370  0.73857  0.00570  Biso   1.000  C
  H125     1.0000 0.28521  0.65470  0.11121  Biso   1.000  H
  H126     1.0000 0.27000  0.57038  0.12979  Biso   1.000  H
  N66      1.0000 0.25582  0.58813  0.04378  Biso   1.000  N
  H127     1.0000 0.98188  0.45231  0.76859  Biso   1.000  H
  H128     1.0000 0.01291  0.36951  0.75750  Biso   1.000  H
  N67      1.0000 0.08497  0.42940  0.80990  Biso   1.000  N
  C119     1.0000 0.19127  0.35159  0.91691  Biso   1.000  C
  C120     1.0000 0.15261  0.37740  0.81892  Biso   1.000  C
  H129     1.0000 0.12248  0.76829  0.97771  Biso   1.000  H
  N68      1.0000 0.19182  0.67631  0.97471  Biso   1.000  N
  H130     1.0000 0.19552  0.77112  0.02211  Biso   1.000  H
  C121     1.0000 0.26552  0.64013  0.99469  Biso   1.000  C
  C122     1.0000 0.26661  0.51429  0.02720  Biso   1.000  C
  C123     1.0000 0.10842  0.50391  0.81282  Biso   1.000  C
  N69      1.0000 0.23691  0.41239  0.89913  Biso   1.000  N
  O33      1.0000 0.19442  0.32029  0.96515  Biso   1.000  O
  C124     1.0000 0.22291  0.43252  0.83731  Biso   1.000  C
  C125     1.0000 0.17273  0.33282  0.76280  Biso   1.000  C
  C126     1.0000 0.17503  0.66179  0.91651  Biso   1.000  C
  C127     1.0000 0.28679  0.58648  0.94220  Biso   1.000  C
  H131     1.0000 0.30861  0.67710  0.00221  Biso   1.000  H
  N70      1.0000 0.27600  0.51180  0.96741  Biso   1.000  N
  O34      1.0000 0.26861  0.45951  0.06111  Biso   1.000  O
  N71      1.0000 0.18721  0.50760  0.82944  Biso   1.000  N
  O35      1.0000 0.06479  0.55852  0.80105  Biso   1.000  O
  C128     1.0000 0.29982  0.44289  0.93690  Biso   1.000  C
  C129     1.0000 0.29891  0.42072  0.79959  Biso   1.000  C
  H132     1.0000 0.12921  0.29749  0.75431  Biso   1.000  H
  H133     1.0000 0.17709  0.36759  0.72968  Biso   1.000  H
  C130     1.0000 0.25188  0.28933  0.76939  Biso   1.000  C
  N72      1.0000 0.22970  0.60820  0.89710  Biso   1.000  N
  O36      1.0000 0.12303  0.69168  0.88675  Biso   1.000  O
  H134     1.0000 0.34279  0.59419  0.92898  Biso   1.000  H
  C131     1.0000 0.22903  0.57871  0.83718  Biso   1.000  C
  H135     1.0000 0.34739  0.45339  0.91311  Biso   1.000  H
  H136     1.0000 0.31448  0.40490  0.96599  Biso   1.000  H
  H137     1.0000 0.28952  0.43989  0.76002  Biso   1.000  H
  H138     1.0000 0.34382  0.44868  0.81662  Biso   1.000  H
  C132     1.0000 0.32042  0.33719  0.79659  Biso   1.000  C
  H139     1.0000 0.26903  0.27129  0.73079  Biso   1.000  H
  H140     1.0000 0.24261  0.24521  0.79420  Biso   1.000  H
  H141     1.0000 0.20400  0.61620  0.81171  Biso   1.000  H
  H142     1.0000 0.28473  0.57242  0.82431  Biso   1.000  H
  H143     1.0000 0.33188  0.31887  0.83621  Biso   1.000  H
  H144     1.0000 0.36921  0.33112  0.77311  Biso   1.000  H
  C133     1.0000 0.74988  0.11121  0.39489  Biso   1.000  C
  H145     1.0000 0.71479  0.15470  0.38879  Biso   1.000  H
  H146     1.0000 0.73000  0.07038  0.37021  Biso   1.000  H
  N73      1.0000 0.74418  0.08813  0.45622  Biso   1.000  N
  N74      1.0000 0.83097  0.13088  0.37592  Biso   1.000  N
  C134     1.0000 0.73448  0.14013  0.50531  Biso   1.000  C
  C135     1.0000 0.73339  0.01429  0.47280  Biso   1.000  C
  C136     1.0000 0.86909  0.20268  0.38662  Biso   1.000  C
  C137     1.0000 0.88073  0.08240  0.34572  Biso   1.000  C
  C138     1.0000 0.71321  0.08648  0.55780  Biso   1.000  C
  H147     1.0000 0.69139  0.17710  0.49779  Biso   1.000  H
  N75      1.0000 0.80818  0.17631  0.52529  Biso   1.000  N
  N76      1.0000 0.72400  0.01180  0.53259  Biso   1.000  N
  O37      1.0000 0.73139  0.95951  0.43889  Biso   1.000  O
  H148     1.0000 0.83479  0.24509  0.37410  Biso   1.000  H
  C139     1.0000 0.94818  0.19859  0.35000  Biso   1.000  C
  N77      1.0000 0.89958  0.21351  0.44667  Biso   1.000  N
  N78      1.0000 0.95109  0.11949  0.33218  Biso   1.000  N
  O38      1.0000 0.86388  0.01713  0.33095  Biso   1.000  O
  H149     1.0000 0.65721  0.09419  0.57102  Biso   1.000  H
  N79      1.0000 0.77030  0.10820  0.60290  Biso   1.000  N
  C140     1.0000 0.84630  0.23857  0.49430  Biso   1.000  C
  C141     1.0000 0.82497  0.16179  0.58349  Biso   1.000  C
  C142     1.0000 0.70018  0.94289  0.56310  Biso   1.000  C
  H150     1.0000 0.94600  0.23228  0.31560  Biso   1.000  H
  N80      1.0000 0.00958  0.22201  0.39100  Biso   1.000  N
  C143     1.0000 0.98042  0.23222  0.44720  Biso   1.000  C
  C144     1.0000 0.00612  0.09158  0.28752  Biso   1.000  C
  C145     1.0000 0.77103  0.07871  0.66282  Biso   1.000  C
  H151     1.0000 0.80448  0.27112  0.47789  Biso   1.000  H
  H152     1.0000 0.87752  0.26829  0.52229  Biso   1.000  H
  O39      1.0000 0.87697  0.19168  0.61325  Biso   1.000  O
  H153     1.0000 0.65261  0.95339  0.58689  Biso   1.000  H
  H154     1.0000 0.68552  0.90490  0.53401  Biso   1.000  H
  N81      1.0000 0.76309  0.91239  0.60087  Biso   1.000  N
  C146     1.0000 0.09218  0.23738  0.37490  Biso   1.000  C
  O40      1.0000 0.01873  0.25559  0.48956  Biso   1.000  O
  H155     1.0000 0.98188  0.04769  0.26859  Biso   1.000  H
  H156     1.0000 0.01291  0.13049  0.25750  Biso   1.000  H
  N82      1.0000 0.08497  0.07060  0.30990  Biso   1.000  N
  H157     1.0000 0.79600  0.11620  0.68829  Biso   1.000  H
  H158     1.0000 0.71527  0.07242  0.67569  Biso   1.000  H
  N83      1.0000 0.81279  0.00760  0.67056  Biso   1.000  N
  C147     1.0000 0.80873  0.85159  0.58309  Biso   1.000  C
  C148     1.0000 0.77709  0.93252  0.66269  Biso   1.000  C
  H159     1.0000 0.09248  0.26358  0.33718  Biso   1.000  H
  H160     1.0000 0.11527  0.27141  0.40409  Biso   1.000  H
  N84      1.0000 0.14358  0.17109  0.37030  Biso   1.000  N
  C149     1.0000 0.10842  0.99609  0.31282  Biso   1.000  C
  C150     1.0000 0.15261  0.12260  0.31892  Biso   1.000  C
  C151     1.0000 0.89158  0.00391  0.68718  Biso   1.000  C
  N85      1.0000 0.85642  0.82891  0.62970  Biso   1.000  N
  O41      1.0000 0.80558  0.82029  0.53485  Biso   1.000  O
  C152     1.0000 0.84739  0.87740  0.68108  Biso   1.000  C
  C153     1.0000 0.70109  0.92072  0.70041  Biso   1.000  C
  C154     1.0000 0.19127  0.14841  0.41691  Biso   1.000  C
  N86      1.0000 0.18721  0.99240  0.32944  Biso   1.000  N
  O42      1.0000 0.06479  0.94148  0.30105  Biso   1.000  O
  C155     1.0000 0.22291  0.06748  0.33731  Biso   1.000  C
  C156     1.0000 0.17273  0.16718  0.26280  Biso   1.000  C
  O43      1.0000 0.93521  0.05852  0.69895  Biso   1.000  O
  N87      1.0000 0.91503  0.92940  0.69010  Biso   1.000  N
  C157     1.0000 0.90782  0.76262  0.62510  Biso   1.000  C
  C158     1.0000 0.82727  0.83282  0.73720  Biso   1.000  C
  H161     1.0000 0.71048  0.93989  0.73998  Biso   1.000  H
  H162     1.0000 0.65618  0.94868  0.68338  Biso   1.000  H
  C159     1.0000 0.67958  0.83719  0.70341  Biso   1.000  C
  N88      1.0000 0.23691  0.08761  0.39913  Biso   1.000  N
  O44      1.0000 0.19442  0.17971  0.46515  Biso   1.000  O
  C160     1.0000 0.22903  0.92129  0.33718  Biso   1.000  C
  C161     1.0000 0.29891  0.07928  0.29959  Biso   1.000  C
  H163     1.0000 0.12921  0.20251  0.25431  Biso   1.000  H
  H164     1.0000 0.17709  0.13241  0.22968  Biso   1.000  H
  C162     1.0000 0.25188  0.21067  0.26939  Biso   1.000  C
  C163     1.0000 0.99388  0.90842  0.71248  Biso   1.000  C
  H165     1.0000 0.90752  0.73642  0.66282  Biso   1.000  H
  H166     1.0000 0.88473  0.72859  0.59591  Biso   1.000  H
  N89      1.0000 0.99042  0.77799  0.60900  Biso   1.000  N
  H167     1.0000 0.87079  0.79749  0.74569  Biso   1.000  H
  H168     1.0000 0.82291  0.86759  0.77032  Biso   1.000  H
  C164     1.0000 0.74812  0.78933  0.73061  Biso   1.000  C
  H169     1.0000 0.66812  0.81887  0.66379  Biso   1.000  H
  H170     1.0000 0.63079  0.83112  0.72689  Biso   1.000  H
  C165     1.0000 0.29982  0.05711  0.43690  Biso   1.000  C
  H171     1.0000 0.20400  0.88380  0.31171  Biso   1.000  H
  H172     1.0000 0.28473  0.92758  0.32431  Biso   1.000  H
  N90      1.0000 0.22970  0.89180  0.39710  Biso   1.000  N
  H173     1.0000 0.28952  0.06011  0.26002  Biso   1.000  H
  H174     1.0000 0.34382  0.05132  0.31662  Biso   1.000  H
  C166     1.0000 0.32042  0.16281  0.29659  Biso   1.000  C
  H175     1.0000 0.26903  0.22871  0.23079  Biso   1.000  H
  H176     1.0000 0.24261  0.25479  0.29420  Biso   1.000  H
  H177     1.0000 0.98709  0.86951  0.74250  Biso   1.000  H
  H178     1.0000 0.01812  0.95231  0.73141  Biso   1.000  H
  N91      1.0000 0.04891  0.88051  0.66782  Biso   1.000  N
  C167     1.0000 0.01958  0.76778  0.55280  Biso   1.000  C
  C168     1.0000 0.05182  0.80141  0.65000  Biso   1.000  C
  H179     1.0000 0.73103  0.77129  0.76921  Biso   1.000  H
  H180     1.0000 0.75739  0.74521  0.70580  Biso   1.000  H
  N92      1.0000 0.27600  0.98820  0.46741  Biso   1.000  N
  H181     1.0000 0.34739  0.04661  0.41311  Biso   1.000  H
  H182     1.0000 0.31448  0.09510  0.46599  Biso   1.000  H
  C169     1.0000 0.28679  0.91352  0.44220  Biso   1.000  C
  C170     1.0000 0.17503  0.83821  0.41651  Biso   1.000  C
  H183     1.0000 0.33188  0.18113  0.33621  Biso   1.000  H
  H184     1.0000 0.36921  0.16888  0.27311  Biso   1.000  H
  C171     1.0000 0.11927  0.91760  0.65428  Biso   1.000  C
  O45      1.0000 0.98127  0.74441  0.51044  Biso   1.000  O
  N93      1.0000 0.10042  0.78649  0.55333  Biso   1.000  N
  C172     1.0000 0.13091  0.79732  0.61338  Biso   1.000  C
  H185     1.0000 0.05400  0.76772  0.68440  Biso   1.000  H
  C173     1.0000 0.26661  0.98571  0.52720  Biso   1.000  C
  H186     1.0000 0.34279  0.90581  0.42898  Biso   1.000  H
  C174     1.0000 0.26552  0.85987  0.49469  Biso   1.000  C
  N94      1.0000 0.19182  0.82369  0.47471  Biso   1.000  N
  O46      1.0000 0.12303  0.80832  0.38675  Biso   1.000  O
  N95      1.0000 0.16897  0.86912  0.62408  Biso   1.000  N
  O47      1.0000 0.13612  0.98287  0.66905  Biso   1.000  O
  C175     1.0000 0.15370  0.76143  0.50570  Biso   1.000  C
  H187     1.0000 0.16521  0.75491  0.62590  Biso   1.000  H
  N96      1.0000 0.25582  0.91187  0.54378  Biso   1.000  N
  O48      1.0000 0.26861  0.04049  0.56111  Biso   1.000  O
  H188     1.0000 0.30861  0.82290  0.50221  Biso   1.000  H
  C176     1.0000 0.25012  0.88879  0.60511  Biso   1.000  C
  H189     1.0000 0.19552  0.72888  0.52211  Biso   1.000  H
  H190     1.0000 0.12248  0.73171  0.47771  Biso   1.000  H
  H191     1.0000 0.28521  0.84530  0.61121  Biso   1.000  H
  H192     1.0000 0.27000  0.92962  0.62979  Biso   1.000  H
  Ne1      1.0000 0.50000  0.50000  0.50000  Biso   1.000  Ne
  He1      1.0000 0.44038  0.62134  0.58746  Biso   1.000  He
  He2      1.0000 0.56189  0.37515  0.41009  Biso   1.000  He
  Ar1      1.0000 0.50000  0.50000  0.50000  Biso   1.000  Ar
  Ne2      1.0000 0.50000  0.00000  0.00000  Biso   1.000  Ne
  He3      1.0000 0.41231  0.87534  0.08075  Biso   1.000  He
  He4      1.0000 0.56200  0.12501  0.90998  Biso   1.000  He
  Ar2      1.0000 0.50000  0.00000  0.00000  Biso   1.000  Ar
  Ne3      1.0000 1.00000  0.00000  0.50000  Biso   1.000  Ne
  He5      1.0000 0.06736  0.13333  0.59584  Biso   1.000  He
  He6      1.0000 0.93907  0.87659  0.41109  Biso   1.000  He
  Ar3      1.0000 1.00000  1.00000  0.50000  Biso   1.000  Ar
  Ne4      1.0000 1.00000  0.50000  0.00000  Biso   1.000  Ne
  He7      1.0000 0.06606  0.36853  0.09457  Biso   1.000  He
  He8      1.0000 0.90413  0.63682  0.91087  Biso   1.000  He
  Ar4      1.0000 1.00000  0.50000  0.00000  Biso   1.000  Ar
