data_image0
_cell_length_a       13.742
_cell_length_b       19.748
_cell_length_c       27.692
_cell_angle_alpha    90
_cell_angle_beta     92.96
_cell_angle_gamma    90

_symmetry_space_group_name_H-M    "P 1"
_symmetry_int_tables_number       1

loop_
  _symmetry_equiv_pos_as_xyz
  'x, y, z'

loop_
  _atom_site_label
  _atom_site_occupancy
  _atom_site_fract_x
  _atom_site_fract_y
  _atom_site_fract_z
  _atom_site_thermal_displace_type
  _atom_site_B_iso_or_equiv
  _atom_site_type_symbol
  O1       1.0000 0.39393  0.48729  0.58214  Biso   1.000  O
  H1       1.0000 0.38514  0.52841  0.58850  Biso   1.000  H
  C1       1.0000 0.47393  0.46319  0.60965  Biso   1.000  C
  C2       1.0000 0.46360  0.40212  0.63410  Biso   1.000  C
  C3       1.0000 0.56200  0.49767  0.61117  Biso   1.000  C
  C4       1.0000 0.36511  0.36708  0.63384  Biso   1.000  C
  C5       1.0000 0.54574  0.37710  0.66057  Biso   1.000  C
  C6       1.0000 0.64124  0.47169  0.63844  Biso   1.000  C
  C7       1.0000 0.57521  0.56279  0.58427  Biso   1.000  C
  C8       1.0000 0.30414  0.39898  0.67243  Biso   1.000  C
  H2       1.0000 0.33100  0.37670  0.60181  Biso   1.000  H
  C9       1.0000 0.37311  0.29041  0.63865  Biso   1.000  C
  C10      1.0000 0.63542  0.40981  0.66288  Biso   1.000  C
  H3       1.0000 0.53974  0.33568  0.67771  Biso   1.000  H
  O2       1.0000 0.72500  0.50962  0.63912  Biso   1.000  O
  N1       1.0000 0.56152  0.62295  0.61703  Biso   1.000  N
  H4       1.0000 0.64143  0.56411  0.57169  Biso   1.000  H
  H5       1.0000 0.52733  0.56507  0.55639  Biso   1.000  H
  C11      1.0000 0.23356  0.44880  0.66125  Biso   1.000  C
  C12      1.0000 0.31714  0.38039  0.72106  Biso   1.000  C
  H6       1.0000 0.30782  0.27041  0.63641  Biso   1.000  H
  H7       1.0000 0.41144  0.27248  0.61262  Biso   1.000  H
  H8       1.0000 0.40533  0.27902  0.67000  Biso   1.000  H
  C13      1.0000 0.72497  0.38039  0.69062  Biso   1.000  C
  H9       1.0000 0.76412  0.49549  0.66122  Biso   1.000  H
  H10      1.0000 0.58195  0.61150  0.64769  Biso   1.000  H
  H11      1.0000 0.49690  0.63287  0.61710  Biso   1.000  H
  C14      1.0000 0.61572  0.68447  0.60228  Biso   1.000  C
  O3       1.0000 0.21044  0.46952  0.61461  Biso   1.000  O
  C15      1.0000 0.17951  0.47909  0.69709  Biso   1.000  C
  C16      1.0000 0.26389  0.40748  0.75766  Biso   1.000  C
  H12      1.0000 0.36502  0.34717  0.72949  Biso   1.000  H
  C17      1.0000 0.73610  0.40748  0.74232  Biso   1.000  C
  H13      1.0000 0.78323  0.39629  0.67358  Biso   1.000  H
  C18      1.0000 0.72796  0.30251  0.69000  Biso   1.000  C
  H14      1.0000 0.68600  0.67890  0.61121  Biso   1.000  H
  H15      1.0000 0.60831  0.68999  0.56670  Biso   1.000  H
  C19      1.0000 0.57766  0.74716  0.62676  Biso   1.000  C
  H16      1.0000 0.26181  0.47428  0.59982  Biso   1.000  H
  C20      1.0000 0.19730  0.45929  0.74493  Biso   1.000  C
  C21      1.0000 0.10056  0.52810  0.68103  Biso   1.000  C
  C22      1.0000 0.27510  0.38039  0.80940  Biso   1.000  C
  C23      1.0000 0.80270  0.45929  0.75509  Biso   1.000  C
  C24      1.0000 0.68293  0.38039  0.77895  Biso   1.000  C
  H17      1.0000 0.67395  0.28459  0.70801  Biso   1.000  H
  H18      1.0000 0.72186  0.28641  0.65652  Biso   1.000  H
  H19      1.0000 0.78994  0.28681  0.70519  Biso   1.000  H
  C25      1.0000 0.61146  0.76428  0.67322  Biso   1.000  C
  C26      1.0000 0.50615  0.78570  0.60383  Biso   1.000  C
  O4       1.0000 0.14595  0.48825  0.78159  Biso   1.000  O
  N2       1.0000 0.14255  0.59601  0.66845  Biso   1.000  N
  H20      1.0000 0.06345  0.50957  0.65239  Biso   1.000  H
  H21      1.0000 0.05482  0.53388  0.70721  Biso   1.000  H
  C27      1.0000 0.36465  0.40981  0.83710  Biso   1.000  C
  H22      1.0000 0.21683  0.39629  0.82640  Biso   1.000  H
  C28      1.0000 0.27211  0.30251  0.81001  Biso   1.000  C
  O5       1.0000 0.85412  0.48825  0.71839  Biso   1.000  O
  C29      1.0000 0.82056  0.47909  0.80293  Biso   1.000  C
  C30      1.0000 0.69593  0.39898  0.82759  Biso   1.000  C
  H23      1.0000 0.63505  0.34717  0.77049  Biso   1.000  H
  H24      1.0000 0.66173  0.73840  0.68920  Biso   1.000  H
  C31      1.0000 0.57171  0.81907  0.69615  Biso   1.000  C
  C32      1.0000 0.46840  0.84130  0.62712  Biso   1.000  C
  H25      1.0000 0.48253  0.77431  0.57201  Biso   1.000  H
  H26      1.0000 0.14080  0.53008  0.77689  Biso   1.000  H
  H27      1.0000 0.19073  0.58948  0.64759  Biso   1.000  H
  H28      1.0000 0.16991  0.61500  0.69579  Biso   1.000  H
  C33      1.0000 0.06911  0.64467  0.64592  Biso   1.000  C
  C34      1.0000 0.35883  0.47169  0.86154  Biso   1.000  C
  C35      1.0000 0.45433  0.37710  0.83945  Biso   1.000  C
  H29      1.0000 0.32612  0.28459  0.79201  Biso   1.000  H
  H30      1.0000 0.27821  0.28641  0.84350  Biso   1.000  H
  H31      1.0000 0.21012  0.28681  0.79479  Biso   1.000  H
  H32      1.0000 0.85926  0.53008  0.72309  Biso   1.000  H
  C36      1.0000 0.76651  0.44880  0.83873  Biso   1.000  C
  C37      1.0000 0.89951  0.52810  0.81898  Biso   1.000  C
  C38      1.0000 0.63496  0.36708  0.86617  Biso   1.000  C
  H33      1.0000 0.59354  0.83001  0.72829  Biso   1.000  H
  C39      1.0000 0.50096  0.85786  0.67290  Biso   1.000  C
  H34      1.0000 0.41942  0.86809  0.61099  Biso   1.000  H
  H35      1.0000 0.10155  0.68847  0.64021  Biso   1.000  H
  H36      1.0000 0.01719  0.65267  0.66870  Biso   1.000  H
  C40      1.0000 0.02409  0.61920  0.59935  Biso   1.000  C
  O6       1.0000 0.27507  0.50962  0.86086  Biso   1.000  O
  C41      1.0000 0.43808  0.49767  0.88884  Biso   1.000  C
  C42      1.0000 0.53648  0.40212  0.86592  Biso   1.000  C
  H37      1.0000 0.46033  0.33568  0.82231  Biso   1.000  H
  O7       1.0000 0.78963  0.46952  0.88541  Biso   1.000  O
  N3       1.0000 0.85753  0.59601  0.83157  Biso   1.000  N
  H38      1.0000 0.93662  0.50957  0.84758  Biso   1.000  H
  H39      1.0000 0.94525  0.53388  0.79280  Biso   1.000  H
  H40      1.0000 0.66907  0.37670  0.89821  Biso   1.000  H
  C43      1.0000 0.62696  0.29041  0.86136  Biso   1.000  C
  H41      1.0000 0.47480  0.89599  0.68859  Biso   1.000  H
  C44      1.0000 0.07391  0.62371  0.55643  Biso   1.000  C
  C45      1.0000 0.93280  0.58791  0.59761  Biso   1.000  C
  H42      1.0000 0.23595  0.49549  0.83880  Biso   1.000  H
  C46      1.0000 0.52614  0.46319  0.89036  Biso   1.000  C
  C47      1.0000 0.42486  0.56279  0.91571  Biso   1.000  C
  H43      1.0000 0.73827  0.47428  0.90020  Biso   1.000  H
  H44      1.0000 0.80934  0.58948  0.85239  Biso   1.000  H
  H45      1.0000 0.83015  0.61500  0.80419  Biso   1.000  H
  C48      1.0000 0.93097  0.64467  0.85409  Biso   1.000  C
  H46      1.0000 0.69225  0.27041  0.86360  Biso   1.000  H
  H47      1.0000 0.58863  0.27248  0.88740  Biso   1.000  H
  H48      1.0000 0.59474  0.27902  0.83001  Biso   1.000  H
  H49      1.0000 0.13655  0.64417  0.55700  Biso   1.000  H
  C49      1.0000 0.03364  0.59900  0.51350  Biso   1.000  C
  C50      1.0000 0.89246  0.56239  0.55469  Biso   1.000  C
  H50      1.0000 0.89816  0.58421  0.62621  Biso   1.000  H
  O8       1.0000 0.60613  0.48729  0.91784  Biso   1.000  O
  N4       1.0000 0.43856  0.62295  0.88299  Biso   1.000  N
  H51      1.0000 0.35864  0.56411  0.92829  Biso   1.000  H
  H52      1.0000 0.47273  0.56507  0.94359  Biso   1.000  H
  H53      1.0000 0.89852  0.68847  0.85981  Biso   1.000  H
  H54      1.0000 0.98281  0.65267  0.83131  Biso   1.000  H
  C51      1.0000 0.97598  0.61920  0.90067  Biso   1.000  C
  H55      1.0000 0.06738  0.60300  0.48461  Biso   1.000  H
  C52      1.0000 0.94191  0.56791  0.51311  Biso   1.000  C
  H56      1.0000 0.83054  0.54097  0.55400  Biso   1.000  H
  H57      1.0000 0.61494  0.52841  0.91152  Biso   1.000  H
  H58      1.0000 0.41812  0.61150  0.85229  Biso   1.000  H
  H59      1.0000 0.50317  0.63287  0.88291  Biso   1.000  H
  C53      1.0000 0.38435  0.68447  0.89774  Biso   1.000  C
  C54      1.0000 0.92616  0.62371  0.94359  Biso   1.000  C
  C55      1.0000 0.06720  0.58791  0.90240  Biso   1.000  C
  H60      1.0000 0.91373  0.55038  0.48360  Biso   1.000  H
  H61      1.0000 0.31407  0.67890  0.88881  Biso   1.000  H
  H62      1.0000 0.39176  0.68999  0.93328  Biso   1.000  H
  C56      1.0000 0.42241  0.74716  0.87326  Biso   1.000  C
  H63      1.0000 0.86352  0.64417  0.94301  Biso   1.000  H
  C57      1.0000 0.96643  0.59900  0.98651  Biso   1.000  C
  C58      1.0000 0.10761  0.56239  0.94529  Biso   1.000  C
  H64      1.0000 0.10192  0.58421  0.87380  Biso   1.000  H
  C59      1.0000 0.38861  0.76428  0.82679  Biso   1.000  C
  C60      1.0000 0.49393  0.78570  0.89618  Biso   1.000  C
  H65      1.0000 0.93262  0.60300  0.01540  Biso   1.000  H
  C61      1.0000 0.05816  0.56791  0.98691  Biso   1.000  C
  H66      1.0000 0.16954  0.54097  0.94601  Biso   1.000  H
  H67      1.0000 0.33834  0.73840  0.81081  Biso   1.000  H
  C62      1.0000 0.42836  0.81907  0.80387  Biso   1.000  C
  C63      1.0000 0.53167  0.84130  0.87290  Biso   1.000  C
  H68      1.0000 0.51754  0.77431  0.92800  Biso   1.000  H
  H69      1.0000 0.08634  0.55038  0.01641  Biso   1.000  H
  H70      1.0000 0.40653  0.83001  0.77169  Biso   1.000  H
  C64      1.0000 0.49911  0.85786  0.82712  Biso   1.000  C
  H71      1.0000 0.58065  0.86809  0.88899  Biso   1.000  H
  H72      1.0000 0.52527  0.89599  0.81139  Biso   1.000  H
  C65      1.0000 0.42479  0.43721  0.41573  Biso   1.000  C
  N5       1.0000 0.43848  0.37705  0.38297  Biso   1.000  N
  C66      1.0000 0.43800  0.50228  0.38883  Biso   1.000  C
  H73      1.0000 0.35864  0.43589  0.42831  Biso   1.000  H
  H74      1.0000 0.47274  0.43488  0.44361  Biso   1.000  H
  C67      1.0000 0.38435  0.31547  0.39772  Biso   1.000  C
  H75      1.0000 0.41812  0.38850  0.35230  Biso   1.000  H
  H76      1.0000 0.50310  0.36708  0.38290  Biso   1.000  H
  C68      1.0000 0.52614  0.53681  0.39034  Biso   1.000  C
  C69      1.0000 0.35883  0.52831  0.36156  Biso   1.000  C
  C70      1.0000 0.42241  0.25279  0.37328  Biso   1.000  C
  H77      1.0000 0.31400  0.32110  0.38879  Biso   1.000  H
  H78      1.0000 0.39169  0.31001  0.43330  Biso   1.000  H
  O9       1.0000 0.60614  0.51271  0.41786  Biso   1.000  O
  C71      1.0000 0.53640  0.59788  0.36590  Biso   1.000  C
  O10      1.0000 0.27500  0.49038  0.36087  Biso   1.000  O
  C72      1.0000 0.36465  0.59019  0.33712  Biso   1.000  C
  C73      1.0000 0.38861  0.23572  0.32678  Biso   1.000  C
  C74      1.0000 0.49392  0.21430  0.39617  Biso   1.000  C
  H79      1.0000 0.61493  0.47159  0.41150  Biso   1.000  H
  C75      1.0000 0.63489  0.63287  0.36615  Biso   1.000  C
  C76      1.0000 0.45433  0.62290  0.33943  Biso   1.000  C
  H80      1.0000 0.23588  0.50451  0.33882  Biso   1.000  H
  C77      1.0000 0.27510  0.61961  0.30938  Biso   1.000  C
  H81      1.0000 0.33834  0.26160  0.31079  Biso   1.000  H
  C78      1.0000 0.42829  0.18088  0.30385  Biso   1.000  C
  C79      1.0000 0.53160  0.15870  0.37292  Biso   1.000  C
  H82      1.0000 0.51754  0.22569  0.42799  Biso   1.000  H
  C80      1.0000 0.69593  0.60097  0.32757  Biso   1.000  C
  H83      1.0000 0.66900  0.62330  0.39819  Biso   1.000  H
  C81      1.0000 0.62689  0.70959  0.36134  Biso   1.000  C
  H84      1.0000 0.46033  0.66427  0.32229  Biso   1.000  H
  C82      1.0000 0.26390  0.59247  0.25767  Biso   1.000  C
  H85      1.0000 0.21684  0.60371  0.32641  Biso   1.000  H
  C83      1.0000 0.27211  0.69749  0.31000  Biso   1.000  C
  H86      1.0000 0.40653  0.16999  0.27170  Biso   1.000  H
  C84      1.0000 0.49911  0.14209  0.32710  Biso   1.000  C
  H87      1.0000 0.58065  0.13191  0.38901  Biso   1.000  H
  C85      1.0000 0.76651  0.55120  0.33874  Biso   1.000  C
  C86      1.0000 0.68293  0.61961  0.27894  Biso   1.000  C
  H88      1.0000 0.69225  0.72959  0.36359  Biso   1.000  H
  H89      1.0000 0.58863  0.72747  0.38742  Biso   1.000  H
  H90      1.0000 0.59474  0.72098  0.32999  Biso   1.000  H
  C87      1.0000 0.19730  0.54071  0.24495  Biso   1.000  C
  C88      1.0000 0.31714  0.61961  0.22104  Biso   1.000  C
  H91      1.0000 0.32612  0.71536  0.29199  Biso   1.000  H
  H92      1.0000 0.27821  0.71359  0.34352  Biso   1.000  H
  H93      1.0000 0.21013  0.71319  0.29481  Biso   1.000  H
  H94      1.0000 0.52520  0.10401  0.31141  Biso   1.000  H
  O11      1.0000 0.78963  0.53048  0.38539  Biso   1.000  O
  C89      1.0000 0.82049  0.52091  0.30291  Biso   1.000  C
  C90      1.0000 0.73610  0.59247  0.24234  Biso   1.000  C
  H95      1.0000 0.63505  0.65277  0.27051  Biso   1.000  H
  O12      1.0000 0.14588  0.51175  0.28161  Biso   1.000  O
  C91      1.0000 0.17951  0.52091  0.19707  Biso   1.000  C
  C92      1.0000 0.30415  0.60097  0.17245  Biso   1.000  C
  H96      1.0000 0.36503  0.65277  0.22951  Biso   1.000  H
  H97      1.0000 0.73820  0.52567  0.40022  Biso   1.000  H
  C93      1.0000 0.80270  0.54071  0.25507  Biso   1.000  C
  C94      1.0000 0.89951  0.47190  0.31897  Biso   1.000  C
  C95      1.0000 0.72490  0.61961  0.19060  Biso   1.000  C
  H98      1.0000 0.14081  0.46987  0.27691  Biso   1.000  H
  C96      1.0000 0.23349  0.55120  0.16127  Biso   1.000  C
  C97      1.0000 0.10048  0.47190  0.18102  Biso   1.000  C
  C98      1.0000 0.36511  0.63287  0.13383  Biso   1.000  C
  O13      1.0000 0.85412  0.51175  0.21840  Biso   1.000  O
  N6       1.0000 0.85752  0.40394  0.33155  Biso   1.000  N
  H99      1.0000 0.93662  0.49038  0.34760  Biso   1.000  H
  H100     1.0000 0.94525  0.46607  0.29279  Biso   1.000  H
  C99      1.0000 0.63542  0.59019  0.16290  Biso   1.000  C
  H101     1.0000 0.78324  0.60371  0.17360  Biso   1.000  H
  C100     1.0000 0.72789  0.69749  0.18998  Biso   1.000  C
  O14      1.0000 0.21044  0.53048  0.11459  Biso   1.000  O
  N7       1.0000 0.14247  0.40394  0.16843  Biso   1.000  N
  H102     1.0000 0.06338  0.49038  0.15241  Biso   1.000  H
  H103     1.0000 0.05482  0.46607  0.20720  Biso   1.000  H
  H104     1.0000 0.33100  0.62330  0.10179  Biso   1.000  H
  C101     1.0000 0.37311  0.70959  0.13864  Biso   1.000  C
  C102     1.0000 0.46360  0.59788  0.13412  Biso   1.000  C
  H105     1.0000 0.85919  0.46987  0.22311  Biso   1.000  H
  H106     1.0000 0.80934  0.41047  0.35241  Biso   1.000  H
  H107     1.0000 0.83016  0.38500  0.30421  Biso   1.000  H
  C103     1.0000 0.93089  0.35528  0.35408  Biso   1.000  C
  C104     1.0000 0.64125  0.52831  0.13846  Biso   1.000  C
  C105     1.0000 0.54574  0.62290  0.16055  Biso   1.000  C
  H108     1.0000 0.67395  0.71536  0.20799  Biso   1.000  H
  H109     1.0000 0.72179  0.71359  0.15650  Biso   1.000  H
  H110     1.0000 0.78995  0.71319  0.20521  Biso   1.000  H
  H111     1.0000 0.26180  0.52567  0.09980  Biso   1.000  H
  H112     1.0000 0.19073  0.41047  0.14760  Biso   1.000  H
  H113     1.0000 0.16992  0.38500  0.19581  Biso   1.000  H
  C106     1.0000 0.06910  0.35528  0.14590  Biso   1.000  C
  H114     1.0000 0.30782  0.72959  0.13639  Biso   1.000  H
  H115     1.0000 0.41144  0.72747  0.11260  Biso   1.000  H
  H116     1.0000 0.40533  0.72098  0.16999  Biso   1.000  H
  C107     1.0000 0.47393  0.53681  0.10964  Biso   1.000  C
  H117     1.0000 0.89852  0.31147  0.35979  Biso   1.000  H
  H118     1.0000 0.98281  0.34728  0.33130  Biso   1.000  H
  C108     1.0000 0.97591  0.38080  0.40069  Biso   1.000  C
  O15      1.0000 0.72500  0.49038  0.13914  Biso   1.000  O
  C109     1.0000 0.56200  0.50228  0.11116  Biso   1.000  C
  H119     1.0000 0.53974  0.66427  0.17769  Biso   1.000  H
  H120     1.0000 0.10148  0.31147  0.14019  Biso   1.000  H
  H121     1.0000 0.01719  0.34728  0.16869  Biso   1.000  H
  C110     1.0000 0.02409  0.38080  0.09933  Biso   1.000  C
  O16      1.0000 0.39394  0.51271  0.08215  Biso   1.000  O
  C111     1.0000 0.92616  0.37629  0.44361  Biso   1.000  C
  C112     1.0000 0.06720  0.41209  0.40239  Biso   1.000  C
  H122     1.0000 0.76412  0.50451  0.16120  Biso   1.000  H
  C113     1.0000 0.57521  0.43721  0.08429  Biso   1.000  C
  C114     1.0000 0.07391  0.37629  0.05641  Biso   1.000  C
  C115     1.0000 0.93280  0.41209  0.09760  Biso   1.000  C
  H123     1.0000 0.38514  0.47159  0.08848  Biso   1.000  H
  H124     1.0000 0.86352  0.35578  0.44299  Biso   1.000  H
  C116     1.0000 0.96643  0.40100  0.48649  Biso   1.000  C
  C117     1.0000 0.10761  0.43761  0.44531  Biso   1.000  C
  H125     1.0000 0.10191  0.41579  0.37378  Biso   1.000  H
  N8       1.0000 0.56151  0.37705  0.11701  Biso   1.000  N
  H126     1.0000 0.64143  0.43589  0.07170  Biso   1.000  H
  H127     1.0000 0.52734  0.43488  0.05641  Biso   1.000  H
  H128     1.0000 0.13648  0.35578  0.05699  Biso   1.000  H
  C118     1.0000 0.03357  0.40100  0.01349  Biso   1.000  C
  C119     1.0000 0.89239  0.43761  0.05471  Biso   1.000  C
  H129     1.0000 0.89808  0.41579  0.12620  Biso   1.000  H
  H130     1.0000 0.93261  0.39700  0.51538  Biso   1.000  H
  C120     1.0000 0.05809  0.43209  0.48689  Biso   1.000  C
  H131     1.0000 0.16954  0.45898  0.44599  Biso   1.000  H
  H132     1.0000 0.58188  0.38850  0.14771  Biso   1.000  H
  H133     1.0000 0.49690  0.36708  0.11709  Biso   1.000  H
  C121     1.0000 0.61572  0.31547  0.10230  Biso   1.000  C
  C122     1.0000 0.94191  0.43209  0.01309  Biso   1.000  C
  H134     1.0000 0.06746  0.39700  0.98460  Biso   1.000  H
  H135     1.0000 0.83053  0.45898  0.05399  Biso   1.000  H
  H136     1.0000 0.08634  0.44962  0.51640  Biso   1.000  H
  H137     1.0000 0.68600  0.32110  0.11119  Biso   1.000  H
  H138     1.0000 0.60831  0.31001  0.06671  Biso   1.000  H
  C123     1.0000 0.57759  0.25279  0.12674  Biso   1.000  C
  H139     1.0000 0.91374  0.44962  0.98362  Biso   1.000  H
  C124     1.0000 0.61139  0.23572  0.17321  Biso   1.000  C
  C125     1.0000 0.50615  0.21430  0.10381  Biso   1.000  C
  H140     1.0000 0.66173  0.26160  0.18919  Biso   1.000  H
  C126     1.0000 0.57171  0.18088  0.19613  Biso   1.000  C
  C127     1.0000 0.46840  0.15870  0.12710  Biso   1.000  C
  H141     1.0000 0.48253  0.22569  0.07199  Biso   1.000  H
  H142     1.0000 0.59354  0.16999  0.22831  Biso   1.000  H
  C128     1.0000 0.50089  0.14209  0.17292  Biso   1.000  C
  H143     1.0000 0.41943  0.13191  0.11101  Biso   1.000  H
  H144     1.0000 0.47480  0.10401  0.18861  Biso   1.000  H
  C129     1.0000 0.03160  0.65870  0.37292  Biso   1.000  C
  C130     1.0000 0.99392  0.71430  0.39617  Biso   1.000  C
  C131     1.0000 0.99911  0.64209  0.32710  Biso   1.000  C
  H145     1.0000 0.08065  0.63191  0.38901  Biso   1.000  H
  C132     1.0000 0.92241  0.75279  0.37328  Biso   1.000  C
  H146     1.0000 0.01754  0.72569  0.42799  Biso   1.000  H
  C133     1.0000 0.92836  0.68088  0.30385  Biso   1.000  C
  H147     1.0000 0.02520  0.60401  0.31141  Biso   1.000  H
  C134     1.0000 0.88435  0.81547  0.39772  Biso   1.000  C
  C135     1.0000 0.88861  0.73567  0.32678  Biso   1.000  C
  H148     1.0000 0.90653  0.66999  0.27170  Biso   1.000  H
  N9       1.0000 0.93856  0.87705  0.38297  Biso   1.000  N
  H149     1.0000 0.81400  0.82110  0.38879  Biso   1.000  H
  H150     1.0000 0.89176  0.81001  0.43330  Biso   1.000  H
  H151     1.0000 0.83834  0.76160  0.31079  Biso   1.000  H
  C136     1.0000 0.92486  0.93716  0.41573  Biso   1.000  C
  H152     1.0000 0.00310  0.86708  0.38290  Biso   1.000  H
  H153     1.0000 0.91812  0.88850  0.35230  Biso   1.000  H
  C137     1.0000 0.93800  0.00228  0.38883  Biso   1.000  C
  H154     1.0000 0.85864  0.93589  0.42831  Biso   1.000  H
  H155     1.0000 0.97274  0.93488  0.44361  Biso   1.000  H
  C138     1.0000 0.85883  0.02831  0.36156  Biso   1.000  C
  C139     1.0000 0.02614  0.03681  0.39034  Biso   1.000  C
  C140     1.0000 0.86465  0.09019  0.33712  Biso   1.000  C
  O17      1.0000 0.77500  0.99038  0.36087  Biso   1.000  O
  C141     1.0000 0.03640  0.09788  0.36590  Biso   1.000  C
  O18      1.0000 0.10614  0.01271  0.41786  Biso   1.000  O
  C142     1.0000 0.77510  0.11961  0.30938  Biso   1.000  C
  C143     1.0000 0.95433  0.12290  0.33943  Biso   1.000  C
  H156     1.0000 0.73596  0.00451  0.33882  Biso   1.000  H
  C144     1.0000 0.13489  0.13287  0.36615  Biso   1.000  C
  H157     1.0000 0.11493  0.97159  0.41150  Biso   1.000  H
  C145     1.0000 0.76390  0.09252  0.25767  Biso   1.000  C
  H158     1.0000 0.71684  0.10371  0.32641  Biso   1.000  H
  C146     1.0000 0.77211  0.19749  0.31000  Biso   1.000  C
  H159     1.0000 0.96033  0.16432  0.32229  Biso   1.000  H
  C147     1.0000 0.19593  0.10102  0.32757  Biso   1.000  C
  H160     1.0000 0.16900  0.12330  0.39819  Biso   1.000  H
  C148     1.0000 0.12689  0.20959  0.36134  Biso   1.000  C
  C149     1.0000 0.81714  0.11961  0.22104  Biso   1.000  C
  C150     1.0000 0.69730  0.04071  0.24495  Biso   1.000  C
  H161     1.0000 0.82612  0.21541  0.29199  Biso   1.000  H
  H162     1.0000 0.77821  0.21359  0.34352  Biso   1.000  H
  H163     1.0000 0.71013  0.21319  0.29481  Biso   1.000  H
  C151     1.0000 0.18293  0.11961  0.27894  Biso   1.000  C
  C152     1.0000 0.26651  0.05120  0.33874  Biso   1.000  C
  H164     1.0000 0.19218  0.22959  0.36359  Biso   1.000  H
  H165     1.0000 0.08863  0.22752  0.38742  Biso   1.000  H
  H166     1.0000 0.09474  0.22098  0.32999  Biso   1.000  H
  C153     1.0000 0.80415  0.10102  0.17245  Biso   1.000  C
  H167     1.0000 0.86503  0.15277  0.22951  Biso   1.000  H
  C154     1.0000 0.67951  0.02091  0.19707  Biso   1.000  C
  O19      1.0000 0.64595  0.01175  0.28161  Biso   1.000  O
  C155     1.0000 0.23610  0.09252  0.24234  Biso   1.000  C
  H168     1.0000 0.13505  0.15277  0.27051  Biso   1.000  H
  C156     1.0000 0.32049  0.02091  0.30291  Biso   1.000  C
  O20      1.0000 0.28963  0.03048  0.38539  Biso   1.000  O
  C157     1.0000 0.86511  0.13287  0.13383  Biso   1.000  C
  C158     1.0000 0.73349  0.05120  0.16127  Biso   1.000  C
  C159     1.0000 0.60048  0.97190  0.18102  Biso   1.000  C
  H169     1.0000 0.64081  0.96987  0.27691  Biso   1.000  H
  C160     1.0000 0.22490  0.11961  0.19060  Biso   1.000  C
  C161     1.0000 0.30270  0.04071  0.25507  Biso   1.000  C
  C162     1.0000 0.39951  0.97190  0.31897  Biso   1.000  C
  H170     1.0000 0.23820  0.02572  0.40022  Biso   1.000  H
  C163     1.0000 0.96360  0.09788  0.13412  Biso   1.000  C
  H171     1.0000 0.83100  0.12330  0.10179  Biso   1.000  H
  C164     1.0000 0.87311  0.20959  0.13864  Biso   1.000  C
  O21      1.0000 0.71044  0.03048  0.11459  Biso   1.000  O
  N10      1.0000 0.64255  0.90394  0.16843  Biso   1.000  N
  H172     1.0000 0.56338  0.99038  0.15241  Biso   1.000  H
  H173     1.0000 0.55482  0.96607  0.20720  Biso   1.000  H
  C165     1.0000 0.13542  0.09019  0.16290  Biso   1.000  C
  H174     1.0000 0.28324  0.10371  0.17360  Biso   1.000  H
  C166     1.0000 0.22789  0.19749  0.18998  Biso   1.000  C
  O22      1.0000 0.35412  0.01175  0.21840  Biso   1.000  O
  N11      1.0000 0.35752  0.90394  0.33155  Biso   1.000  N
  H175     1.0000 0.43662  0.99038  0.34760  Biso   1.000  H
  H176     1.0000 0.44518  0.96607  0.29279  Biso   1.000  H
  C167     1.0000 0.97393  0.03681  0.10964  Biso   1.000  C
  C168     1.0000 0.04567  0.12290  0.16055  Biso   1.000  C
  H177     1.0000 0.80782  0.22959  0.13639  Biso   1.000  H
  H178     1.0000 0.91144  0.22752  0.11260  Biso   1.000  H
  H179     1.0000 0.90533  0.22098  0.16999  Biso   1.000  H
  H180     1.0000 0.76180  0.02572  0.09980  Biso   1.000  H
  H181     1.0000 0.69073  0.91047  0.14760  Biso   1.000  H
  H182     1.0000 0.66992  0.88500  0.19581  Biso   1.000  H
  C169     1.0000 0.56910  0.85528  0.14590  Biso   1.000  C
  C170     1.0000 0.14117  0.02831  0.13846  Biso   1.000  C
  H183     1.0000 0.17388  0.21541  0.20799  Biso   1.000  H
  H184     1.0000 0.22179  0.21359  0.15650  Biso   1.000  H
  H185     1.0000 0.28995  0.21319  0.20521  Biso   1.000  H
  H186     1.0000 0.35919  0.96987  0.22311  Biso   1.000  H
  H187     1.0000 0.30934  0.91047  0.35241  Biso   1.000  H
  H188     1.0000 0.33008  0.88500  0.30421  Biso   1.000  H
  C171     1.0000 0.43089  0.85528  0.35408  Biso   1.000  C
  C172     1.0000 0.06200  0.00228  0.11116  Biso   1.000  C
  O23      1.0000 0.89394  0.01271  0.08215  Biso   1.000  O
  H189     1.0000 0.03974  0.16432  0.17769  Biso   1.000  H
  H190     1.0000 0.60155  0.81147  0.14019  Biso   1.000  H
  H191     1.0000 0.51719  0.84728  0.16869  Biso   1.000  H
  C173     1.0000 0.52409  0.88080  0.09933  Biso   1.000  C
  O24      1.0000 0.22500  0.99038  0.13914  Biso   1.000  O
  H192     1.0000 0.39852  0.81147  0.35979  Biso   1.000  H
  H193     1.0000 0.48281  0.84728  0.33130  Biso   1.000  H
  C174     1.0000 0.47591  0.88080  0.40069  Biso   1.000  C
  C175     1.0000 0.07521  0.93716  0.08429  Biso   1.000  C
  H194     1.0000 0.88514  0.97159  0.08848  Biso   1.000  H
  C176     1.0000 0.57391  0.87629  0.05641  Biso   1.000  C
  C177     1.0000 0.43280  0.91209  0.09760  Biso   1.000  C
  H195     1.0000 0.26412  0.00451  0.16120  Biso   1.000  H
  C178     1.0000 0.42609  0.87629  0.44361  Biso   1.000  C
  C179     1.0000 0.56720  0.91209  0.40239  Biso   1.000  C
  N12      1.0000 0.06151  0.87705  0.11701  Biso   1.000  N
  H196     1.0000 0.14143  0.93589  0.07170  Biso   1.000  H
  H197     1.0000 0.02734  0.93488  0.05641  Biso   1.000  H
  H198     1.0000 0.63648  0.85578  0.05699  Biso   1.000  H
  C180     1.0000 0.53364  0.90100  0.01349  Biso   1.000  C
  C181     1.0000 0.39239  0.93756  0.05471  Biso   1.000  C
  H199     1.0000 0.39808  0.91579  0.12620  Biso   1.000  H
  H200     1.0000 0.36352  0.85578  0.44299  Biso   1.000  H
  C182     1.0000 0.46643  0.90100  0.48649  Biso   1.000  C
  C183     1.0000 0.60761  0.93756  0.44531  Biso   1.000  C
  H201     1.0000 0.60191  0.91579  0.37378  Biso   1.000  H
  C184     1.0000 0.11572  0.81547  0.10230  Biso   1.000  C
  H202     1.0000 0.08188  0.88850  0.14771  Biso   1.000  H
  H203     1.0000 0.99690  0.86708  0.11709  Biso   1.000  H
  H204     1.0000 0.56746  0.89700  0.98460  Biso   1.000  H
  C185     1.0000 0.44191  0.93209  0.01309  Biso   1.000  C
  H205     1.0000 0.33053  0.95898  0.05399  Biso   1.000  H
  H206     1.0000 0.43261  0.89700  0.51538  Biso   1.000  H
  C186     1.0000 0.55809  0.93209  0.48689  Biso   1.000  C
  H207     1.0000 0.66954  0.95898  0.44599  Biso   1.000  H
  C187     1.0000 0.07759  0.75279  0.12674  Biso   1.000  C
  H208     1.0000 0.18600  0.82110  0.11119  Biso   1.000  H
  H209     1.0000 0.10831  0.81001  0.06671  Biso   1.000  H
  H210     1.0000 0.41374  0.94956  0.98362  Biso   1.000  H
  H211     1.0000 0.58634  0.94956  0.51640  Biso   1.000  H
  C188     1.0000 0.11139  0.73567  0.17321  Biso   1.000  C
  C189     1.0000 0.00607  0.71430  0.10381  Biso   1.000  C
  C190     1.0000 0.07171  0.68088  0.19613  Biso   1.000  C
  H212     1.0000 0.16173  0.76160  0.18919  Biso   1.000  H
  C191     1.0000 0.96840  0.65870  0.12710  Biso   1.000  C
  H213     1.0000 0.98253  0.72569  0.07199  Biso   1.000  H
  C192     1.0000 0.00089  0.64209  0.17292  Biso   1.000  C
  H214     1.0000 0.09354  0.66999  0.22831  Biso   1.000  H
  H215     1.0000 0.91943  0.63191  0.11101  Biso   1.000  H
  H216     1.0000 0.97480  0.60401  0.18861  Biso   1.000  H
  C193     1.0000 0.00615  0.28570  0.60383  Biso   1.000  C
  C194     1.0000 0.07759  0.24721  0.62676  Biso   1.000  C
  C195     1.0000 0.96847  0.34130  0.62712  Biso   1.000  C
  H217     1.0000 0.98253  0.27431  0.57201  Biso   1.000  H
  C196     1.0000 0.11572  0.18447  0.60228  Biso   1.000  C
  C197     1.0000 0.11146  0.26428  0.67322  Biso   1.000  C
  C198     1.0000 0.00089  0.35791  0.67290  Biso   1.000  C
  H218     1.0000 0.91942  0.36809  0.61099  Biso   1.000  H
  N13      1.0000 0.06152  0.12295  0.61703  Biso   1.000  N
  H219     1.0000 0.18600  0.17890  0.61121  Biso   1.000  H
  H220     1.0000 0.10831  0.18999  0.56670  Biso   1.000  H
  H221     1.0000 0.16173  0.23840  0.68920  Biso   1.000  H
  C199     1.0000 0.07171  0.31907  0.69615  Biso   1.000  C
  H222     1.0000 0.97487  0.39599  0.68859  Biso   1.000  H
  H223     1.0000 0.08195  0.11150  0.64769  Biso   1.000  H
  C200     1.0000 0.07521  0.06279  0.58427  Biso   1.000  C
  H224     1.0000 0.99690  0.13287  0.61710  Biso   1.000  H
  H225     1.0000 0.09354  0.33001  0.72829  Biso   1.000  H
  H226     1.0000 0.14143  0.06411  0.57169  Biso   1.000  H
  H227     1.0000 0.02733  0.06512  0.55639  Biso   1.000  H
  C201     1.0000 0.06200  0.99767  0.61117  Biso   1.000  C
  C202     1.0000 0.97393  0.96319  0.60965  Biso   1.000  C
  C203     1.0000 0.14124  0.97169  0.63844  Biso   1.000  C
  O25      1.0000 0.89393  0.98724  0.58214  Biso   1.000  O
  C204     1.0000 0.96367  0.90207  0.63410  Biso   1.000  C
  O26      1.0000 0.22500  0.00962  0.63912  Biso   1.000  O
  C205     1.0000 0.13542  0.90976  0.66288  Biso   1.000  C
  H228     1.0000 0.88514  0.02841  0.58850  Biso   1.000  H
  C206     1.0000 0.86511  0.86708  0.63384  Biso   1.000  C
  C207     1.0000 0.04574  0.87710  0.66057  Biso   1.000  C
  H229     1.0000 0.26412  0.99549  0.66122  Biso   1.000  H
  C208     1.0000 0.22490  0.88039  0.69062  Biso   1.000  C
  C209     1.0000 0.80414  0.89898  0.67243  Biso   1.000  C
  H230     1.0000 0.83100  0.87670  0.60181  Biso   1.000  H
  C210     1.0000 0.87311  0.79041  0.63865  Biso   1.000  C
  H231     1.0000 0.03974  0.83568  0.67771  Biso   1.000  H
  C211     1.0000 0.23610  0.90748  0.74232  Biso   1.000  C
  H232     1.0000 0.28323  0.89629  0.67358  Biso   1.000  H
  C212     1.0000 0.22789  0.80246  0.69000  Biso   1.000  C
  C213     1.0000 0.73356  0.94880  0.66125  Biso   1.000  C
  C214     1.0000 0.81714  0.88039  0.72106  Biso   1.000  C
  H233     1.0000 0.80782  0.77041  0.63641  Biso   1.000  H
  H234     1.0000 0.91144  0.77248  0.61262  Biso   1.000  H
  H235     1.0000 0.90533  0.77896  0.67000  Biso   1.000  H
  C215     1.0000 0.30270  0.95929  0.75509  Biso   1.000  C
  C216     1.0000 0.18293  0.88039  0.77895  Biso   1.000  C
  H236     1.0000 0.17395  0.78459  0.70801  Biso   1.000  H
  H237     1.0000 0.22186  0.78641  0.65652  Biso   1.000  H
  H238     1.0000 0.28994  0.78676  0.70519  Biso   1.000  H
  O27      1.0000 0.71044  0.96947  0.61461  Biso   1.000  O
  C217     1.0000 0.67951  0.97909  0.69709  Biso   1.000  C
  C218     1.0000 0.76397  0.90748  0.75766  Biso   1.000  C
  H239     1.0000 0.86502  0.84717  0.72949  Biso   1.000  H
  O28      1.0000 0.35412  0.98820  0.71839  Biso   1.000  O
  C219     1.0000 0.32056  0.97909  0.80293  Biso   1.000  C
  C220     1.0000 0.19593  0.89898  0.82759  Biso   1.000  C
  H240     1.0000 0.13505  0.84717  0.77049  Biso   1.000  H
  H241     1.0000 0.76181  0.97428  0.59982  Biso   1.000  H
  C221     1.0000 0.69737  0.95929  0.74493  Biso   1.000  C
  C222     1.0000 0.60056  0.02810  0.68103  Biso   1.000  C
  C223     1.0000 0.77517  0.88039  0.80940  Biso   1.000  C
  H242     1.0000 0.35926  0.03008  0.72309  Biso   1.000  H
  C224     1.0000 0.39951  0.02810  0.81898  Biso   1.000  C
  C225     1.0000 0.26651  0.94880  0.83873  Biso   1.000  C
  C226     1.0000 0.13496  0.86708  0.86617  Biso   1.000  C
  O29      1.0000 0.64595  0.98820  0.78159  Biso   1.000  O
  N14      1.0000 0.64255  0.09606  0.66845  Biso   1.000  N
  H243     1.0000 0.56345  0.00962  0.65239  Biso   1.000  H
  H244     1.0000 0.55482  0.03388  0.70721  Biso   1.000  H
  C227     1.0000 0.86465  0.90976  0.83710  Biso   1.000  C
  H245     1.0000 0.71683  0.89629  0.82640  Biso   1.000  H
  C228     1.0000 0.77211  0.80246  0.81001  Biso   1.000  C
  N15      1.0000 0.35753  0.09606  0.83157  Biso   1.000  N
  H246     1.0000 0.43662  0.00962  0.84758  Biso   1.000  H
  H247     1.0000 0.44525  0.03388  0.79280  Biso   1.000  H
  O30      1.0000 0.28963  0.96947  0.88541  Biso   1.000  O
  H248     1.0000 0.16900  0.87670  0.89821  Biso   1.000  H
  C229     1.0000 0.12696  0.79041  0.86136  Biso   1.000  C
  C230     1.0000 0.03640  0.90207  0.86592  Biso   1.000  C
  H249     1.0000 0.64080  0.03008  0.77689  Biso   1.000  H
  H250     1.0000 0.69073  0.08948  0.64759  Biso   1.000  H
  H251     1.0000 0.66991  0.11500  0.69579  Biso   1.000  H
  C231     1.0000 0.56911  0.14467  0.64592  Biso   1.000  C
  C232     1.0000 0.85883  0.97169  0.86154  Biso   1.000  C
  C233     1.0000 0.95433  0.87710  0.83945  Biso   1.000  C
  H252     1.0000 0.82612  0.78459  0.79201  Biso   1.000  H
  H253     1.0000 0.77821  0.78641  0.84350  Biso   1.000  H
  H254     1.0000 0.71012  0.78676  0.79479  Biso   1.000  H
  H255     1.0000 0.30934  0.08948  0.85239  Biso   1.000  H
  H256     1.0000 0.33015  0.11500  0.80419  Biso   1.000  H
  C234     1.0000 0.43097  0.14467  0.85409  Biso   1.000  C
  H257     1.0000 0.23827  0.97428  0.90020  Biso   1.000  H
  H258     1.0000 0.19225  0.77041  0.86360  Biso   1.000  H
  H259     1.0000 0.08863  0.77248  0.88740  Biso   1.000  H
  H260     1.0000 0.09474  0.77896  0.83001  Biso   1.000  H
  C235     1.0000 0.02614  0.96319  0.89036  Biso   1.000  C
  H261     1.0000 0.60155  0.18847  0.64021  Biso   1.000  H
  H262     1.0000 0.51726  0.15267  0.66870  Biso   1.000  H
  C236     1.0000 0.52416  0.11920  0.59935  Biso   1.000  C
  C237     1.0000 0.93808  0.99767  0.88884  Biso   1.000  C
  O31      1.0000 0.77507  0.00962  0.86086  Biso   1.000  O
  H263     1.0000 0.96033  0.83568  0.82231  Biso   1.000  H
  H264     1.0000 0.39852  0.18847  0.85981  Biso   1.000  H
  H265     1.0000 0.48281  0.15267  0.83131  Biso   1.000  H
  C238     1.0000 0.47591  0.11920  0.90067  Biso   1.000  C
  O32      1.0000 0.10613  0.98724  0.91784  Biso   1.000  O
  C239     1.0000 0.57391  0.12371  0.55643  Biso   1.000  C
  C240     1.0000 0.43280  0.08791  0.59761  Biso   1.000  C
  C241     1.0000 0.92486  0.06279  0.91571  Biso   1.000  C
  H266     1.0000 0.73595  0.99549  0.83880  Biso   1.000  H
  C242     1.0000 0.42616  0.12371  0.94359  Biso   1.000  C
  C243     1.0000 0.56727  0.08791  0.90240  Biso   1.000  C
  H267     1.0000 0.11494  0.02841  0.91152  Biso   1.000  H
  H268     1.0000 0.63655  0.14422  0.55700  Biso   1.000  H
  C244     1.0000 0.53364  0.09900  0.51350  Biso   1.000  C
  C245     1.0000 0.39239  0.06239  0.55469  Biso   1.000  C
  H269     1.0000 0.39816  0.08421  0.62621  Biso   1.000  H
  N16      1.0000 0.93856  0.12295  0.88299  Biso   1.000  N
  H270     1.0000 0.85864  0.06411  0.92829  Biso   1.000  H
  H271     1.0000 0.97273  0.06512  0.94359  Biso   1.000  H
  H272     1.0000 0.36352  0.14422  0.94301  Biso   1.000  H
  C246     1.0000 0.46643  0.09900  0.98651  Biso   1.000  C
  C247     1.0000 0.60761  0.06239  0.94529  Biso   1.000  C
  H273     1.0000 0.60192  0.08421  0.87380  Biso   1.000  H
  H274     1.0000 0.56746  0.10300  0.48461  Biso   1.000  H
  C248     1.0000 0.44191  0.06791  0.51311  Biso   1.000  C
  H275     1.0000 0.33054  0.04102  0.55400  Biso   1.000  H
  H276     1.0000 0.00310  0.13287  0.88291  Biso   1.000  H
  H277     1.0000 0.91812  0.11150  0.85229  Biso   1.000  H
  C249     1.0000 0.88435  0.18447  0.89774  Biso   1.000  C
  C250     1.0000 0.55816  0.06791  0.98691  Biso   1.000  C
  H278     1.0000 0.43262  0.10300  0.01540  Biso   1.000  H
  H279     1.0000 0.66954  0.04102  0.94601  Biso   1.000  H
  H280     1.0000 0.41373  0.05038  0.48360  Biso   1.000  H
  H281     1.0000 0.81407  0.17890  0.88881  Biso   1.000  H
  H282     1.0000 0.89176  0.18999  0.93328  Biso   1.000  H
  C251     1.0000 0.92241  0.24721  0.87326  Biso   1.000  C
  H283     1.0000 0.58634  0.05038  0.01641  Biso   1.000  H
  C252     1.0000 0.88861  0.26428  0.82679  Biso   1.000  C
  C253     1.0000 0.99393  0.28570  0.89618  Biso   1.000  C
  H284     1.0000 0.83834  0.23840  0.81081  Biso   1.000  H
  C254     1.0000 0.92836  0.31907  0.80387  Biso   1.000  C
  C255     1.0000 0.03160  0.34130  0.87290  Biso   1.000  C
  H285     1.0000 0.01754  0.27431  0.92800  Biso   1.000  H
  H286     1.0000 0.90653  0.33001  0.77169  Biso   1.000  H
  C256     1.0000 0.99911  0.35791  0.82712  Biso   1.000  C
  H287     1.0000 0.08065  0.36809  0.88899  Biso   1.000  H
  H288     1.0000 0.02520  0.39599  0.81139  Biso   1.000  H
