data_image0
_cell_length_a       10.432
_cell_length_b       24.04
_cell_length_c       23.143
_cell_angle_alpha    90
_cell_angle_beta     90
_cell_angle_gamma    90

_symmetry_space_group_name_H-M    "P 1"
_symmetry_int_tables_number       1

loop_
  _symmetry_equiv_pos_as_xyz
  'x, y, z'

loop_
  _atom_site_label
  _atom_site_occupancy
  _atom_site_fract_x
  _atom_site_fract_y
  _atom_site_fract_z
  _atom_site_thermal_displace_type
  _atom_site_B_iso_or_equiv
  _atom_site_type_symbol
  C1       1.0000 0.18501  0.53752  0.47894  Biso   1.000  C
  S1       1.0000 0.29726  0.59372  0.48304  Biso   1.000  S
  C2       1.0000 0.05924  0.54967  0.44977  Biso   1.000  C
  H1       1.0000 0.23044  0.50399  0.45560  Biso   1.000  H
  H2       1.0000 0.16449  0.52421  0.52249  Biso   1.000  H
  C3       1.0000 0.33694  0.60275  0.40656  Biso   1.000  C
  C4       1.0000 0.01495  0.51468  0.40652  Biso   1.000  C
  C5       1.0000 0.98629  0.59476  0.46610  Biso   1.000  C
  C6       1.0000 0.37807  0.55004  0.37795  Biso   1.000  C
  H3       1.0000 0.25316  0.61839  0.38439  Biso   1.000  H
  H4       1.0000 0.41382  0.63261  0.40310  Biso   1.000  H
  C7       1.0000 0.89657  0.52284  0.38024  Biso   1.000  C
  H5       1.0000 0.07391  0.48020  0.39290  Biso   1.000  H
  C8       1.0000 0.86954  0.60379  0.44095  Biso   1.000  C
  H6       1.0000 0.02138  0.62300  0.49881  Biso   1.000  H
  C9       1.0000 0.30876  0.53166  0.33064  Biso   1.000  C
  C10      1.0000 0.48016  0.51901  0.39753  Biso   1.000  C
  C11      1.0000 0.84682  0.48299  0.33760  Biso   1.000  C
  C12      1.0000 0.82419  0.56868  0.39757  Biso   1.000  C
  H7       1.0000 0.81173  0.63852  0.45491  Biso   1.000  H
  C13      1.0000 0.34116  0.48228  0.30286  Biso   1.000  C
  H8       1.0000 0.22862  0.55578  0.31521  Biso   1.000  H
  C14      1.0000 0.51265  0.47026  0.37117  Biso   1.000  C
  H9       1.0000 0.53499  0.53340  0.43408  Biso   1.000  H
  C15      1.0000 0.86062  0.42604  0.34706  Biso   1.000  C
  C16      1.0000 0.78269  0.50112  0.28825  Biso   1.000  C
  H10      1.0000 0.73294  0.57700  0.37731  Biso   1.000  H
  C17      1.0000 0.26716  0.46285  0.25135  Biso   1.000  C
  C18      1.0000 0.44565  0.45225  0.32377  Biso   1.000  C
  H11      1.0000 0.59155  0.44580  0.38759  Biso   1.000  H
  C19      1.0000 0.81164  0.38777  0.30830  Biso   1.000  C
  H12      1.0000 0.91018  0.41161  0.38521  Biso   1.000  H
  C20      1.0000 0.73284  0.46285  0.24867  Biso   1.000  C
  H13      1.0000 0.77147  0.54522  0.28052  Biso   1.000  H
  C21      1.0000 0.25067  0.40628  0.24128  Biso   1.000  C
  C22      1.0000 0.21731  0.50112  0.21173  Biso   1.000  C
  H14      1.0000 0.47412  0.41431  0.30238  Biso   1.000  H
  C23      1.0000 0.81998  0.32708  0.32105  Biso   1.000  C
  C24      1.0000 0.74933  0.40628  0.25870  Biso   1.000  C
  C25      1.0000 0.65884  0.48228  0.19717  Biso   1.000  C
  C26      1.0000 0.18836  0.38777  0.19168  Biso   1.000  C
  H15      1.0000 0.28652  0.37650  0.27222  Biso   1.000  H
  C27      1.0000 0.15318  0.48299  0.16242  Biso   1.000  C
  H16      1.0000 0.22853  0.54522  0.21950  Biso   1.000  H
  C28      1.0000 0.84231  0.28914  0.27741  Biso   1.000  C
  C29      1.0000 0.80167  0.30711  0.37653  Biso   1.000  C
  H17      1.0000 0.71348  0.37650  0.22780  Biso   1.000  H
  C30      1.0000 0.69124  0.53166  0.16934  Biso   1.000  C
  C31      1.0000 0.55435  0.45225  0.17621  Biso   1.000  C
  C32      1.0000 0.18002  0.32708  0.17897  Biso   1.000  C
  C33      1.0000 0.13938  0.42604  0.15292  Biso   1.000  C
  C34      1.0000 0.10343  0.52284  0.11973  Biso   1.000  C
  C35      1.0000 0.84653  0.23274  0.28864  Biso   1.000  C
  H18      1.0000 0.85679  0.30379  0.23381  Biso   1.000  H
  C36      1.0000 0.80512  0.25050  0.38776  Biso   1.000  C
  H19      1.0000 0.78441  0.33598  0.41149  Biso   1.000  H
  C37      1.0000 0.62193  0.55004  0.12207  Biso   1.000  C
  H20      1.0000 0.77138  0.55578  0.18481  Biso   1.000  H
  C38      1.0000 0.48735  0.47026  0.12885  Biso   1.000  C
  H21      1.0000 0.52588  0.41431  0.19760  Biso   1.000  H
  C39      1.0000 0.15769  0.28914  0.22262  Biso   1.000  C
  C40      1.0000 0.19833  0.30711  0.12345  Biso   1.000  C
  H22      1.0000 0.08982  0.41161  0.11481  Biso   1.000  H
  C41      1.0000 0.17581  0.56868  0.10245  Biso   1.000  C
  C42      1.0000 0.98505  0.51468  0.09346  Biso   1.000  C
  C43      1.0000 0.86934  0.19147  0.23964  Biso   1.000  C
  C44      1.0000 0.82870  0.21344  0.34382  Biso   1.000  C
  H23      1.0000 0.78921  0.23548  0.43110  Biso   1.000  H
  C45      1.0000 0.66306  0.60275  0.09342  Biso   1.000  C
  C46      1.0000 0.51984  0.51901  0.10249  Biso   1.000  C
  H24      1.0000 0.40845  0.44580  0.11239  Biso   1.000  H
  C47      1.0000 0.15347  0.23274  0.21138  Biso   1.000  C
  H25      1.0000 0.14321  0.30379  0.26621  Biso   1.000  H
  C48      1.0000 0.19488  0.25050  0.11226  Biso   1.000  C
  H26      1.0000 0.21559  0.33598  0.08849  Biso   1.000  H
  C49      1.0000 0.13046  0.60379  0.05907  Biso   1.000  C
  H27      1.0000 0.26706  0.57700  0.12272  Biso   1.000  H
  C50      1.0000 0.94076  0.54967  0.05021  Biso   1.000  C
  H28      1.0000 0.92609  0.48020  0.10712  Biso   1.000  H
  S2       1.0000 0.00000  0.14397  0.25001  Biso   1.000  S
  H29      1.0000 0.88804  0.21502  0.20071  Biso   1.000  H
  H30      1.0000 0.78288  0.16730  0.23411  Biso   1.000  H
  H31      1.0000 0.83321  0.16938  0.35272  Biso   1.000  H
  S3       1.0000 0.70274  0.59372  0.01698  Biso   1.000  S
  H32      1.0000 0.74684  0.61839  0.11559  Biso   1.000  H
  H33      1.0000 0.58618  0.63261  0.09692  Biso   1.000  H
  H34      1.0000 0.46501  0.53340  0.06589  Biso   1.000  H
  C51      1.0000 0.17130  0.21344  0.15616  Biso   1.000  C
  C52      1.0000 0.13066  0.19147  0.26038  Biso   1.000  C
  H35      1.0000 0.21079  0.23548  0.06892  Biso   1.000  H
  C53      1.0000 0.01371  0.59476  0.03392  Biso   1.000  C
  H36      1.0000 0.18827  0.63852  0.04511  Biso   1.000  H
  C54      1.0000 0.81499  0.53752  0.02109  Biso   1.000  C
  H37      1.0000 0.16679  0.16938  0.14730  Biso   1.000  H
  H38      1.0000 0.11196  0.21502  0.29931  Biso   1.000  H
  H39      1.0000 0.21712  0.16730  0.26591  Biso   1.000  H
  H40      1.0000 0.97862  0.62300  0.00121  Biso   1.000  H
  H41      1.0000 0.83551  0.52421  0.97749  Biso   1.000  H
  H42      1.0000 0.76956  0.50399  0.04442  Biso   1.000  H
  C55      1.0000 0.17581  0.43132  0.60243  Biso   1.000  C
  C56      1.0000 0.13046  0.39621  0.55905  Biso   1.000  C
  C57      1.0000 0.10343  0.47716  0.61976  Biso   1.000  C
  H43      1.0000 0.26706  0.42300  0.62269  Biso   1.000  H
  C58      1.0000 0.01371  0.40524  0.53390  Biso   1.000  C
  H44      1.0000 0.18827  0.36148  0.54509  Biso   1.000  H
  C59      1.0000 0.98505  0.48532  0.59348  Biso   1.000  C
  C60      1.0000 0.15318  0.51701  0.66240  Biso   1.000  C
  C61      1.0000 0.94076  0.45033  0.55023  Biso   1.000  C
  H45      1.0000 0.97862  0.37700  0.50119  Biso   1.000  H
  H46      1.0000 0.92609  0.51980  0.60710  Biso   1.000  H
  C62      1.0000 0.21731  0.49888  0.71175  Biso   1.000  C
  C63      1.0000 0.13938  0.57396  0.65294  Biso   1.000  C
  C64      1.0000 0.81499  0.46248  0.52106  Biso   1.000  C
  C65      1.0000 0.26716  0.53715  0.75133  Biso   1.000  C
  H47      1.0000 0.22853  0.45478  0.71948  Biso   1.000  H
  C66      1.0000 0.18836  0.61223  0.69170  Biso   1.000  C
  H48      1.0000 0.08982  0.58839  0.61479  Biso   1.000  H
  S4       1.0000 0.70274  0.40628  0.51696  Biso   1.000  S
  H49      1.0000 0.76956  0.49601  0.54440  Biso   1.000  H
  H50      1.0000 0.83551  0.47579  0.47751  Biso   1.000  H
  C67      1.0000 0.25067  0.59372  0.74130  Biso   1.000  C
  C68      1.0000 0.34116  0.51772  0.80283  Biso   1.000  C
  C69      1.0000 0.18002  0.67292  0.67895  Biso   1.000  C
  C70      1.0000 0.66306  0.39725  0.59344  Biso   1.000  C
  H51      1.0000 0.28652  0.62350  0.77220  Biso   1.000  H
  C71      1.0000 0.30876  0.46834  0.83066  Biso   1.000  C
  C72      1.0000 0.44565  0.54775  0.82379  Biso   1.000  C
  C73      1.0000 0.15769  0.71086  0.72259  Biso   1.000  C
  C74      1.0000 0.19833  0.69289  0.62347  Biso   1.000  C
  C75      1.0000 0.62193  0.44996  0.62205  Biso   1.000  C
  H52      1.0000 0.74684  0.38161  0.61561  Biso   1.000  H
  H53      1.0000 0.58618  0.36739  0.59690  Biso   1.000  H
  C76      1.0000 0.37807  0.44996  0.87793  Biso   1.000  C
  H54      1.0000 0.22862  0.44422  0.81519  Biso   1.000  H
  C77      1.0000 0.51265  0.52974  0.87115  Biso   1.000  C
  H55      1.0000 0.47412  0.58569  0.80240  Biso   1.000  H
  C78      1.0000 0.15347  0.76726  0.71136  Biso   1.000  C
  H56      1.0000 0.14321  0.69621  0.76619  Biso   1.000  H
  C79      1.0000 0.19488  0.74950  0.61224  Biso   1.000  C
  H57      1.0000 0.21559  0.66402  0.58851  Biso   1.000  H
  C80      1.0000 0.69124  0.46834  0.66936  Biso   1.000  C
  C81      1.0000 0.51984  0.48099  0.60247  Biso   1.000  C
  C82      1.0000 0.48016  0.48099  0.89751  Biso   1.000  C
  C83      1.0000 0.33694  0.39725  0.90658  Biso   1.000  C
  H58      1.0000 0.59155  0.55420  0.88761  Biso   1.000  H
  C84      1.0000 0.17130  0.78656  0.65618  Biso   1.000  C
  C85      1.0000 0.13066  0.80853  0.76036  Biso   1.000  C
  H59      1.0000 0.21079  0.76452  0.56890  Biso   1.000  H
  C86      1.0000 0.65884  0.51772  0.69714  Biso   1.000  C
  H60      1.0000 0.77138  0.44422  0.68479  Biso   1.000  H
  C87      1.0000 0.48735  0.52974  0.62883  Biso   1.000  C
  H61      1.0000 0.46501  0.46660  0.56592  Biso   1.000  H
  H62      1.0000 0.53499  0.46660  0.93411  Biso   1.000  H
  S5       1.0000 0.29726  0.40628  0.98302  Biso   1.000  S
  H63      1.0000 0.25316  0.38161  0.88441  Biso   1.000  H
  H64      1.0000 0.41382  0.36739  0.90308  Biso   1.000  H
  H65      1.0000 0.16679  0.83062  0.64728  Biso   1.000  H
  S6       1.0000 0.00000  0.85603  0.74999  Biso   1.000  S
  H66      1.0000 0.11196  0.78498  0.79929  Biso   1.000  H
  H67      1.0000 0.21712  0.83270  0.76589  Biso   1.000  H
  C88      1.0000 0.73284  0.53715  0.74865  Biso   1.000  C
  C89      1.0000 0.55435  0.54775  0.67623  Biso   1.000  C
  H68      1.0000 0.40845  0.55420  0.61241  Biso   1.000  H
  C90      1.0000 0.18501  0.46248  0.97891  Biso   1.000  C
  C91      1.0000 0.86934  0.80853  0.73962  Biso   1.000  C
  C92      1.0000 0.78269  0.49888  0.78827  Biso   1.000  C
  C93      1.0000 0.74933  0.59372  0.75872  Biso   1.000  C
  H69      1.0000 0.52588  0.58569  0.69762  Biso   1.000  H
  C94      1.0000 0.05924  0.45033  0.94979  Biso   1.000  C
  H70      1.0000 0.23044  0.49601  0.95558  Biso   1.000  H
  H71      1.0000 0.16449  0.47579  0.02251  Biso   1.000  H
  C95      1.0000 0.84653  0.76726  0.78862  Biso   1.000  C
  H72      1.0000 0.88804  0.78498  0.70069  Biso   1.000  H
  H73      1.0000 0.78288  0.83270  0.73409  Biso   1.000  H
  C96      1.0000 0.84682  0.51701  0.83758  Biso   1.000  C
  H74      1.0000 0.77147  0.45478  0.78050  Biso   1.000  H
  C97      1.0000 0.81164  0.61223  0.80832  Biso   1.000  C
  H75      1.0000 0.71348  0.62350  0.72778  Biso   1.000  H
  C98      1.0000 0.01495  0.48532  0.90654  Biso   1.000  C
  C99      1.0000 0.98629  0.40524  0.96608  Biso   1.000  C
  C100     1.0000 0.84231  0.71086  0.77738  Biso   1.000  C
  C101     1.0000 0.82870  0.78656  0.84384  Biso   1.000  C
  C102     1.0000 0.86062  0.57396  0.84708  Biso   1.000  C
  C103     1.0000 0.89657  0.47716  0.88027  Biso   1.000  C
  C104     1.0000 0.81998  0.67292  0.82103  Biso   1.000  C
  H76      1.0000 0.07391  0.51980  0.89288  Biso   1.000  H
  C105     1.0000 0.86954  0.39621  0.94093  Biso   1.000  C
  H77      1.0000 0.02138  0.37700  0.99879  Biso   1.000  H
  H78      1.0000 0.85679  0.69621  0.73379  Biso   1.000  H
  C106     1.0000 0.80512  0.74950  0.88774  Biso   1.000  C
  H79      1.0000 0.83321  0.83062  0.85270  Biso   1.000  H
  H80      1.0000 0.91018  0.58839  0.88519  Biso   1.000  H
  C107     1.0000 0.82419  0.43132  0.89755  Biso   1.000  C
  C108     1.0000 0.80167  0.69289  0.87655  Biso   1.000  C
  H81      1.0000 0.81173  0.36148  0.95489  Biso   1.000  H
  H82      1.0000 0.78921  0.76452  0.93108  Biso   1.000  H
  H83      1.0000 0.73294  0.42300  0.87728  Biso   1.000  H
  H84      1.0000 0.78441  0.66402  0.91151  Biso   1.000  H
  C109     1.0000 0.32870  0.28656  0.65618  Biso   1.000  C
  C110     1.0000 0.30512  0.24950  0.61224  Biso   1.000  C
  C111     1.0000 0.34653  0.26726  0.71136  Biso   1.000  C
  H85      1.0000 0.33321  0.33062  0.64728  Biso   1.000  H
  C112     1.0000 0.30167  0.19289  0.62347  Biso   1.000  C
  H86      1.0000 0.28921  0.26452  0.56890  Biso   1.000  H
  C113     1.0000 0.34231  0.21086  0.72259  Biso   1.000  C
  C114     1.0000 0.36934  0.30853  0.76036  Biso   1.000  C
  C115     1.0000 0.31998  0.17292  0.67895  Biso   1.000  C
  H87      1.0000 0.28441  0.16402  0.58851  Biso   1.000  H
  H88      1.0000 0.35679  0.19621  0.76619  Biso   1.000  H
  S7       1.0000 0.50000  0.35603  0.74999  Biso   1.000  S
  H89      1.0000 0.38804  0.28498  0.79929  Biso   1.000  H
  H90      1.0000 0.28288  0.33270  0.76589  Biso   1.000  H
  C116     1.0000 0.31164  0.11223  0.69170  Biso   1.000  C
  C117     1.0000 0.63066  0.30853  0.73962  Biso   1.000  C
  C118     1.0000 0.24933  0.09372  0.74130  Biso   1.000  C
  C119     1.0000 0.36062  0.07396  0.65294  Biso   1.000  C
  C120     1.0000 0.65347  0.26726  0.78862  Biso   1.000  C
  H91      1.0000 0.61196  0.28498  0.70069  Biso   1.000  H
  H92      1.0000 0.71712  0.33270  0.73409  Biso   1.000  H
  C121     1.0000 0.23284  0.03715  0.75133  Biso   1.000  C
  H93      1.0000 0.21348  0.12350  0.77220  Biso   1.000  H
  C122     1.0000 0.34682  0.01701  0.66240  Biso   1.000  C
  H94      1.0000 0.41018  0.08839  0.61479  Biso   1.000  H
  C123     1.0000 0.65769  0.21086  0.77738  Biso   1.000  C
  C124     1.0000 0.67130  0.28656  0.84384  Biso   1.000  C
  C125     1.0000 0.15884  0.01772  0.80283  Biso   1.000  C
  C126     1.0000 0.28269  0.99888  0.71175  Biso   1.000  C
  C127     1.0000 0.39657  0.97716  0.61976  Biso   1.000  C
  C128     1.0000 0.68002  0.17292  0.82103  Biso   1.000  C
  H95      1.0000 0.64321  0.19621  0.73379  Biso   1.000  H
  C129     1.0000 0.69488  0.24950  0.88774  Biso   1.000  C
  H96      1.0000 0.66679  0.33062  0.85270  Biso   1.000  H
  C130     1.0000 0.05435  0.04775  0.82379  Biso   1.000  C
  C131     1.0000 0.19124  0.96834  0.83066  Biso   1.000  C
  H97      1.0000 0.27147  0.95478  0.71948  Biso   1.000  H
  C132     1.0000 0.51495  0.98532  0.59348  Biso   1.000  C
  C133     1.0000 0.32419  0.93132  0.60243  Biso   1.000  C
  C134     1.0000 0.68836  0.11223  0.80832  Biso   1.000  C
  C135     1.0000 0.69833  0.19289  0.87655  Biso   1.000  C
  H98      1.0000 0.71079  0.26452  0.93108  Biso   1.000  H
  H99      1.0000 0.02588  0.08569  0.80240  Biso   1.000  H
  C136     1.0000 0.98735  0.02974  0.87115  Biso   1.000  C
  C137     1.0000 0.12193  0.94996  0.87793  Biso   1.000  C
  H100     1.0000 0.27138  0.94422  0.81519  Biso   1.000  H
  H101     1.0000 0.57391  0.01980  0.60710  Biso   1.000  H
  C138     1.0000 0.55924  0.95033  0.55023  Biso   1.000  C
  C139     1.0000 0.36954  0.89621  0.55905  Biso   1.000  C
  H102     1.0000 0.23294  0.92300  0.62269  Biso   1.000  H
  C140     1.0000 0.75067  0.09372  0.75872  Biso   1.000  C
  C141     1.0000 0.63938  0.07396  0.84708  Biso   1.000  C
  H103     1.0000 0.71559  0.16402  0.91151  Biso   1.000  H
  H104     1.0000 0.90845  0.05420  0.88761  Biso   1.000  H
  C142     1.0000 0.01984  0.98099  0.89751  Biso   1.000  C
  C143     1.0000 0.16306  0.89725  0.90658  Biso   1.000  C
  C144     1.0000 0.48629  0.90524  0.53390  Biso   1.000  C
  C145     1.0000 0.68501  0.96248  0.52106  Biso   1.000  C
  H105     1.0000 0.31173  0.86148  0.54509  Biso   1.000  H
  C146     1.0000 0.76716  0.03715  0.74865  Biso   1.000  C
  H106     1.0000 0.78652  0.12350  0.72778  Biso   1.000  H
  C147     1.0000 0.65318  0.01701  0.83758  Biso   1.000  C
  H107     1.0000 0.58982  0.08839  0.88519  Biso   1.000  H
  H108     1.0000 0.96501  0.96660  0.93411  Biso   1.000  H
  S8       1.0000 0.20274  0.90628  0.98302  Biso   1.000  S
  H109     1.0000 0.24684  0.88161  0.88441  Biso   1.000  H
  H110     1.0000 0.08618  0.86739  0.90308  Biso   1.000  H
  H111     1.0000 0.52138  0.87700  0.50119  Biso   1.000  H
  S9       1.0000 0.79726  0.90628  0.51696  Biso   1.000  S
  H112     1.0000 0.73044  0.99601  0.54440  Biso   1.000  H
  H113     1.0000 0.66449  0.97579  0.47751  Biso   1.000  H
  C148     1.0000 0.84116  0.01772  0.69714  Biso   1.000  C
  C149     1.0000 0.71731  0.99888  0.78827  Biso   1.000  C
  C150     1.0000 0.60343  0.97716  0.88027  Biso   1.000  C
  C151     1.0000 0.31499  0.96248  0.97891  Biso   1.000  C
  C152     1.0000 0.83694  0.89725  0.59344  Biso   1.000  C
  C153     1.0000 0.94565  0.04775  0.67623  Biso   1.000  C
  C154     1.0000 0.80876  0.96834  0.66936  Biso   1.000  C
  H114     1.0000 0.72853  0.95478  0.78050  Biso   1.000  H
  C155     1.0000 0.48505  0.98532  0.90654  Biso   1.000  C
  C156     1.0000 0.67581  0.93132  0.89755  Biso   1.000  C
  C157     1.0000 0.44076  0.95033  0.94979  Biso   1.000  C
  H115     1.0000 0.26956  0.99601  0.95558  Biso   1.000  H
  H116     1.0000 0.33551  0.97579  0.02251  Biso   1.000  H
  C158     1.0000 0.87807  0.94996  0.62205  Biso   1.000  C
  H117     1.0000 0.75316  0.88161  0.61561  Biso   1.000  H
  H118     1.0000 0.91382  0.86739  0.59690  Biso   1.000  H
  H119     1.0000 0.97412  0.08569  0.69762  Biso   1.000  H
  C159     1.0000 0.01265  0.02974  0.62883  Biso   1.000  C
  H120     1.0000 0.72862  0.94422  0.68479  Biso   1.000  H
  H121     1.0000 0.42609  0.01980  0.89288  Biso   1.000  H
  C160     1.0000 0.63046  0.89621  0.94093  Biso   1.000  C
  H122     1.0000 0.76706  0.92300  0.87728  Biso   1.000  H
  C161     1.0000 0.51371  0.90524  0.96608  Biso   1.000  C
  C162     1.0000 0.98016  0.98099  0.60247  Biso   1.000  C
  H123     1.0000 0.09155  0.05420  0.61241  Biso   1.000  H
  H124     1.0000 0.68827  0.86148  0.95489  Biso   1.000  H
  H125     1.0000 0.47862  0.87700  0.99879  Biso   1.000  H
  H126     1.0000 0.03499  0.96660  0.56592  Biso   1.000  H
  S10      1.0000 0.50000  0.64397  0.25001  Biso   1.000  S
  C163     1.0000 0.36934  0.69147  0.26038  Biso   1.000  C
  C164     1.0000 0.63066  0.69147  0.23964  Biso   1.000  C
  C165     1.0000 0.34653  0.73274  0.21138  Biso   1.000  C
  H127     1.0000 0.38804  0.71502  0.29931  Biso   1.000  H
  H128     1.0000 0.28288  0.66730  0.26591  Biso   1.000  H
  C166     1.0000 0.65347  0.73274  0.28864  Biso   1.000  C
  H129     1.0000 0.61196  0.71502  0.20071  Biso   1.000  H
  H130     1.0000 0.71712  0.66730  0.23411  Biso   1.000  H
  C167     1.0000 0.34231  0.78914  0.22262  Biso   1.000  C
  C168     1.0000 0.32870  0.71344  0.15616  Biso   1.000  C
  C169     1.0000 0.65769  0.78914  0.27741  Biso   1.000  C
  C170     1.0000 0.67130  0.71344  0.34382  Biso   1.000  C
  C171     1.0000 0.31998  0.82708  0.17897  Biso   1.000  C
  H131     1.0000 0.35679  0.80379  0.26621  Biso   1.000  H
  C172     1.0000 0.30512  0.75050  0.11226  Biso   1.000  C
  H132     1.0000 0.33321  0.66938  0.14730  Biso   1.000  H
  C173     1.0000 0.68002  0.82708  0.32105  Biso   1.000  C
  H133     1.0000 0.64321  0.80379  0.23381  Biso   1.000  H
  C174     1.0000 0.69488  0.75050  0.38776  Biso   1.000  C
  H134     1.0000 0.66679  0.66938  0.35272  Biso   1.000  H
  C175     1.0000 0.31164  0.88777  0.19168  Biso   1.000  C
  C176     1.0000 0.30167  0.80711  0.12345  Biso   1.000  C
  H135     1.0000 0.28921  0.73548  0.06892  Biso   1.000  H
  C177     1.0000 0.68836  0.88777  0.30830  Biso   1.000  C
  C178     1.0000 0.69833  0.80711  0.37653  Biso   1.000  C
  H136     1.0000 0.71079  0.73548  0.43110  Biso   1.000  H
  C179     1.0000 0.24933  0.90628  0.24128  Biso   1.000  C
  C180     1.0000 0.36062  0.92604  0.15292  Biso   1.000  C
  H137     1.0000 0.28441  0.83598  0.08849  Biso   1.000  H
  C181     1.0000 0.75067  0.90628  0.25870  Biso   1.000  C
  C182     1.0000 0.63938  0.92604  0.34706  Biso   1.000  C
  H138     1.0000 0.71559  0.83598  0.41149  Biso   1.000  H
  C183     1.0000 0.23284  0.96285  0.25135  Biso   1.000  C
  H139     1.0000 0.21348  0.87650  0.27222  Biso   1.000  H
  C184     1.0000 0.34682  0.98299  0.16242  Biso   1.000  C
  H140     1.0000 0.41018  0.91161  0.11481  Biso   1.000  H
  C185     1.0000 0.76716  0.96285  0.24867  Biso   1.000  C
  H141     1.0000 0.78652  0.87650  0.22780  Biso   1.000  H
  C186     1.0000 0.65318  0.98299  0.33760  Biso   1.000  C
  H142     1.0000 0.58982  0.91161  0.38521  Biso   1.000  H
  C187     1.0000 0.15884  0.98228  0.30286  Biso   1.000  C
  C188     1.0000 0.28269  0.00112  0.21173  Biso   1.000  C
  C189     1.0000 0.39657  0.02284  0.11973  Biso   1.000  C
  C190     1.0000 0.84116  0.98228  0.19717  Biso   1.000  C
  C191     1.0000 0.71731  0.00112  0.28825  Biso   1.000  C
  C192     1.0000 0.60343  0.02284  0.38024  Biso   1.000  C
  C193     1.0000 0.05435  0.95225  0.32377  Biso   1.000  C
  C194     1.0000 0.19124  0.03166  0.33064  Biso   1.000  C
  H143     1.0000 0.27147  0.04522  0.21950  Biso   1.000  H
  C195     1.0000 0.51495  0.01468  0.09346  Biso   1.000  C
  C196     1.0000 0.32419  0.06868  0.10245  Biso   1.000  C
  C197     1.0000 0.94565  0.95225  0.17621  Biso   1.000  C
  C198     1.0000 0.80876  0.03166  0.16934  Biso   1.000  C
  H144     1.0000 0.72853  0.04522  0.28052  Biso   1.000  H
  C199     1.0000 0.48505  0.01468  0.40652  Biso   1.000  C
  C200     1.0000 0.67581  0.06868  0.39757  Biso   1.000  C
  H145     1.0000 0.02588  0.91431  0.30238  Biso   1.000  H
  C201     1.0000 0.98735  0.97026  0.37117  Biso   1.000  C
  C202     1.0000 0.12193  0.05004  0.37795  Biso   1.000  C
  H146     1.0000 0.27138  0.05578  0.31521  Biso   1.000  H
  H147     1.0000 0.57391  0.98020  0.10712  Biso   1.000  H
  C203     1.0000 0.55924  0.04967  0.05021  Biso   1.000  C
  C204     1.0000 0.36954  0.10379  0.05907  Biso   1.000  C
  H148     1.0000 0.23294  0.07700  0.12272  Biso   1.000  H
  H149     1.0000 0.97412  0.91431  0.19760  Biso   1.000  H
  C205     1.0000 0.01265  0.97026  0.12885  Biso   1.000  C
  C206     1.0000 0.87807  0.05004  0.12207  Biso   1.000  C
  H150     1.0000 0.72862  0.05578  0.18481  Biso   1.000  H
  H151     1.0000 0.42609  0.98020  0.39290  Biso   1.000  H
  C207     1.0000 0.44076  0.04967  0.44977  Biso   1.000  C
  C208     1.0000 0.63046  0.10379  0.44095  Biso   1.000  C
  H152     1.0000 0.76706  0.07700  0.37731  Biso   1.000  H
  H153     1.0000 0.90845  0.94580  0.38759  Biso   1.000  H
  C209     1.0000 0.01984  0.01901  0.39753  Biso   1.000  C
  C210     1.0000 0.16306  0.10275  0.40656  Biso   1.000  C
  C211     1.0000 0.48629  0.09476  0.03392  Biso   1.000  C
  C212     1.0000 0.68501  0.03752  0.02109  Biso   1.000  C
  H154     1.0000 0.31173  0.13852  0.04511  Biso   1.000  H
  C213     1.0000 0.98016  0.01901  0.10249  Biso   1.000  C
  H155     1.0000 0.09155  0.94580  0.11239  Biso   1.000  H
  C214     1.0000 0.83694  0.10275  0.09342  Biso   1.000  C
  C215     1.0000 0.51371  0.09476  0.46610  Biso   1.000  C
  C216     1.0000 0.31499  0.03752  0.47894  Biso   1.000  C
  H156     1.0000 0.68827  0.13852  0.45491  Biso   1.000  H
  H157     1.0000 0.96501  0.03340  0.43408  Biso   1.000  H
  S11      1.0000 0.20274  0.09372  0.48304  Biso   1.000  S
  H158     1.0000 0.24684  0.11839  0.38439  Biso   1.000  H
  H159     1.0000 0.08618  0.13261  0.40310  Biso   1.000  H
  H160     1.0000 0.52138  0.12300  0.00121  Biso   1.000  H
  H161     1.0000 0.66449  0.02421  0.97749  Biso   1.000  H
  S12      1.0000 0.79726  0.09372  0.01698  Biso   1.000  S
  H162     1.0000 0.73044  0.00399  0.04442  Biso   1.000  H
  H163     1.0000 0.03499  0.03340  0.06589  Biso   1.000  H
  H164     1.0000 0.75316  0.11839  0.11559  Biso   1.000  H
  H165     1.0000 0.91382  0.13261  0.09692  Biso   1.000  H
  H166     1.0000 0.47862  0.12300  0.49881  Biso   1.000  H
  H167     1.0000 0.26956  0.00399  0.45560  Biso   1.000  H
  H168     1.0000 0.33551  0.02421  0.52249  Biso   1.000  H
