data_image0
_cell_length_a       11.854
_cell_length_b       11.854
_cell_length_c       19.539
_cell_angle_alpha    90
_cell_angle_beta     90
_cell_angle_gamma    90

_symmetry_space_group_name_H-M    "P 1"
_symmetry_int_tables_number       1

loop_
  _symmetry_equiv_pos_as_xyz
  'x, y, z'

loop_
  _atom_site_label
  _atom_site_occupancy
  _atom_site_fract_x
  _atom_site_fract_y
  _atom_site_fract_z
  _atom_site_thermal_displace_type
  _atom_site_B_iso_or_equiv
  _atom_site_type_symbol
  C1       1.0000 0.26000  0.35296  0.49583  Biso   1.000  C
  C2       1.0000 0.23730  0.43572  0.44342  Biso   1.000  C
  H1       1.0000 0.33921  0.30800  0.49680  Biso   1.000  H
  C3       1.0000 0.17867  0.33373  0.54430  Biso   1.000  C
  C4       1.0000 0.32816  0.45453  0.38958  Biso   1.000  C
  C5       1.0000 0.13742  0.48827  0.44112  Biso   1.000  C
  C6       1.0000 0.07761  0.38814  0.54148  Biso   1.000  C
  C7       1.0000 0.20373  0.24793  0.60039  Biso   1.000  C
  H2       1.0000 0.40999  0.41429  0.39060  Biso   1.000  H
  H3       1.0000 0.27560  0.41378  0.35181  Biso   1.000  H
  H4       1.0000 0.33803  0.54252  0.37668  Biso   1.000  H
  C8       1.0000 0.05391  0.46946  0.49092  Biso   1.000  C
  H5       1.0000 0.12021  0.54606  0.39971  Biso   1.000  H
  C9       1.0000 0.98802  0.35920  0.59061  Biso   1.000  C
  C10      1.0000 0.18196  0.13590  0.58862  Biso   1.000  C
  C11      1.0000 0.23967  0.28092  0.66283  Biso   1.000  C
  C12      1.0000 0.94609  0.53054  0.49092  Biso   1.000  C
  N1       1.0000 0.91370  0.33398  0.62429  Biso   1.000  N
  H6       1.0000 0.15244  0.11051  0.53862  Biso   1.000  H
  C13      1.0000 0.19774  0.05348  0.63842  Biso   1.000  C
  C14      1.0000 0.25856  0.20314  0.71631  Biso   1.000  C
  C15      1.0000 0.25924  0.39978  0.67859  Biso   1.000  C
  C16      1.0000 0.92239  0.61186  0.54148  Biso   1.000  C
  C17      1.0000 0.86258  0.51173  0.44112  Biso   1.000  C
  C18      1.0000 0.23933  0.09119  0.70259  Biso   1.000  C
  C19      1.0000 0.17479  0.93057  0.62383  Biso   1.000  C
  C20      1.0000 0.29686  0.24144  0.78371  Biso   1.000  C
  N2       1.0000 0.27577  0.49013  0.69006  Biso   1.000  N
  C21      1.0000 0.01198  0.64080  0.59061  Biso   1.000  C
  C22      1.0000 0.82133  0.66627  0.54430  Biso   1.000  C
  H7       1.0000 0.87979  0.45394  0.39971  Biso   1.000  H
  C23      1.0000 0.76270  0.56428  0.44342  Biso   1.000  C
  H8       1.0000 0.25603  0.02953  0.74190  Biso   1.000  H
  H9       1.0000 0.15100  0.92543  0.57060  Biso   1.000  H
  H10      1.0000 0.26152  0.90408  0.62961  Biso   1.000  H
  H11      1.0000 0.12080  0.87641  0.65382  Biso   1.000  H
  C24      1.0000 0.40881  0.26067  0.79743  Biso   1.000  C
  C25      1.0000 0.21908  0.26033  0.83720  Biso   1.000  C
  N3       1.0000 0.08630  0.66602  0.62429  Biso   1.000  N
  C26      1.0000 0.74000  0.64704  0.49583  Biso   1.000  C
  C27      1.0000 0.79627  0.75207  0.60039  Biso   1.000  C
  C28      1.0000 0.67184  0.54547  0.38958  Biso   1.000  C
  C29      1.0000 0.44652  0.30226  0.86161  Biso   1.000  C
  H12      1.0000 0.47047  0.24397  0.75812  Biso   1.000  H
  C30      1.0000 0.25207  0.29627  0.89959  Biso   1.000  C
  C31      1.0000 0.10022  0.24076  0.82138  Biso   1.000  C
  H13      1.0000 0.66079  0.69200  0.49680  Biso   1.000  H
  C32      1.0000 0.81804  0.86410  0.58862  Biso   1.000  C
  C33      1.0000 0.76033  0.71908  0.66283  Biso   1.000  C
  H14      1.0000 0.59001  0.58571  0.39060  Biso   1.000  H
  H15      1.0000 0.72440  0.58622  0.35181  Biso   1.000  H
  H16      1.0000 0.66197  0.45748  0.37668  Biso   1.000  H
  C34      1.0000 0.36410  0.31804  0.91141  Biso   1.000  C
  C35      1.0000 0.56943  0.32521  0.87620  Biso   1.000  C
  C36      1.0000 0.16627  0.32133  0.95573  Biso   1.000  C
  N4       1.0000 0.00987  0.22423  0.80992  Biso   1.000  N
  H17      1.0000 0.84756  0.88949  0.53862  Biso   1.000  H
  C37      1.0000 0.80226  0.94652  0.63842  Biso   1.000  C
  C38      1.0000 0.74144  0.79686  0.71631  Biso   1.000  C
  C39      1.0000 0.74076  0.60022  0.67859  Biso   1.000  C
  H18      1.0000 0.38949  0.34756  0.96141  Biso   1.000  H
  H19      1.0000 0.57457  0.34900  0.92942  Biso   1.000  H
  H20      1.0000 0.59592  0.23848  0.87041  Biso   1.000  H
  H21      1.0000 0.62359  0.37920  0.84621  Biso   1.000  H
  C40      1.0000 0.11186  0.42239  0.95849  Biso   1.000  C
  C41      1.0000 0.14704  0.24000  0.00420  Biso   1.000  C
  C42      1.0000 0.76067  0.90881  0.70259  Biso   1.000  C
  C43      1.0000 0.82521  0.06943  0.62383  Biso   1.000  C
  C44      1.0000 0.70314  0.75856  0.78371  Biso   1.000  C
  N5       1.0000 0.72423  0.50987  0.69006  Biso   1.000  N
  C45      1.0000 0.14080  0.51198  0.90941  Biso   1.000  C
  C46      1.0000 0.03054  0.44609  0.00911  Biso   1.000  C
  C47      1.0000 0.06428  0.26270  0.05660  Biso   1.000  C
  H22      1.0000 0.19200  0.16079  0.00322  Biso   1.000  H
  H23      1.0000 0.74397  0.97047  0.74190  Biso   1.000  H
  H24      1.0000 0.84900  0.07457  0.57060  Biso   1.000  H
  H25      1.0000 0.73848  0.09592  0.62961  Biso   1.000  H
  H26      1.0000 0.87920  0.12359  0.65382  Biso   1.000  H
  C48      1.0000 0.59119  0.73933  0.79743  Biso   1.000  C
  C49      1.0000 0.78092  0.73967  0.83720  Biso   1.000  C
  N6       1.0000 0.16602  0.58630  0.87574  Biso   1.000  N
  C50      1.0000 0.96946  0.55391  0.00911  Biso   1.000  C
  C51      1.0000 0.01173  0.36258  0.05891  Biso   1.000  C
  C52      1.0000 0.04547  0.17184  0.11039  Biso   1.000  C
  C53      1.0000 0.55348  0.69774  0.86161  Biso   1.000  C
  H27      1.0000 0.52953  0.75603  0.75812  Biso   1.000  H
  C54      1.0000 0.74793  0.70373  0.89959  Biso   1.000  C
  C55      1.0000 0.89978  0.75924  0.82138  Biso   1.000  C
  C56      1.0000 0.88814  0.57761  0.95849  Biso   1.000  C
  C57      1.0000 0.98827  0.63742  0.05891  Biso   1.000  C
  H28      1.0000 0.95394  0.37979  0.10031  Biso   1.000  H
  H29      1.0000 0.95748  0.16197  0.12329  Biso   1.000  H
  H30      1.0000 0.08571  0.09001  0.10942  Biso   1.000  H
  H31      1.0000 0.08622  0.22440  0.14822  Biso   1.000  H
  C58      1.0000 0.63590  0.68196  0.91141  Biso   1.000  C
  C59      1.0000 0.43057  0.67479  0.87620  Biso   1.000  C
  C60      1.0000 0.83373  0.67867  0.95573  Biso   1.000  C
  N7       1.0000 0.99013  0.77577  0.80992  Biso   1.000  N
  C61      1.0000 0.85920  0.48802  0.90941  Biso   1.000  C
  C62      1.0000 0.93572  0.73730  0.05660  Biso   1.000  C
  H32      1.0000 0.04606  0.62021  0.10031  Biso   1.000  H
  H33      1.0000 0.61051  0.65244  0.96141  Biso   1.000  H
  H34      1.0000 0.42543  0.65100  0.92942  Biso   1.000  H
  H35      1.0000 0.40408  0.76152  0.87041  Biso   1.000  H
  H36      1.0000 0.37641  0.62080  0.84621  Biso   1.000  H
  C63      1.0000 0.85296  0.76000  0.00420  Biso   1.000  C
  N8       1.0000 0.83398  0.41370  0.87574  Biso   1.000  N
  C64      1.0000 0.95453  0.82816  0.11039  Biso   1.000  C
  H37      1.0000 0.80800  0.83921  0.00322  Biso   1.000  H
  H38      1.0000 0.91429  0.90999  0.10942  Biso   1.000  H
  H39      1.0000 0.91378  0.77560  0.14822  Biso   1.000  H
  H40      1.0000 0.04252  0.83803  0.12329  Biso   1.000  H
  N9       1.0000 0.33398  0.08630  0.37571  Biso   1.000  N
  C65      1.0000 0.35920  0.01198  0.40939  Biso   1.000  C
  C66      1.0000 0.38814  0.92239  0.45852  Biso   1.000  C
  C67      1.0000 0.46946  0.94609  0.50908  Biso   1.000  C
  C68      1.0000 0.33373  0.82133  0.45570  Biso   1.000  C
  C69      1.0000 0.53054  0.05391  0.50908  Biso   1.000  C
  C70      1.0000 0.48827  0.86258  0.55888  Biso   1.000  C
  C71      1.0000 0.35296  0.74000  0.50422  Biso   1.000  C
  C72      1.0000 0.24793  0.79627  0.39961  Biso   1.000  C
  C73      1.0000 0.61186  0.07761  0.45852  Biso   1.000  C
  C74      1.0000 0.51173  0.13742  0.55888  Biso   1.000  C
  H41      1.0000 0.54606  0.87979  0.60029  Biso   1.000  H
  C75      1.0000 0.43572  0.76270  0.55663  Biso   1.000  C
  H42      1.0000 0.30800  0.66079  0.50320  Biso   1.000  H
  C76      1.0000 0.13590  0.81804  0.41138  Biso   1.000  C
  C77      1.0000 0.28092  0.76033  0.33722  Biso   1.000  C
  C78      1.0000 0.66627  0.17867  0.45570  Biso   1.000  C
  C79      1.0000 0.64080  0.98802  0.40939  Biso   1.000  C
  C80      1.0000 0.56428  0.23730  0.55663  Biso   1.000  C
  H43      1.0000 0.45394  0.12021  0.60029  Biso   1.000  H
  C81      1.0000 0.45453  0.67184  0.61042  Biso   1.000  C
  H44      1.0000 0.11051  0.84756  0.46138  Biso   1.000  H
  C82      1.0000 0.05348  0.80226  0.36158  Biso   1.000  C
  C83      1.0000 0.20314  0.74144  0.28369  Biso   1.000  C
  C84      1.0000 0.39978  0.74076  0.32141  Biso   1.000  C
  C85      1.0000 0.75207  0.20373  0.39961  Biso   1.000  C
  C86      1.0000 0.64704  0.26000  0.50422  Biso   1.000  C
  N10      1.0000 0.66602  0.91370  0.37571  Biso   1.000  N
  C87      1.0000 0.54547  0.32816  0.61042  Biso   1.000  C
  H45      1.0000 0.41429  0.59001  0.60940  Biso   1.000  H
  H46      1.0000 0.41378  0.72440  0.64819  Biso   1.000  H
  H47      1.0000 0.54252  0.66197  0.62332  Biso   1.000  H
  C88      1.0000 0.93057  0.82521  0.37622  Biso   1.000  C
  C89      1.0000 0.09119  0.76067  0.29741  Biso   1.000  C
  C90      1.0000 0.24144  0.70314  0.21629  Biso   1.000  C
  N11      1.0000 0.49013  0.72423  0.30994  Biso   1.000  N
  C91      1.0000 0.71908  0.23967  0.33722  Biso   1.000  C
  C92      1.0000 0.86410  0.18196  0.41138  Biso   1.000  C
  H48      1.0000 0.69200  0.33921  0.50320  Biso   1.000  H
  H49      1.0000 0.58571  0.40999  0.60940  Biso   1.000  H
  H50      1.0000 0.58622  0.27560  0.64819  Biso   1.000  H
  H51      1.0000 0.45748  0.33803  0.62332  Biso   1.000  H
  H52      1.0000 0.92543  0.84900  0.42940  Biso   1.000  H
  H53      1.0000 0.90408  0.73848  0.37039  Biso   1.000  H
  H54      1.0000 0.87641  0.87920  0.34618  Biso   1.000  H
  H55      1.0000 0.02953  0.74397  0.25810  Biso   1.000  H
  C93      1.0000 0.26067  0.59119  0.20262  Biso   1.000  C
  C94      1.0000 0.26033  0.78092  0.16280  Biso   1.000  C
  C95      1.0000 0.60022  0.25924  0.32141  Biso   1.000  C
  C96      1.0000 0.79686  0.25856  0.28369  Biso   1.000  C
  H56      1.0000 0.88949  0.15244  0.46138  Biso   1.000  H
  C97      1.0000 0.94652  0.19774  0.36158  Biso   1.000  C
  C98      1.0000 0.30226  0.55348  0.13839  Biso   1.000  C
  H57      1.0000 0.24397  0.52953  0.24193  Biso   1.000  H
  C99      1.0000 0.29627  0.74793  0.10041  Biso   1.000  C
  C100     1.0000 0.24076  0.89978  0.17862  Biso   1.000  C
  N12      1.0000 0.50987  0.27577  0.30994  Biso   1.000  N
  C101     1.0000 0.90881  0.23933  0.29741  Biso   1.000  C
  C102     1.0000 0.75856  0.29686  0.21629  Biso   1.000  C
  C103     1.0000 0.06943  0.17479  0.37622  Biso   1.000  C
  C104     1.0000 0.31804  0.63590  0.08859  Biso   1.000  C
  C105     1.0000 0.32521  0.43057  0.12380  Biso   1.000  C
  C106     1.0000 0.32133  0.83373  0.04432  Biso   1.000  C
  N13      1.0000 0.22423  0.99013  0.19008  Biso   1.000  N
  H58      1.0000 0.97047  0.25603  0.25810  Biso   1.000  H
  C107     1.0000 0.73933  0.40881  0.20262  Biso   1.000  C
  C108     1.0000 0.73967  0.21908  0.16280  Biso   1.000  C
  H59      1.0000 0.07457  0.15100  0.42940  Biso   1.000  H
  H60      1.0000 0.09592  0.26152  0.37039  Biso   1.000  H
  H61      1.0000 0.12359  0.12080  0.34618  Biso   1.000  H
  H62      1.0000 0.34756  0.61051  0.03859  Biso   1.000  H
  H63      1.0000 0.34900  0.42543  0.07058  Biso   1.000  H
  H64      1.0000 0.23848  0.40408  0.12959  Biso   1.000  H
  H65      1.0000 0.37920  0.37641  0.15379  Biso   1.000  H
  C109     1.0000 0.42239  0.88814  0.04151  Biso   1.000  C
  C110     1.0000 0.24000  0.85296  0.99580  Biso   1.000  C
  C111     1.0000 0.69774  0.44652  0.13839  Biso   1.000  C
  H66      1.0000 0.75603  0.47047  0.24193  Biso   1.000  H
  C112     1.0000 0.70373  0.25207  0.10041  Biso   1.000  C
  C113     1.0000 0.75924  0.10022  0.17862  Biso   1.000  C
  C114     1.0000 0.44609  0.96946  0.99089  Biso   1.000  C
  C115     1.0000 0.51198  0.85920  0.09059  Biso   1.000  C
  C116     1.0000 0.26270  0.93572  0.94340  Biso   1.000  C
  H67      1.0000 0.16079  0.80800  0.99683  Biso   1.000  H
  C117     1.0000 0.68196  0.36410  0.08859  Biso   1.000  C
  C118     1.0000 0.67479  0.56943  0.12380  Biso   1.000  C
  C119     1.0000 0.67867  0.16627  0.04432  Biso   1.000  C
  N14      1.0000 0.77577  0.00987  0.19008  Biso   1.000  N
  C120     1.0000 0.55391  0.03054  0.99089  Biso   1.000  C
  C121     1.0000 0.36258  0.98827  0.94109  Biso   1.000  C
  N15      1.0000 0.58630  0.83398  0.12426  Biso   1.000  N
  C122     1.0000 0.17184  0.95453  0.88961  Biso   1.000  C
  H68      1.0000 0.65244  0.38949  0.03859  Biso   1.000  H
  H69      1.0000 0.65100  0.57457  0.07058  Biso   1.000  H
  H70      1.0000 0.76152  0.59592  0.12959  Biso   1.000  H
  H71      1.0000 0.62080  0.62359  0.15379  Biso   1.000  H
  C123     1.0000 0.57761  0.11186  0.04151  Biso   1.000  C
  C124     1.0000 0.76000  0.14704  0.99580  Biso   1.000  C
  C125     1.0000 0.63742  0.01173  0.94109  Biso   1.000  C
  H72      1.0000 0.37979  0.04606  0.89969  Biso   1.000  H
  H73      1.0000 0.09001  0.91429  0.89063  Biso   1.000  H
  H74      1.0000 0.22440  0.91378  0.85178  Biso   1.000  H
  H75      1.0000 0.16197  0.04252  0.87671  Biso   1.000  H
  C126     1.0000 0.48802  0.14080  0.09059  Biso   1.000  C
  C127     1.0000 0.73730  0.06428  0.94340  Biso   1.000  C
  H76      1.0000 0.83921  0.19200  0.99683  Biso   1.000  H
  H77      1.0000 0.62021  0.95394  0.89969  Biso   1.000  H
  N16      1.0000 0.41370  0.16602  0.12426  Biso   1.000  N
  C128     1.0000 0.82816  0.04547  0.88961  Biso   1.000  C
  H78      1.0000 0.83803  0.95748  0.87671  Biso   1.000  H
  H79      1.0000 0.90999  0.08571  0.89063  Biso   1.000  H
  H80      1.0000 0.77560  0.08622  0.85178  Biso   1.000  H
