data_image0
_cell_length_a       10.202
_cell_length_b       13.245
_cell_length_c       16.436
_cell_angle_alpha    74.97
_cell_angle_beta     84.27
_cell_angle_gamma    73.95

_symmetry_space_group_name_H-M    "P 1"
_symmetry_int_tables_number       1

loop_
  _symmetry_equiv_pos_as_xyz
  'x, y, z'

loop_
  _atom_site_label
  _atom_site_occupancy
  _atom_site_fract_x
  _atom_site_fract_y
  _atom_site_fract_z
  _atom_site_thermal_displace_type
  _atom_site_B_iso_or_equiv
  _atom_site_type_symbol
  C1       1.0000 0.61534  0.36243  0.56616  Biso   1.000  C
  C2       1.0000 0.54369  0.30108  0.52576  Biso   1.000  C
  C3       1.0000 0.55297  0.41265  0.63045  Biso   1.000  C
  C4       1.0000 0.74958  0.36741  0.54259  Biso   1.000  C
  C5       1.0000 0.38775  0.33076  0.53868  Biso   1.000  C
  C6       1.0000 0.60335  0.17912  0.55740  Biso   1.000  C
  H1       1.0000 0.56375  0.32025  0.46368  Biso   1.000  H
  H2       1.0000 0.46192  0.41038  0.64759  Biso   1.000  H
  C7       1.0000 0.61746  0.46583  0.67085  Biso   1.000  C
  O1       1.0000 0.82012  0.32685  0.47604  Biso   1.000  O
  C8       1.0000 0.81790  0.41625  0.58230  Biso   1.000  C
  C9       1.0000 0.31921  0.27501  0.49141  Biso   1.000  C
  H3       1.0000 0.35149  0.41024  0.51908  Biso   1.000  H
  H4       1.0000 0.36445  0.30988  0.59969  Biso   1.000  H
  C10      1.0000 0.56850  0.12478  0.63757  Biso   1.000  C
  C11      1.0000 0.69363  0.11804  0.50780  Biso   1.000  C
  C12      1.0000 0.75345  0.46513  0.64659  Biso   1.000  C
  C13      1.0000 0.54679  0.51968  0.74138  Biso   1.000  C
  H5       1.0000 0.77713  0.28906  0.46141  Biso   1.000  H
  H6       1.0000 0.90979  0.41664  0.56591  Biso   1.000  H
  C14      1.0000 0.16785  0.29731  0.51240  Biso   1.000  C
  H7       1.0000 0.36114  0.19604  0.50686  Biso   1.000  H
  H8       1.0000 0.33392  0.30168  0.42996  Biso   1.000  H
  H9       1.0000 0.50842  0.16537  0.67249  Biso   1.000  H
  C15      1.0000 0.61773  0.01342  0.66896  Biso   1.000  C
  O2       1.0000 0.73214  0.17406  0.42984  Biso   1.000  O
  C16      1.0000 0.74758  0.00624  0.53711  Biso   1.000  C
  O3       1.0000 0.82989  0.51303  0.68175  Biso   1.000  O
  H10      1.0000 0.57480  0.58828  0.73350  Biso   1.000  H
  C17      1.0000 0.59930  0.44627  0.82678  Biso   1.000  C
  C18      1.0000 0.38996  0.55009  0.73810  Biso   1.000  C
  O4       1.0000 0.10507  0.24631  0.46627  Biso   1.000  O
  H11      1.0000 0.12580  0.37645  0.49791  Biso   1.000  H
  H12      1.0000 0.15272  0.26945  0.57360  Biso   1.000  H
  C19      1.0000 0.57400  0.95763  0.75757  Biso   1.000  C
  C20      1.0000 0.70983  0.95516  0.61766  Biso   1.000  C
  H13      1.0000 0.78623  0.13033  0.40501  Biso   1.000  H
  H14      1.0000 0.80880  0.96587  0.50251  Biso   1.000  H
  H15      1.0000 0.78698  0.53297  0.72367  Biso   1.000  H
  C21      1.0000 0.55819  0.35132  0.86100  Biso   1.000  C
  C22      1.0000 0.69151  0.46969  0.87216  Biso   1.000  C
  H16      1.0000 0.35927  0.48307  0.74818  Biso   1.000  H
  H17      1.0000 0.36214  0.59399  0.68087  Biso   1.000  H
  C23      1.0000 0.31867  0.61380  0.80270  Biso   1.000  C
  H18      1.0000 0.02129  0.25796  0.47906  Biso   1.000  H
  C24      1.0000 0.64224  0.98595  0.82407  Biso   1.000  C
  H19      1.0000 0.60775  0.87779  0.76369  Biso   1.000  H
  C25      1.0000 0.41788  0.98495  0.76898  Biso   1.000  C
  O5       1.0000 0.76556  0.84699  0.65270  Biso   1.000  O
  H20      1.0000 0.49665  0.33377  0.83056  Biso   1.000  H
  C26      1.0000 0.60355  0.28104  0.93808  Biso   1.000  C
  O6       1.0000 0.73733  0.56025  0.83617  Biso   1.000  O
  C27      1.0000 0.73973  0.40060  0.94898  Biso   1.000  C
  H21      1.0000 0.35516  0.67741  0.79646  Biso   1.000  H
  H22      1.0000 0.33775  0.56736  0.86024  Biso   1.000  H
  C28      1.0000 0.16647  0.65109  0.79066  Biso   1.000  C
  C29      1.0000 0.57365  0.06457  0.86730  Biso   1.000  C
  C30      1.0000 0.77779  0.93348  0.84499  Biso   1.000  C
  H23      1.0000 0.38190  0.06442  0.75928  Biso   1.000  H
  H24      1.0000 0.39400  0.95213  0.82797  Biso   1.000  H
  C31      1.0000 0.34764  0.94505  0.70967  Biso   1.000  C
  H25      1.0000 0.80488  0.81647  0.61469  Biso   1.000  H
  C32      1.0000 0.55338  0.17873  0.97375  Biso   1.000  C
  C33      1.0000 0.69513  0.30826  0.98138  Biso   1.000  C
  H26      1.0000 0.79555  0.56446  0.86705  Biso   1.000  H
  H27      1.0000 0.80305  0.41699  0.97886  Biso   1.000  H
  O7       1.0000 0.09933  0.70115  0.85747  Biso   1.000  O
  H28      1.0000 0.13133  0.58850  0.79110  Biso   1.000  H
  H29      1.0000 0.14673  0.70379  0.73545  Biso   1.000  H
  H30      1.0000 0.48243  0.10304  0.85249  Biso   1.000  H
  C34      1.0000 0.63058  0.08986  0.93039  Biso   1.000  C
  O8       1.0000 0.85847  0.85506  0.80541  Biso   1.000  O
  C35      1.0000 0.83882  0.95528  0.90745  Biso   1.000  C
  H31      1.0000 0.38650  0.86629  0.71636  Biso   1.000  H
  H32      1.0000 0.36412  0.98194  0.65049  Biso   1.000  H
  C36      1.0000 0.19683  0.96823  0.72959  Biso   1.000  C
  C37      1.0000 0.39685  0.20546  0.96890  Biso   1.000  C
  H33      1.0000 0.57599  0.15258  0.03476  Biso   1.000  H
  O9       1.0000 0.74063  0.23702  0.05676  Biso   1.000  O
  H34      1.0000 0.02571  0.74605  0.84020  Biso   1.000  H
  C38      1.0000 0.76615  0.03098  0.95144  Biso   1.000  C
  H35      1.0000 0.82181  0.85864  0.76085  Biso   1.000  H
  H36      1.0000 0.93113  0.91838  0.92050  Biso   1.000  H
  H37      1.0000 0.15967  0.04671  0.72581  Biso   1.000  H
  O10      1.0000 0.12680  0.93673  0.67280  Biso   1.000  O
  H38      1.0000 0.18086  0.92869  0.78795  Biso   1.000  H
  H39      1.0000 0.36699  0.13796  0.99014  Biso   1.000  H
  H40      1.0000 0.37055  0.23577  0.90940  Biso   1.000  H
  C39      1.0000 0.32413  0.28700  0.02090  Biso   1.000  C
  H41      1.0000 0.78806  0.26345  0.08014  Biso   1.000  H
  O11      1.0000 0.83254  0.04200  0.01623  Biso   1.000  O
  H42      1.0000 0.05309  0.98392  0.65951  Biso   1.000  H
  H43      1.0000 0.36926  0.34674  0.00917  Biso   1.000  H
  H44      1.0000 0.33247  0.25072  0.08165  Biso   1.000  H
  C40      1.0000 0.17398  0.33331  0.00035  Biso   1.000  C
  H45      1.0000 0.79285  0.10073  0.02897  Biso   1.000  H
  H46      1.0000 0.16520  0.37216  0.94016  Biso   1.000  H
  O12      1.0000 0.10906  0.40689  0.05266  Biso   1.000  O
  H47      1.0000 0.12873  0.27372  0.01056  Biso   1.000  H
  H48      1.0000 0.04472  0.38542  0.08128  Biso   1.000  H
  C41      1.0000 0.38463  0.63768  0.43381  Biso   1.000  C
  C42      1.0000 0.44692  0.58748  0.36946  Biso   1.000  C
  C43      1.0000 0.45629  0.69902  0.47421  Biso   1.000  C
  C44      1.0000 0.25040  0.63269  0.45738  Biso   1.000  C
  C45      1.0000 0.38255  0.53422  0.32906  Biso   1.000  C
  H49      1.0000 0.53805  0.58973  0.35238  Biso   1.000  H
  C46      1.0000 0.39662  0.82098  0.44257  Biso   1.000  C
  H50      1.0000 0.43613  0.67985  0.53629  Biso   1.000  H
  C47      1.0000 0.61223  0.66934  0.46129  Biso   1.000  C
  C48      1.0000 0.18208  0.58386  0.41767  Biso   1.000  C
  O13      1.0000 0.17985  0.67325  0.52394  Biso   1.000  O
  C49      1.0000 0.45318  0.48042  0.25860  Biso   1.000  C
  C50      1.0000 0.24643  0.53497  0.35339  Biso   1.000  C
  C51      1.0000 0.43148  0.87533  0.36240  Biso   1.000  C
  C52      1.0000 0.30634  0.88206  0.49217  Biso   1.000  C
  H51      1.0000 0.64848  0.58986  0.48089  Biso   1.000  H
  H52      1.0000 0.63542  0.69022  0.40028  Biso   1.000  H
  C53      1.0000 0.68077  0.72510  0.50856  Biso   1.000  C
  H53      1.0000 0.09019  0.58347  0.43406  Biso   1.000  H
  H54      1.0000 0.22275  0.71104  0.53856  Biso   1.000  H
  C54      1.0000 0.40067  0.55384  0.17320  Biso   1.000  C
  H55      1.0000 0.42518  0.41182  0.26647  Biso   1.000  H
  C55      1.0000 0.61001  0.45002  0.26187  Biso   1.000  C
  O14      1.0000 0.17011  0.48700  0.31822  Biso   1.000  O
  H56      1.0000 0.49156  0.83474  0.32748  Biso   1.000  H
  C56      1.0000 0.38224  0.98668  0.33101  Biso   1.000  C
  O15      1.0000 0.26774  0.82605  0.57013  Biso   1.000  O
  C57      1.0000 0.25230  0.99387  0.46286  Biso   1.000  C
  H57      1.0000 0.63883  0.80407  0.49312  Biso   1.000  H
  H58      1.0000 0.66605  0.69842  0.57001  Biso   1.000  H
  C58      1.0000 0.83212  0.70280  0.48757  Biso   1.000  C
  C59      1.0000 0.30846  0.53041  0.12782  Biso   1.000  C
  C60      1.0000 0.44182  0.64871  0.13897  Biso   1.000  C
  H59      1.0000 0.64061  0.51703  0.25179  Biso   1.000  H
  H60      1.0000 0.63774  0.40612  0.31910  Biso   1.000  H
  C61      1.0000 0.68130  0.38631  0.19727  Biso   1.000  C
  H61      1.0000 0.21300  0.46713  0.27631  Biso   1.000  H
  C62      1.0000 0.42600  0.04240  0.24240  Biso   1.000  C
  C63      1.0000 0.29015  0.04495  0.38232  Biso   1.000  C
  H62      1.0000 0.21374  0.86977  0.59497  Biso   1.000  H
  H63      1.0000 0.19117  0.03424  0.49747  Biso   1.000  H
  O16      1.0000 0.89494  0.75372  0.53371  Biso   1.000  O
  H64      1.0000 0.87418  0.62365  0.50207  Biso   1.000  H
  H65      1.0000 0.84726  0.73065  0.42637  Biso   1.000  H
  O17      1.0000 0.26264  0.43986  0.16380  Biso   1.000  O
  C64      1.0000 0.26024  0.59951  0.05099  Biso   1.000  C
  H66      1.0000 0.50332  0.66634  0.16941  Biso   1.000  H
  C65      1.0000 0.39642  0.71906  0.06189  Biso   1.000  C
  H67      1.0000 0.64481  0.32269  0.20351  Biso   1.000  H
  H68      1.0000 0.66223  0.43276  0.13967  Biso   1.000  H
  C66      1.0000 0.83341  0.34901  0.20931  Biso   1.000  C
  C67      1.0000 0.35773  0.01415  0.17591  Biso   1.000  C
  H69      1.0000 0.39222  0.12231  0.23629  Biso   1.000  H
  C68      1.0000 0.58210  0.01515  0.23099  Biso   1.000  C
  O18      1.0000 0.23441  0.15312  0.34727  Biso   1.000  O
  H70      1.0000 0.97868  0.74215  0.52091  Biso   1.000  H
  H71      1.0000 0.20443  0.43565  0.13292  Biso   1.000  H
  H72      1.0000 0.19692  0.58312  0.02111  Biso   1.000  H
  C69      1.0000 0.30484  0.69185  0.01859  Biso   1.000  C
  C70      1.0000 0.44662  0.82130  0.02622  Biso   1.000  C
  O19      1.0000 0.90065  0.29895  0.14250  Biso   1.000  O
  H73      1.0000 0.86865  0.41161  0.20887  Biso   1.000  H
  H74      1.0000 0.85325  0.29631  0.26452  Biso   1.000  H
  C71      1.0000 0.42633  0.93554  0.13267  Biso   1.000  C
  C72      1.0000 0.22219  0.06663  0.15498  Biso   1.000  C
  H75      1.0000 0.61808  0.93569  0.24070  Biso   1.000  H
  H76      1.0000 0.60600  0.04790  0.17200  Biso   1.000  H
  C73      1.0000 0.65233  0.05506  0.29030  Biso   1.000  C
  H77      1.0000 0.19510  0.18363  0.38528  Biso   1.000  H
  O20      1.0000 0.25935  0.76308  0.94321  Biso   1.000  O
  C74      1.0000 0.36940  0.91024  0.06958  Biso   1.000  C
  C75      1.0000 0.60312  0.79465  0.03107  Biso   1.000  C
  H78      1.0000 0.42402  0.84744  0.96521  Biso   1.000  H
  H79      1.0000 0.97427  0.25406  0.15977  Biso   1.000  H
  H80      1.0000 0.51754  0.89707  0.14748  Biso   1.000  H
  C76      1.0000 0.16106  0.04483  0.09252  Biso   1.000  C
  O21      1.0000 0.14151  0.14504  0.19456  Biso   1.000  O
  H81      1.0000 0.61347  0.13381  0.28362  Biso   1.000  H
  H82      1.0000 0.63576  0.01817  0.34948  Biso   1.000  H
  C77      1.0000 0.80304  0.03188  0.27038  Biso   1.000  C
  H83      1.0000 0.21192  0.73666  0.91983  Biso   1.000  H
  C78      1.0000 0.23383  0.96914  0.04847  Biso   1.000  C
  H84      1.0000 0.63299  0.86217  0.00977  Biso   1.000  H
  H85      1.0000 0.62943  0.76434  0.09057  Biso   1.000  H
  C79      1.0000 0.67575  0.71311  0.97908  Biso   1.000  C
  H86      1.0000 0.06885  0.08173  0.07948  Biso   1.000  H
  H87      1.0000 0.17817  0.14146  0.23912  Biso   1.000  H
  H88      1.0000 0.84031  0.95339  0.27416  Biso   1.000  H
  O22      1.0000 0.87317  0.06338  0.32717  Biso   1.000  O
  H89      1.0000 0.81912  0.07142  0.21202  Biso   1.000  H
  O23      1.0000 0.16734  0.95810  0.98374  Biso   1.000  O
  H90      1.0000 0.63071  0.65336  0.99080  Biso   1.000  H
  H91      1.0000 0.66750  0.74938  0.91832  Biso   1.000  H
  C80      1.0000 0.82600  0.66680  0.99962  Biso   1.000  C
  H92      1.0000 0.94688  0.01618  0.34047  Biso   1.000  H
  H93      1.0000 0.20713  0.89938  0.97101  Biso   1.000  H
  H94      1.0000 0.83477  0.62795  0.05981  Biso   1.000  H
  O24      1.0000 0.89095  0.59313  0.94731  Biso   1.000  O
  H95      1.0000 0.87114  0.72639  0.98941  Biso   1.000  H
  H96      1.0000 0.95525  0.61469  0.91870  Biso   1.000  H
