data_image0
_cell_length_a       14.606
_cell_length_b       14.606
_cell_length_c       24.957
_cell_angle_alpha    90
_cell_angle_beta     90
_cell_angle_gamma    90

_symmetry_space_group_name_H-M    "P 1"
_symmetry_int_tables_number       1

loop_
  _symmetry_equiv_pos_as_xyz
  'x, y, z'

loop_
  _atom_site_label
  _atom_site_occupancy
  _atom_site_fract_x
  _atom_site_fract_y
  _atom_site_fract_z
  _atom_site_thermal_displace_type
  _atom_site_B_iso_or_equiv
  _atom_site_type_symbol
  C1       1.0000 0.49391  0.49391  0.43146  Biso   1.000  C
  H1       1.0000 0.44913  0.44913  0.42309  Biso   1.000  H
  C2       1.0000 0.58469  0.46899  0.43755  Biso   1.000  C
  C3       1.0000 0.46899  0.58469  0.43755  Biso   1.000  C
  O1       1.0000 0.61030  0.37841  0.43282  Biso   1.000  O
  C4       1.0000 0.65199  0.53348  0.44873  Biso   1.000  C
  O2       1.0000 0.37841  0.61030  0.43282  Biso   1.000  O
  C5       1.0000 0.53348  0.65199  0.44873  Biso   1.000  C
  H2       1.0000 0.56408  0.34479  0.43671  Biso   1.000  H
  C6       1.0000 0.75058  0.50294  0.45731  Biso   1.000  C
  C7       1.0000 0.62426  0.62426  0.45318  Biso   1.000  C
  H3       1.0000 0.34479  0.56408  0.43671  Biso   1.000  H
  C8       1.0000 0.50294  0.75058  0.45731  Biso   1.000  C
  C9       1.0000 0.80638  0.57524  0.48660  Biso   1.000  C
  H4       1.0000 0.74812  0.44831  0.48139  Biso   1.000  H
  C10      1.0000 0.79844  0.47227  0.40606  Biso   1.000  C
  H5       1.0000 0.66959  0.66959  0.45951  Biso   1.000  H
  C11      1.0000 0.57524  0.80638  0.48660  Biso   1.000  C
  H6       1.0000 0.44831  0.74812  0.48139  Biso   1.000  H
  C12      1.0000 0.47227  0.79844  0.40606  Biso   1.000  C
  C13      1.0000 0.79166  0.59250  0.54069  Biso   1.000  C
  C14      1.0000 0.87279  0.62721  0.46107  Biso   1.000  C
  C15      1.0000 0.87882  0.42092  0.41003  Biso   1.000  C
  C16      1.0000 0.76982  0.49569  0.35589  Biso   1.000  C
  C17      1.0000 0.59250  0.79166  0.54069  Biso   1.000  C
  C18      1.0000 0.62721  0.87279  0.46107  Biso   1.000  C
  C19      1.0000 0.42092  0.87882  0.41003  Biso   1.000  C
  C20      1.0000 0.49569  0.76982  0.35589  Biso   1.000  C
  O3       1.0000 0.72628  0.54368  0.56762  Biso   1.000  O
  C21      1.0000 0.84137  0.65863  0.56750  Biso   1.000  C
  C22      1.0000 0.92476  0.69362  0.48660  Biso   1.000  C
  H7       1.0000 0.88327  0.61673  0.42401  Biso   1.000  H
  H8       1.0000 0.90059  0.40360  0.44440  Biso   1.000  H
  C23      1.0000 0.92722  0.39491  0.36539  Biso   1.000  C
  C24      1.0000 0.81788  0.46878  0.31013  Biso   1.000  C
  H9       1.0000 0.71580  0.53122  0.35201  Biso   1.000  H
  O4       1.0000 0.54368  0.72628  0.56762  Biso   1.000  O
  C25      1.0000 0.65863  0.84137  0.56750  Biso   1.000  C
  C26      1.0000 0.69362  0.92476  0.48660  Biso   1.000  C
  H10      1.0000 0.61673  0.88327  0.42401  Biso   1.000  H
  H11      1.0000 0.40360  0.90059  0.44440  Biso   1.000  H
  C27      1.0000 0.39491  0.92722  0.36539  Biso   1.000  C
  C28      1.0000 0.46878  0.81788  0.31013  Biso   1.000  C
  H12      1.0000 0.53122  0.71580  0.35201  Biso   1.000  H
  H13      1.0000 0.72847  0.55669  0.60039  Biso   1.000  H
  H14      1.0000 0.83007  0.66993  0.60440  Biso   1.000  H
  C29      1.0000 0.90750  0.70834  0.54069  Biso   1.000  C
  C30      1.0000 0.99706  0.74942  0.45731  Biso   1.000  C
  H15      1.0000 0.98213  0.36061  0.36932  Biso   1.000  H
  C31      1.0000 0.89662  0.41818  0.31514  Biso   1.000  C
  H16      1.0000 0.79611  0.48562  0.27559  Biso   1.000  H
  H17      1.0000 0.55669  0.72847  0.60039  Biso   1.000  H
  H18      1.0000 0.66993  0.83007  0.60440  Biso   1.000  H
  C32      1.0000 0.70834  0.90750  0.54069  Biso   1.000  C
  C33      1.0000 0.74942  0.99706  0.45731  Biso   1.000  C
  H19      1.0000 0.36061  0.98213  0.36932  Biso   1.000  H
  C34      1.0000 0.41818  0.89662  0.31514  Biso   1.000  C
  H20      1.0000 0.48562  0.79611  0.27559  Biso   1.000  H
  O5       1.0000 0.95632  0.77372  0.56762  Biso   1.000  O
  C35      1.0000 0.96652  0.84801  0.44873  Biso   1.000  C
  H21      1.0000 0.05169  0.75188  0.48139  Biso   1.000  H
  C36      1.0000 0.02773  0.70156  0.40606  Biso   1.000  C
  O6       1.0000 0.94790  0.38943  0.27219  Biso   1.000  O
  O7       1.0000 0.77372  0.95632  0.56762  Biso   1.000  O
  C37      1.0000 0.84801  0.96652  0.44873  Biso   1.000  C
  H22      1.0000 0.75188  0.05169  0.48139  Biso   1.000  H
  C38      1.0000 0.70156  0.02773  0.40606  Biso   1.000  C
  O8       1.0000 0.38943  0.94790  0.27219  Biso   1.000  O
  H23      1.0000 0.94331  0.77153  0.60039  Biso   1.000  H
  C39      1.0000 0.87574  0.87574  0.45318  Biso   1.000  C
  C40      1.0000 0.03101  0.91531  0.43755  Biso   1.000  C
  C41      1.0000 0.07908  0.62118  0.41003  Biso   1.000  C
  C42      1.0000 0.00431  0.73018  0.35589  Biso   1.000  C
  H24      1.0000 0.91421  0.38512  0.24498  Biso   1.000  H
  H25      1.0000 0.77153  0.94331  0.60039  Biso   1.000  H
  C43      1.0000 0.91531  0.03101  0.43755  Biso   1.000  C
  C44      1.0000 0.62118  0.07908  0.41003  Biso   1.000  C
  C45      1.0000 0.73018  0.00431  0.35589  Biso   1.000  C
  H26      1.0000 0.38512  0.91421  0.24498  Biso   1.000  H
  H27      1.0000 0.83041  0.83041  0.45951  Biso   1.000  H
  O9       1.0000 0.12159  0.88970  0.43282  Biso   1.000  O
  C46      1.0000 0.00609  0.00609  0.43146  Biso   1.000  C
  H28      1.0000 0.09640  0.59941  0.44440  Biso   1.000  H
  C47      1.0000 0.10509  0.57278  0.36539  Biso   1.000  C
  H29      1.0000 0.96878  0.78420  0.35201  Biso   1.000  H
  C48      1.0000 0.03122  0.68212  0.31013  Biso   1.000  C
  O10      1.0000 0.88970  0.12159  0.43282  Biso   1.000  O
  H30      1.0000 0.59941  0.09640  0.44440  Biso   1.000  H
  C49      1.0000 0.57278  0.10509  0.36539  Biso   1.000  C
  H31      1.0000 0.78420  0.96878  0.35201  Biso   1.000  H
  C50      1.0000 0.68212  0.03122  0.31013  Biso   1.000  C
  H32      1.0000 0.15521  0.93592  0.43671  Biso   1.000  H
  H33      1.0000 0.05087  0.05087  0.42309  Biso   1.000  H
  H34      1.0000 0.13939  0.51787  0.36932  Biso   1.000  H
  C51      1.0000 0.08182  0.60338  0.31514  Biso   1.000  C
  H35      1.0000 0.01438  0.70389  0.27559  Biso   1.000  H
  H36      1.0000 0.93592  0.15521  0.43671  Biso   1.000  H
  H37      1.0000 0.51787  0.13939  0.36932  Biso   1.000  H
  C52      1.0000 0.60338  0.08182  0.31514  Biso   1.000  C
  H38      1.0000 0.70389  0.01438  0.27559  Biso   1.000  H
  O11      1.0000 0.11057  0.55210  0.27219  Biso   1.000  O
  O12      1.0000 0.55210  0.11057  0.27219  Biso   1.000  O
  H39      1.0000 0.11488  0.58579  0.24498  Biso   1.000  H
  H40      1.0000 0.58579  0.11488  0.24498  Biso   1.000  H
