data_image0
_cell_length_a       26.04
_cell_length_b       9.036
_cell_length_c       12.888
_cell_angle_alpha    90
_cell_angle_beta     90
_cell_angle_gamma    90

_symmetry_space_group_name_H-M    "P 1"
_symmetry_int_tables_number       1

loop_
  _symmetry_equiv_pos_as_xyz
  'x, y, z'

loop_
  _atom_site_label
  _atom_site_occupancy
  _atom_site_fract_x
  _atom_site_fract_y
  _atom_site_fract_z
  _atom_site_thermal_displace_type
  _atom_site_B_iso_or_equiv
  _atom_site_type_symbol
  C1       1.0000 0.47638  0.30876  0.60599  Biso   1.000  C
  N1       1.0000 0.49919  0.18625  0.61522  Biso   1.000  N
  C2       1.0000 0.42051  0.31463  0.60343  Biso   1.000  C
  H1       1.0000 0.49589  0.39863  0.60071  Biso   1.000  H
  C3       1.0000 0.55530  0.18858  0.62089  Biso   1.000  C
  O1       1.0000 0.39881  0.45186  0.60878  Biso   1.000  O
  C4       1.0000 0.38360  0.20905  0.60312  Biso   1.000  C
  C5       1.0000 0.57819  0.10525  0.52871  Biso   1.000  C
  H2       1.0000 0.56701  0.28929  0.61980  Biso   1.000  H
  H3       1.0000 0.56621  0.14221  0.68420  Biso   1.000  H
  C6       1.0000 0.34670  0.43050  0.61383  Biso   1.000  C
  C7       1.0000 0.33560  0.28375  0.60948  Biso   1.000  C
  H4       1.0000 0.38890  0.10403  0.59932  Biso   1.000  H
  N2       1.0000 0.57350  0.19090  0.43319  Biso   1.000  N
  H5       1.0000 0.56048  0.01295  0.52048  Biso   1.000  H
  H6       1.0000 0.61390  0.08665  0.54198  Biso   1.000  H
  C8       1.0000 0.31540  0.56208  0.62942  Biso   1.000  C
  H7       1.0000 0.30211  0.23938  0.61049  Biso   1.000  H
  C9       1.0000 0.56889  0.09495  0.34257  Biso   1.000  C
  C10      1.0000 0.61540  0.29825  0.42132  Biso   1.000  C
  N3       1.0000 0.26770  0.55157  0.64657  Biso   1.000  N
  H8       1.0000 0.33118  0.65815  0.62647  Biso   1.000  H
  C11      1.0000 0.51409  0.04338  0.32488  Biso   1.000  C
  H9       1.0000 0.58018  0.14852  0.28243  Biso   1.000  H
  H10      1.0000 0.59040  0.00974  0.35250  Biso   1.000  H
  C12      1.0000 0.59831  0.43172  0.36010  Biso   1.000  C
  H11      1.0000 0.62650  0.32968  0.48883  Biso   1.000  H
  H12      1.0000 0.64339  0.25155  0.38571  Biso   1.000  H
  C13      1.0000 0.23902  0.68725  0.66480  Biso   1.000  C
  N4       1.0000 0.48210  0.16589  0.28810  Biso   1.000  N
  H13      1.0000 0.50031  0.00664  0.38897  Biso   1.000  H
  H14      1.0000 0.51402  0.96580  0.27413  Biso   1.000  H
  N5       1.0000 0.56571  0.52922  0.42179  Biso   1.000  N
  H15      1.0000 0.57930  0.39885  0.30051  Biso   1.000  H
  H16      1.0000 0.62800  0.48583  0.33799  Biso   1.000  H
  C14      1.0000 0.20300  0.71846  0.57596  Biso   1.000  C
  H17      1.0000 0.21939  0.67685  0.72750  Biso   1.000  H
  H18      1.0000 0.26260  0.76815  0.67187  Biso   1.000  H
  C15      1.0000 0.44101  0.19068  0.33543  Biso   1.000  C
  C16      1.0000 0.52220  0.56175  0.38509  Biso   1.000  C
  N6       1.0000 0.22969  0.77269  0.48301  Biso   1.000  N
  H19      1.0000 0.17869  0.79205  0.59769  Biso   1.000  H
  H20      1.0000 0.18522  0.62893  0.55874  Biso   1.000  H
  C17      1.0000 0.40699  0.30932  0.30191  Biso   1.000  C
  H21      1.0000 0.43191  0.13114  0.39417  Biso   1.000  H
  C18      1.0000 0.48748  0.65981  0.43932  Biso   1.000  C
  H22      1.0000 0.51190  0.52047  0.31968  Biso   1.000  H
  C19      1.0000 0.19912  0.74657  0.38951  Biso   1.000  C
  C20      1.0000 0.24309  0.92961  0.49333  Biso   1.000  C
  O2       1.0000 0.36171  0.32537  0.35498  Biso   1.000  O
  C21      1.0000 0.40960  0.41390  0.22564  Biso   1.000  C
  O3       1.0000 0.44128  0.68803  0.39153  Biso   1.000  O
  C22      1.0000 0.48909  0.73539  0.53158  Biso   1.000  C
  C23      1.0000 0.20541  0.58887  0.34947  Biso   1.000  C
  H23      1.0000 0.16352  0.76350  0.40542  Biso   1.000  H
  H24      1.0000 0.20991  0.81441  0.33644  Biso   1.000  H
  C24      1.0000 0.28971  0.97034  0.42768  Biso   1.000  C
  H25      1.0000 0.21440  0.98838  0.47129  Biso   1.000  H
  H26      1.0000 0.25061  0.95031  0.56471  Biso   1.000  H
  C25      1.0000 0.33610  0.44112  0.30982  Biso   1.000  C
  C26      1.0000 0.36440  0.49823  0.23037  Biso   1.000  C
  H27      1.0000 0.43729  0.42729  0.17737  Biso   1.000  H
  C27      1.0000 0.41452  0.78187  0.45430  Biso   1.000  C
  C28      1.0000 0.44270  0.81220  0.54074  Biso   1.000  C
  H28      1.0000 0.51690  0.73572  0.58046  Biso   1.000  H
  N7       1.0000 0.25641  0.56795  0.30656  Biso   1.000  N
  H29      1.0000 0.18030  0.57050  0.29640  Biso   1.000  H
  H30      1.0000 0.20031  0.52069  0.40573  Biso   1.000  H
  N8       1.0000 0.33679  0.91368  0.47370  Biso   1.000  N
  H31      1.0000 0.28571  0.92873  0.35964  Biso   1.000  H
  H32      1.0000 0.29190  0.07614  0.42256  Biso   1.000  H
  C29      1.0000 0.28522  0.47255  0.34831  Biso   1.000  C
  H33      1.0000 0.35530  0.57990  0.18653  Biso   1.000  H
  C30      1.0000 0.36521  0.83455  0.41799  Biso   1.000  C
  H34      1.0000 0.43260  0.87461  0.59738  Biso   1.000  H
  H35      1.0000 0.27281  0.41921  0.40759  Biso   1.000  H
  H36      1.0000 0.35392  0.80810  0.34947  Biso   1.000  H
  C31      1.0000 0.59040  0.58610  0.72564  Biso   1.000  C
  C32      1.0000 0.59301  0.69068  0.80191  Biso   1.000  C
  C33      1.0000 0.63560  0.50177  0.73037  Biso   1.000  C
  H37      1.0000 0.56271  0.57271  0.67737  Biso   1.000  H
  C34      1.0000 0.55899  0.80932  0.83543  Biso   1.000  C
  O4       1.0000 0.63829  0.67463  0.85498  Biso   1.000  O
  C35      1.0000 0.66390  0.55888  0.80982  Biso   1.000  C
  H38      1.0000 0.64470  0.42010  0.68653  Biso   1.000  H
  N9       1.0000 0.51790  0.83411  0.78810  Biso   1.000  N
  H39      1.0000 0.56809  0.86886  0.89417  Biso   1.000  H
  C36      1.0000 0.71478  0.52745  0.84831  Biso   1.000  C
  C37      1.0000 0.48591  0.95662  0.82488  Biso   1.000  C
  N10      1.0000 0.74359  0.43205  0.80656  Biso   1.000  N
  H40      1.0000 0.72719  0.58079  0.90759  Biso   1.000  H
  C38      1.0000 0.43111  0.90505  0.84257  Biso   1.000  C
  H41      1.0000 0.49969  0.99336  0.88897  Biso   1.000  H
  H42      1.0000 0.48598  0.03420  0.77413  Biso   1.000  H
  C39      1.0000 0.79459  0.41113  0.84947  Biso   1.000  C
  N11      1.0000 0.42650  0.80910  0.93319  Biso   1.000  N
  H43      1.0000 0.41982  0.85148  0.78243  Biso   1.000  H
  H44      1.0000 0.40960  0.99026  0.85250  Biso   1.000  H
  C40      1.0000 0.80088  0.25343  0.88951  Biso   1.000  C
  H45      1.0000 0.81970  0.42950  0.79640  Biso   1.000  H
  H46      1.0000 0.79969  0.47931  0.90573  Biso   1.000  H
  C41      1.0000 0.38460  0.70175  0.92132  Biso   1.000  C
  C42      1.0000 0.42181  0.89475  0.02871  Biso   1.000  C
  N12      1.0000 0.77031  0.22731  0.98301  Biso   1.000  N
  H47      1.0000 0.83648  0.23650  0.90542  Biso   1.000  H
  H48      1.0000 0.79009  0.18559  0.83644  Biso   1.000  H
  C43      1.0000 0.40169  0.56828  0.86010  Biso   1.000  C
  H49      1.0000 0.37350  0.67032  0.98883  Biso   1.000  H
  H50      1.0000 0.35661  0.74845  0.88571  Biso   1.000  H
  C44      1.0000 0.44470  0.81142  0.12089  Biso   1.000  C
  H51      1.0000 0.43952  0.98705  0.02048  Biso   1.000  H
  H52      1.0000 0.38610  0.91335  0.04198  Biso   1.000  H
  C45      1.0000 0.75691  0.07039  0.99333  Biso   1.000  C
  C46      1.0000 0.79700  0.28154  0.07596  Biso   1.000  C
  N13      1.0000 0.43429  0.47078  0.92179  Biso   1.000  N
  H53      1.0000 0.42070  0.60115  0.80051  Biso   1.000  H
  H54      1.0000 0.37200  0.51417  0.83799  Biso   1.000  H
  N14      1.0000 0.50081  0.81375  0.11522  Biso   1.000  N
  H55      1.0000 0.43299  0.71071  0.11980  Biso   1.000  H
  H56      1.0000 0.43379  0.85779  0.18420  Biso   1.000  H
  C47      1.0000 0.71029  0.02966  0.92768  Biso   1.000  C
  H57      1.0000 0.78560  0.01162  0.97129  Biso   1.000  H
  H58      1.0000 0.74939  0.04969  0.06471  Biso   1.000  H
  C48      1.0000 0.76098  0.31275  0.16480  Biso   1.000  C
  H59      1.0000 0.82131  0.20795  0.09769  Biso   1.000  H
  H60      1.0000 0.81478  0.37107  0.05874  Biso   1.000  H
  C49      1.0000 0.47780  0.43825  0.88509  Biso   1.000  C
  C50      1.0000 0.52362  0.69124  0.10599  Biso   1.000  C
  N15      1.0000 0.66321  0.08632  0.97370  Biso   1.000  N
  H61      1.0000 0.71429  0.07127  0.85964  Biso   1.000  H
  H62      1.0000 0.70810  0.92386  0.92256  Biso   1.000  H
  N16      1.0000 0.73230  0.44843  0.14657  Biso   1.000  N
  H63      1.0000 0.78061  0.32315  0.22750  Biso   1.000  H
  H64      1.0000 0.73740  0.23185  0.17187  Biso   1.000  H
  C51      1.0000 0.51248  0.34019  0.93932  Biso   1.000  C
  H65      1.0000 0.48810  0.47953  0.81968  Biso   1.000  H
  C52      1.0000 0.57949  0.68537  0.10343  Biso   1.000  C
  H66      1.0000 0.50411  0.60137  0.10071  Biso   1.000  H
  C53      1.0000 0.63479  0.16545  0.91799  Biso   1.000  C
  C54      1.0000 0.68460  0.43792  0.12942  Biso   1.000  C
  O5       1.0000 0.55872  0.31197  0.89153  Biso   1.000  O
  C55      1.0000 0.51091  0.26461  0.03158  Biso   1.000  C
  C56      1.0000 0.61640  0.79095  0.10312  Biso   1.000  C
  O6       1.0000 0.60119  0.54814  0.10878  Biso   1.000  O
  C57      1.0000 0.58548  0.21813  0.95430  Biso   1.000  C
  H67      1.0000 0.64608  0.19190  0.84947  Biso   1.000  H
  C58      1.0000 0.65330  0.56950  0.11383  Biso   1.000  C
  H68      1.0000 0.66882  0.34185  0.12647  Biso   1.000  H
  C59      1.0000 0.55730  0.18780  0.04074  Biso   1.000  C
  H69      1.0000 0.48310  0.26428  0.08046  Biso   1.000  H
  C60      1.0000 0.66440  0.71625  0.10948  Biso   1.000  C
  H70      1.0000 0.61110  0.89597  0.09932  Biso   1.000  H
  H71      1.0000 0.56740  0.12539  0.09738  Biso   1.000  H
  H72      1.0000 0.69789  0.76062  0.11049  Biso   1.000  H
  C61      1.0000 0.70300  0.78154  0.57596  Biso   1.000  C
  N17      1.0000 0.72969  0.72731  0.48301  Biso   1.000  N
  C62      1.0000 0.73902  0.81275  0.66480  Biso   1.000  C
  H73      1.0000 0.67869  0.70795  0.59769  Biso   1.000  H
  H74      1.0000 0.68522  0.87107  0.55874  Biso   1.000  H
  C63      1.0000 0.69912  0.75343  0.38951  Biso   1.000  C
  C64      1.0000 0.74309  0.57039  0.49333  Biso   1.000  C
  N18      1.0000 0.76770  0.94843  0.64657  Biso   1.000  N
  H75      1.0000 0.71939  0.82315  0.72750  Biso   1.000  H
  H76      1.0000 0.76260  0.73185  0.67187  Biso   1.000  H
  C65      1.0000 0.70541  0.91113  0.34947  Biso   1.000  C
  H77      1.0000 0.66352  0.73650  0.40542  Biso   1.000  H
  H78      1.0000 0.70991  0.68559  0.33644  Biso   1.000  H
  C66      1.0000 0.78971  0.52966  0.42768  Biso   1.000  C
  H79      1.0000 0.71440  0.51162  0.47129  Biso   1.000  H
  H80      1.0000 0.75061  0.54969  0.56471  Biso   1.000  H
  C67      1.0000 0.81540  0.93792  0.62942  Biso   1.000  C
  N19      1.0000 0.75641  0.93205  0.30656  Biso   1.000  N
  H81      1.0000 0.68030  0.92950  0.29640  Biso   1.000  H
  H82      1.0000 0.70031  0.97931  0.40573  Biso   1.000  H
  N20      1.0000 0.83679  0.58632  0.47370  Biso   1.000  N
  H83      1.0000 0.79190  0.42386  0.42256  Biso   1.000  H
  H84      1.0000 0.78571  0.57127  0.35964  Biso   1.000  H
  C68      1.0000 0.84670  0.06950  0.61383  Biso   1.000  C
  H85      1.0000 0.83118  0.84185  0.62647  Biso   1.000  H
  C69      1.0000 0.78522  0.02745  0.34831  Biso   1.000  C
  C70      1.0000 0.86521  0.66545  0.41799  Biso   1.000  C
  C71      1.0000 0.83560  0.21625  0.60948  Biso   1.000  C
  O7       1.0000 0.89881  0.04814  0.60878  Biso   1.000  O
  C72      1.0000 0.83610  0.05888  0.30982  Biso   1.000  C
  H86      1.0000 0.77281  0.08079  0.40759  Biso   1.000  H
  C73      1.0000 0.91452  0.71813  0.45430  Biso   1.000  C
  H87      1.0000 0.85392  0.69190  0.34947  Biso   1.000  H
  C74      1.0000 0.88360  0.29095  0.60312  Biso   1.000  C
  H88      1.0000 0.80211  0.26062  0.61049  Biso   1.000  H
  C75      1.0000 0.92051  0.18537  0.60343  Biso   1.000  C
  C76      1.0000 0.86440  0.00177  0.23037  Biso   1.000  C
  O8       1.0000 0.86171  0.17463  0.35498  Biso   1.000  O
  C77      1.0000 0.94270  0.68780  0.54074  Biso   1.000  C
  O9       1.0000 0.94128  0.81197  0.39153  Biso   1.000  O
  H89      1.0000 0.88890  0.39597  0.59932  Biso   1.000  H
  C78      1.0000 0.97638  0.19124  0.60599  Biso   1.000  C
  C79      1.0000 0.90960  0.08610  0.22564  Biso   1.000  C
  H90      1.0000 0.85530  0.92010  0.18653  Biso   1.000  H
  C80      1.0000 0.90699  0.19068  0.30191  Biso   1.000  C
  C81      1.0000 0.98909  0.76461  0.53158  Biso   1.000  C
  H91      1.0000 0.93260  0.62539  0.59738  Biso   1.000  H
  C82      1.0000 0.98752  0.84019  0.43932  Biso   1.000  C
  N21      1.0000 0.99919  0.31375  0.61522  Biso   1.000  N
  H92      1.0000 0.99589  0.10137  0.60071  Biso   1.000  H
  H93      1.0000 0.93729  0.07271  0.17737  Biso   1.000  H
  C83      1.0000 0.94101  0.30932  0.33543  Biso   1.000  C
  H94      1.0000 0.01690  0.76428  0.58046  Biso   1.000  H
  C84      1.0000 0.02220  0.93825  0.38509  Biso   1.000  C
  C85      1.0000 0.05530  0.31142  0.62089  Biso   1.000  C
  N22      1.0000 0.98210  0.33411  0.28810  Biso   1.000  N
  H95      1.0000 0.93191  0.36886  0.39417  Biso   1.000  H
  N23      1.0000 0.06571  0.97078  0.42179  Biso   1.000  N
  H96      1.0000 0.01190  0.97953  0.31968  Biso   1.000  H
  C86      1.0000 0.07819  0.39475  0.52871  Biso   1.000  C
  H97      1.0000 0.06701  0.21071  0.61980  Biso   1.000  H
  H98      1.0000 0.06621  0.35779  0.68420  Biso   1.000  H
  C87      1.0000 0.01409  0.45662  0.32488  Biso   1.000  C
  C88      1.0000 0.09831  0.06828  0.36010  Biso   1.000  C
  N24      1.0000 0.07350  0.30910  0.43319  Biso   1.000  N
  H99      1.0000 0.06048  0.48705  0.52048  Biso   1.000  H
  H100     1.0000 0.11390  0.41335  0.54198  Biso   1.000  H
  C89      1.0000 0.06889  0.40505  0.34257  Biso   1.000  C
  H101     1.0000 0.00031  0.49336  0.38897  Biso   1.000  H
  H102     1.0000 0.01402  0.53420  0.27413  Biso   1.000  H
  C90      1.0000 0.11540  0.20175  0.42132  Biso   1.000  C
  H103     1.0000 0.07930  0.10115  0.30051  Biso   1.000  H
  H104     1.0000 0.12800  0.01417  0.33799  Biso   1.000  H
  H105     1.0000 0.08018  0.35148  0.28243  Biso   1.000  H
  H106     1.0000 0.09040  0.49026  0.35250  Biso   1.000  H
  H107     1.0000 0.12650  0.17032  0.48883  Biso   1.000  H
  H108     1.0000 0.14339  0.24845  0.38571  Biso   1.000  H
  Ne1      1.0000 0.40154  0.48691  0.45630  Biso   1.000  Ne
  He1      1.0000 0.46712  0.54512  0.62222  Biso   1.000  He
  He2      1.0000 0.37449  0.62217  0.36574  Biso   1.000  He
  Ar1      1.0000 0.40133  0.49253  0.44382  Biso   1.000  Ar
  Ne2      1.0000 0.59846  0.51309  0.95630  Biso   1.000  Ne
  He3      1.0000 0.53319  0.45646  0.11762  Biso   1.000  He
  He4      1.0000 0.66195  0.39984  0.95935  Biso   1.000  He
  Ar2      1.0000 0.59869  0.50743  0.94386  Biso   1.000  Ar
  Ne3      1.0000 0.90154  0.01309  0.45630  Biso   1.000  Ne
  He5      1.0000 0.87458  0.87663  0.36349  Biso   1.000  He
  He6      1.0000 0.95603  0.04371  0.36093  Biso   1.000  He
  Ar3      1.0000 0.90134  0.00747  0.44386  Biso   1.000  Ar
