data_image0
_cell_length_a       11.546
_cell_length_b       19.135
_cell_length_c       23.492
_cell_angle_alpha    90
_cell_angle_beta     102.32
_cell_angle_gamma    90

_symmetry_space_group_name_H-M    "P 1"
_symmetry_int_tables_number       1

loop_
  _symmetry_equiv_pos_as_xyz
  'x, y, z'

loop_
  _atom_site_label
  _atom_site_occupancy
  _atom_site_fract_x
  _atom_site_fract_y
  _atom_site_fract_z
  _atom_site_thermal_displace_type
  _atom_site_B_iso_or_equiv
  _atom_site_type_symbol
  C1       1.0000 0.66230  0.50097  0.46342  Biso   1.000  C
  C2       1.0000 0.63360  0.49391  0.40290  Biso   1.000  C
  C3       1.0000 0.77003  0.53107  0.49052  Biso   1.000  C
  H1       1.0000 0.60109  0.48309  0.48922  Biso   1.000  H
  C4       1.0000 0.51158  0.46580  0.37519  Biso   1.000  C
  C5       1.0000 0.71258  0.51701  0.36957  Biso   1.000  C
  C6       1.0000 0.84901  0.55412  0.45719  Biso   1.000  C
  H2       1.0000 0.79218  0.53650  0.53736  Biso   1.000  H
  C7       1.0000 0.50904  0.41991  0.32147  Biso   1.000  C
  H3       1.0000 0.48953  0.43172  0.40800  Biso   1.000  H
  C8       1.0000 0.41702  0.52286  0.36269  Biso   1.000  C
  C9       1.0000 0.82031  0.54711  0.39667  Biso   1.000  C
  H4       1.0000 0.69043  0.51158  0.32273  Biso   1.000  H
  O1       1.0000 0.94953  0.58458  0.48843  Biso   1.000  O
  C10      1.0000 0.53235  0.34873  0.33027  Biso   1.000  C
  C11      1.0000 0.47664  0.44641  0.26500  Biso   1.000  C
  C12      1.0000 0.30023  0.50300  0.36138  Biso   1.000  C
  C13      1.0000 0.44285  0.59200  0.35114  Biso   1.000  C
  H5       1.0000 0.88143  0.56499  0.37088  Biso   1.000  H
  C14      1.0000 0.02714  0.61766  0.45693  Biso   1.000  C
  C15      1.0000 0.52343  0.30410  0.28260  Biso   1.000  C
  H6       1.0000 0.55749  0.32825  0.37401  Biso   1.000  H
  C16      1.0000 0.46762  0.40172  0.21729  Biso   1.000  C
  H7       1.0000 0.45852  0.50149  0.25816  Biso   1.000  H
  C17      1.0000 0.20934  0.55223  0.34853  Biso   1.000  C
  H8       1.0000 0.28029  0.44949  0.37031  Biso   1.000  H
  C18      1.0000 0.35197  0.64123  0.33833  Biso   1.000  C
  H9       1.0000 0.53327  0.60737  0.35214  Biso   1.000  H
  C19      1.0000 0.97837  0.68252  0.42957  Biso   1.000  C
  H10      1.0000 0.11004  0.62895  0.48669  Biso   1.000  H
  H11      1.0000 0.04286  0.58234  0.42351  Biso   1.000  H
  C20      1.0000 0.49104  0.33060  0.22613  Biso   1.000  C
  H12      1.0000 0.54145  0.24902  0.28940  Biso   1.000  H
  H13      1.0000 0.44259  0.42226  0.17359  Biso   1.000  H
  C21      1.0000 0.23516  0.62132  0.33698  Biso   1.000  C
  H14      1.0000 0.11891  0.53682  0.34752  Biso   1.000  H
  H15      1.0000 0.37200  0.69475  0.32940  Biso   1.000  H
  C22      1.0000 0.94461  0.73588  0.40447  Biso   1.000  C
  O2       1.0000 0.47690  0.28043  0.18339  Biso   1.000  O
  O3       1.0000 0.13916  0.66553  0.32674  Biso   1.000  O
  C23      1.0000 0.91540  0.79786  0.37550  Biso   1.000  C
  C24      1.0000 0.44339  0.30421  0.12496  Biso   1.000  C
  C25      1.0000 0.15779  0.73530  0.31118  Biso   1.000  C
  C26      1.0000 0.89661  0.85007  0.34879  Biso   1.000  C
  H16      1.0000 0.41401  0.26005  0.09699  Biso   1.000  H
  H17      1.0000 0.37159  0.34115  0.12178  Biso   1.000  H
  C27      1.0000 0.54066  0.33786  0.10583  Biso   1.000  C
  H18      1.0000 0.08097  0.76561  0.31519  Biso   1.000  H
  H19      1.0000 0.23498  0.75511  0.34116  Biso   1.000  H
  C28      1.0000 0.17601  0.74377  0.25302  Biso   1.000  C
  C29      1.0000 0.88126  0.91623  0.31541  Biso   1.000  C
  C30      1.0000 0.62207  0.36300  0.09085  Biso   1.000  C
  C31      1.0000 0.18525  0.74560  0.20387  Biso   1.000  C
  O4       1.0000 0.94461  0.91497  0.27001  Biso   1.000  O
  H20      1.0000 0.91338  0.95898  0.34452  Biso   1.000  H
  H21      1.0000 0.78820  0.92375  0.29676  Biso   1.000  H
  C32      1.0000 0.71871  0.39143  0.07246  Biso   1.000  C
  C33      1.0000 0.19386  0.74356  0.14710  Biso   1.000  C
  C34      1.0000 0.89764  0.87693  0.22147  Biso   1.000  C
  C35      1.0000 0.80295  0.41500  0.05642  Biso   1.000  C
  C36      1.0000 0.19763  0.73974  0.09634  Biso   1.000  C
  C37      1.0000 0.79727  0.83475  0.21611  Biso   1.000  C
  C38      1.0000 0.95354  0.88398  0.17468  Biso   1.000  C
  C39      1.0000 0.90264  0.43815  0.03429  Biso   1.000  C
  C40      1.0000 0.19008  0.72678  0.03425  Biso   1.000  C
  C41      1.0000 0.75297  0.79963  0.16396  Biso   1.000  C
  H22      1.0000 0.75401  0.82927  0.25232  Biso   1.000  H
  C42      1.0000 0.90926  0.84886  0.12257  Biso   1.000  C
  H23      1.0000 0.03123  0.91664  0.17886  Biso   1.000  H
  O5       1.0000 0.96593  0.49318  0.06736  Biso   1.000  O
  H24      1.0000 0.96206  0.39451  0.03451  Biso   1.000  H
  H25      1.0000 0.87133  0.45613  0.99011  Biso   1.000  H
  O6       1.0000 0.25757  0.77444  0.00837  Biso   1.000  O
  H26      1.0000 0.09834  0.73070  0.01185  Biso   1.000  H
  H27      1.0000 0.22203  0.67458  0.02924  Biso   1.000  H
  C43      1.0000 0.80898  0.80669  0.11721  Biso   1.000  C
  H28      1.0000 0.67531  0.76697  0.15982  Biso   1.000  H
  H29      1.0000 0.95253  0.85435  0.08636  Biso   1.000  H
  C44      1.0000 0.91201  0.55819  0.06366  Biso   1.000  C
  C45      1.0000 0.37992  0.76744  0.02126  Biso   1.000  C
  C46      1.0000 0.76252  0.76671  0.06026  Biso   1.000  C
  C47      1.0000 0.82533  0.58025  0.01621  Biso   1.000  C
  C48      1.0000 0.95145  0.60329  0.11041  Biso   1.000  C
  C49      1.0000 0.44093  0.71466  0.05625  Biso   1.000  C
  C50      1.0000 0.44246  0.81840  0.99773  Biso   1.000  C
  C51      1.0000 0.81771  0.69255  0.06231  Biso   1.000  C
  H30      1.0000 0.79039  0.79571  0.02610  Biso   1.000  H
  C52      1.0000 0.62710  0.76368  0.04418  Biso   1.000  C
  C53      1.0000 0.77819  0.64745  0.01555  Biso   1.000  C
  H31      1.0000 0.79473  0.54534  0.98004  Biso   1.000  H
  C54      1.0000 0.90440  0.67050  0.10976  Biso   1.000  C
  H32      1.0000 0.01858  0.58620  0.14714  Biso   1.000  H
  C55      1.0000 0.56454  0.71273  0.06767  Biso   1.000  C
  H33      1.0000 0.39252  0.67520  0.07442  Biso   1.000  H
  C56      1.0000 0.56600  0.81651  0.00919  Biso   1.000  C
  H34      1.0000 0.39520  0.85926  0.97068  Biso   1.000  H
  H35      1.0000 0.71114  0.66454  0.97882  Biso   1.000  H
  H36      1.0000 0.93491  0.70541  0.14592  Biso   1.000  H
  H37      1.0000 0.61180  0.67186  0.09472  Biso   1.000  H
  H38      1.0000 0.61439  0.85592  0.99098  Biso   1.000  H
  C57      1.0000 0.33766  0.49903  0.53658  Biso   1.000  C
  C58      1.0000 0.23002  0.46893  0.50948  Biso   1.000  C
  C59      1.0000 0.36636  0.50609  0.59710  Biso   1.000  C
  H39      1.0000 0.39887  0.51691  0.51078  Biso   1.000  H
  C60      1.0000 0.15103  0.44588  0.54281  Biso   1.000  C
  H40      1.0000 0.20778  0.46350  0.46264  Biso   1.000  H
  C61      1.0000 0.28738  0.48299  0.63043  Biso   1.000  C
  C62      1.0000 0.48847  0.53420  0.62481  Biso   1.000  C
  C63      1.0000 0.17973  0.45289  0.60333  Biso   1.000  C
  O7       1.0000 0.05043  0.41542  0.51157  Biso   1.000  O
  H41      1.0000 0.30962  0.48842  0.67727  Biso   1.000  H
  H42      1.0000 0.51052  0.56828  0.59200  Biso   1.000  H
  C64      1.0000 0.58293  0.47714  0.63731  Biso   1.000  C
  C65      1.0000 0.49101  0.58009  0.67853  Biso   1.000  C
  H43      1.0000 0.11853  0.43501  0.62912  Biso   1.000  H
  C66      1.0000 0.97282  0.38234  0.54307  Biso   1.000  C
  C67      1.0000 0.69973  0.49700  0.63862  Biso   1.000  C
  C68      1.0000 0.55711  0.40800  0.64886  Biso   1.000  C
  C69      1.0000 0.46761  0.65127  0.66973  Biso   1.000  C
  C70      1.0000 0.52340  0.55359  0.73500  Biso   1.000  C
  C71      1.0000 0.02168  0.31748  0.57043  Biso   1.000  C
  H44      1.0000 0.88992  0.37105  0.51331  Biso   1.000  H
  H45      1.0000 0.95719  0.41766  0.57649  Biso   1.000  H
  C72      1.0000 0.79071  0.44777  0.65147  Biso   1.000  C
  H46      1.0000 0.71976  0.55051  0.62969  Biso   1.000  H
  C73      1.0000 0.64807  0.35877  0.66167  Biso   1.000  C
  H47      1.0000 0.46669  0.39263  0.64786  Biso   1.000  H
  C74      1.0000 0.47661  0.69590  0.71740  Biso   1.000  C
  H48      1.0000 0.44256  0.67175  0.62599  Biso   1.000  H
  C75      1.0000 0.53234  0.59828  0.78271  Biso   1.000  C
  H49      1.0000 0.54144  0.49851  0.74184  Biso   1.000  H
  C76      1.0000 0.05535  0.26412  0.59553  Biso   1.000  C
  C77      1.0000 0.76480  0.37868  0.66302  Biso   1.000  C
  H50      1.0000 0.88105  0.46318  0.65248  Biso   1.000  H
  H51      1.0000 0.62805  0.30525  0.67060  Biso   1.000  H
  C78      1.0000 0.50901  0.66940  0.77387  Biso   1.000  C
  H52      1.0000 0.45851  0.75098  0.71060  Biso   1.000  H
  H53      1.0000 0.55746  0.57774  0.82641  Biso   1.000  H
  C79      1.0000 0.08456  0.20214  0.62450  Biso   1.000  C
  O8       1.0000 0.86079  0.33447  0.67326  Biso   1.000  O
  O9       1.0000 0.52315  0.71957  0.81661  Biso   1.000  O
  C80      1.0000 0.10334  0.14993  0.65121  Biso   1.000  C
  C81      1.0000 0.84226  0.26470  0.68882  Biso   1.000  C
  C82      1.0000 0.55666  0.69579  0.87504  Biso   1.000  C
  C83      1.0000 0.11879  0.08377  0.68459  Biso   1.000  C
  H54      1.0000 0.91899  0.23439  0.68481  Biso   1.000  H
  H55      1.0000 0.76507  0.24489  0.65884  Biso   1.000  H
  C84      1.0000 0.82403  0.25623  0.74698  Biso   1.000  C
  H56      1.0000 0.58595  0.73995  0.90301  Biso   1.000  H
  H57      1.0000 0.62845  0.65885  0.87822  Biso   1.000  H
  C85      1.0000 0.45930  0.66214  0.89417  Biso   1.000  C
  O10      1.0000 0.05544  0.08503  0.72999  Biso   1.000  O
  H58      1.0000 0.08658  0.04102  0.65548  Biso   1.000  H
  H59      1.0000 0.21185  0.07625  0.70324  Biso   1.000  H
  C86      1.0000 0.81479  0.25440  0.79613  Biso   1.000  C
  C87      1.0000 0.37789  0.63700  0.90915  Biso   1.000  C
  C88      1.0000 0.10241  0.12307  0.77853  Biso   1.000  C
  C89      1.0000 0.80618  0.25644  0.85290  Biso   1.000  C
  C90      1.0000 0.28134  0.60857  0.92754  Biso   1.000  C
  C91      1.0000 0.20269  0.16525  0.78389  Biso   1.000  C
  C92      1.0000 0.04642  0.11602  0.82532  Biso   1.000  C
  C93      1.0000 0.80241  0.26026  0.90366  Biso   1.000  C
  C94      1.0000 0.19710  0.58500  0.94358  Biso   1.000  C
  C95      1.0000 0.24698  0.20037  0.83604  Biso   1.000  C
  H60      1.0000 0.24604  0.17073  0.74768  Biso   1.000  H
  C96      1.0000 0.09078  0.15114  0.87743  Biso   1.000  C
  H61      1.0000 0.96882  0.08336  0.82114  Biso   1.000  H
  C97      1.0000 0.80988  0.27322  0.96575  Biso   1.000  C
  C98      1.0000 0.09741  0.56185  0.96571  Biso   1.000  C
  C99      1.0000 0.19106  0.19331  0.88279  Biso   1.000  C
  H62      1.0000 0.32465  0.23303  0.84018  Biso   1.000  H
  H63      1.0000 0.04743  0.14565  0.91364  Biso   1.000  H
  O11      1.0000 0.74247  0.22556  0.99163  Biso   1.000  O
  H64      1.0000 0.90162  0.26930  0.98815  Biso   1.000  H
  H65      1.0000 0.77793  0.32542  0.97076  Biso   1.000  H
  O12      1.0000 0.03411  0.50682  0.93264  Biso   1.000  O
  H66      1.0000 0.03798  0.60549  0.96549  Biso   1.000  H
  H67      1.0000 0.12862  0.54387  0.00989  Biso   1.000  H
  C100     1.0000 0.23744  0.23329  0.93974  Biso   1.000  C
  C101     1.0000 0.62012  0.23256  0.97874  Biso   1.000  C
  C102     1.0000 0.08803  0.44181  0.93634  Biso   1.000  C
  H68      1.0000 0.20957  0.20429  0.97390  Biso   1.000  H
  C103     1.0000 0.37295  0.23632  0.95582  Biso   1.000  C
  C104     1.0000 0.18233  0.30745  0.93769  Biso   1.000  C
  C105     1.0000 0.55759  0.18160  0.00227  Biso   1.000  C
  C106     1.0000 0.55903  0.28534  0.94375  Biso   1.000  C
  C107     1.0000 0.17472  0.41975  0.98379  Biso   1.000  C
  C108     1.0000 0.04851  0.39671  0.88959  Biso   1.000  C
  C109     1.0000 0.43404  0.18349  0.99081  Biso   1.000  C
  C110     1.0000 0.43551  0.28727  0.93233  Biso   1.000  C
  C111     1.0000 0.22186  0.35255  0.98444  Biso   1.000  C
  C112     1.0000 0.09565  0.32950  0.89024  Biso   1.000  C
  H69      1.0000 0.60484  0.14074  0.02932  Biso   1.000  H
  H70      1.0000 0.60744  0.32480  0.92558  Biso   1.000  H
  H71      1.0000 0.20523  0.45466  0.01996  Biso   1.000  H
  H72      1.0000 0.98146  0.41380  0.85286  Biso   1.000  H
  H73      1.0000 0.38556  0.14408  0.00902  Biso   1.000  H
  H74      1.0000 0.38816  0.32814  0.90528  Biso   1.000  H
  H75      1.0000 0.28890  0.33546  0.02118  Biso   1.000  H
  H76      1.0000 0.06505  0.29459  0.85408  Biso   1.000  H
  C113     1.0000 0.55755  0.31837  0.50224  Biso   1.000  C
  C114     1.0000 0.43401  0.31649  0.49078  Biso   1.000  C
  C115     1.0000 0.62009  0.26747  0.47872  Biso   1.000  C
  H77      1.0000 0.60490  0.35924  0.52930  Biso   1.000  H
  C116     1.0000 0.37294  0.26365  0.45584  Biso   1.000  C
  H78      1.0000 0.38562  0.35589  0.50900  Biso   1.000  H
  C117     1.0000 0.55902  0.21463  0.44377  Biso   1.000  C
  O13      1.0000 0.74246  0.27442  0.49166  Biso   1.000  O
  C118     1.0000 0.23749  0.26668  0.43972  Biso   1.000  C
  C119     1.0000 0.43547  0.21275  0.43231  Biso   1.000  C
  H79      1.0000 0.60741  0.17523  0.42556  Biso   1.000  H
  C120     1.0000 0.80993  0.22676  0.46573  Biso   1.000  C
  C121     1.0000 0.19105  0.30666  0.38282  Biso   1.000  C
  H80      1.0000 0.20954  0.29574  0.47388  Biso   1.000  H
  C122     1.0000 0.18232  0.19258  0.43772  Biso   1.000  C
  H81      1.0000 0.38822  0.17188  0.40525  Biso   1.000  H
  H82      1.0000 0.90159  0.23068  0.48813  Biso   1.000  H
  H83      1.0000 0.77798  0.17455  0.47074  Biso   1.000  H
  C123     1.0000 0.80240  0.23972  0.40369  Biso   1.000  C
  C124     1.0000 0.24704  0.29961  0.33602  Biso   1.000  C
  C125     1.0000 0.09077  0.34889  0.37746  Biso   1.000  C
  C126     1.0000 0.22184  0.14748  0.48447  Biso   1.000  C
  C127     1.0000 0.09564  0.17053  0.39027  Biso   1.000  C
  C128     1.0000 0.80615  0.24353  0.35288  Biso   1.000  C
  C129     1.0000 0.20268  0.33473  0.28391  Biso   1.000  C
  H84      1.0000 0.32462  0.26695  0.34016  Biso   1.000  H
  C130     1.0000 0.04647  0.38396  0.32530  Biso   1.000  C
  H85      1.0000 0.04742  0.35432  0.41366  Biso   1.000  H
  C131     1.0000 0.17468  0.08027  0.48377  Biso   1.000  C
  H86      1.0000 0.28889  0.16457  0.52120  Biso   1.000  H
  C132     1.0000 0.04848  0.10332  0.38957  Biso   1.000  C
  H87      1.0000 0.06502  0.20544  0.35406  Biso   1.000  H
  C133     1.0000 0.81476  0.24557  0.29611  Biso   1.000  C
  C134     1.0000 0.10239  0.37690  0.27855  Biso   1.000  C
  H88      1.0000 0.24603  0.32924  0.24770  Biso   1.000  H
  H89      1.0000 0.96881  0.41662  0.32116  Biso   1.000  H
  C135     1.0000 0.08800  0.05817  0.43632  Biso   1.000  C
  H90      1.0000 0.20530  0.04536  0.51998  Biso   1.000  H
  H91      1.0000 0.98143  0.08623  0.35284  Biso   1.000  H
  C136     1.0000 0.82402  0.24379  0.24700  Biso   1.000  C
  O14      1.0000 0.05543  0.41495  0.23001  Biso   1.000  O
  O15      1.0000 0.03408  0.99321  0.43262  Biso   1.000  O
  C137     1.0000 0.84223  0.23533  0.18879  Biso   1.000  C
  C138     1.0000 0.11877  0.41620  0.18461  Biso   1.000  C
  C139     1.0000 0.09739  0.93812  0.46573  Biso   1.000  C
  O16      1.0000 0.86087  0.16556  0.17328  Biso   1.000  O
  H92      1.0000 0.91904  0.26559  0.18478  Biso   1.000  H
  H93      1.0000 0.76503  0.25513  0.15882  Biso   1.000  H
  H94      1.0000 0.08665  0.45900  0.15551  Biso   1.000  H
  H95      1.0000 0.21182  0.42378  0.20322  Biso   1.000  H
  C140     1.0000 0.10331  0.35009  0.15119  Biso   1.000  C
  H96      1.0000 0.12870  0.95615  0.50991  Biso   1.000  H
  H97      1.0000 0.03795  0.89454  0.46547  Biso   1.000  H
  C141     1.0000 0.19707  0.91497  0.44355  Biso   1.000  C
  C142     1.0000 0.76486  0.12135  0.16300  Biso   1.000  C
  C143     1.0000 0.08455  0.29788  0.12453  Biso   1.000  C
  C144     1.0000 0.28132  0.89140  0.42756  Biso   1.000  C
  C145     1.0000 0.79068  0.05221  0.15145  Biso   1.000  C
  C146     1.0000 0.64806  0.14121  0.16169  Biso   1.000  C
  C147     1.0000 0.05534  0.23585  0.09555  Biso   1.000  C
  C148     1.0000 0.37797  0.86297  0.40918  Biso   1.000  C
  C149     1.0000 0.69972  0.00298  0.13864  Biso   1.000  C
  H98      1.0000 0.88110  0.03684  0.15246  Biso   1.000  H
  C150     1.0000 0.55708  0.09198  0.14884  Biso   1.000  C
  H99      1.0000 0.62803  0.19472  0.17062  Biso   1.000  H
  C151     1.0000 0.02167  0.18255  0.07045  Biso   1.000  C
  C152     1.0000 0.45928  0.83789  0.39419  Biso   1.000  C
  C153     1.0000 0.58301  0.02289  0.13734  Biso   1.000  C
  H100     1.0000 0.71975  0.94946  0.12971  Biso   1.000  H
  H101     1.0000 0.46674  0.10739  0.14784  Biso   1.000  H
  C154     1.0000 0.97287  0.11764  0.04305  Biso   1.000  C
  C155     1.0000 0.55664  0.80423  0.37506  Biso   1.000  C
  C156     1.0000 0.48846  0.96577  0.12483  Biso   1.000  C
  O17      1.0000 0.05040  0.08456  0.01155  Biso   1.000  O
  H102     1.0000 0.88997  0.12898  0.01329  Biso   1.000  H
  H103     1.0000 0.95715  0.08236  0.07647  Biso   1.000  H
  O18      1.0000 0.52314  0.78045  0.31663  Biso   1.000  O
  H104     1.0000 0.58602  0.76002  0.40303  Biso   1.000  H
  H105     1.0000 0.62842  0.84113  0.37820  Biso   1.000  H
  C157     1.0000 0.36641  0.99394  0.09708  Biso   1.000  C
  H106     1.0000 0.51050  0.93175  0.09202  Biso   1.000  H
  C158     1.0000 0.49097  0.91989  0.17851  Biso   1.000  C
  C159     1.0000 0.15102  0.05414  0.04283  Biso   1.000  C
  C160     1.0000 0.50900  0.83057  0.27389  Biso   1.000  C
  C161     1.0000 0.28734  0.01698  0.13041  Biso   1.000  C
  C162     1.0000 0.33773  0.00094  0.03660  Biso   1.000  C
  C163     1.0000 0.46758  0.84876  0.16971  Biso   1.000  C
  C164     1.0000 0.52339  0.94638  0.23502  Biso   1.000  C
  C165     1.0000 0.17970  0.04709  0.10331  Biso   1.000  C
  C166     1.0000 0.22998  0.03104  0.00945  Biso   1.000  C
  C167     1.0000 0.47660  0.80408  0.21742  Biso   1.000  C
  C168     1.0000 0.53239  0.90175  0.28269  Biso   1.000  C
  H107     1.0000 0.30958  0.01155  0.17725  Biso   1.000  H
  H108     1.0000 0.39883  0.98307  0.01076  Biso   1.000  H
  H109     1.0000 0.44254  0.82822  0.12601  Biso   1.000  H
  H110     1.0000 0.54150  0.00152  0.24182  Biso   1.000  H
  H111     1.0000 0.11851  0.06496  0.12914  Biso   1.000  H
  H112     1.0000 0.20785  0.03648  0.96266  Biso   1.000  H
  H113     1.0000 0.45847  0.74899  0.21058  Biso   1.000  H
  H114     1.0000 0.55744  0.92224  0.32643  Biso   1.000  H
  C169     1.0000 0.44241  0.68163  0.49776  Biso   1.000  C
  C170     1.0000 0.56604  0.68351  0.50922  Biso   1.000  C
  C171     1.0000 0.37987  0.73253  0.52128  Biso   1.000  C
  H115     1.0000 0.39515  0.64076  0.47070  Biso   1.000  H
  C172     1.0000 0.62702  0.73635  0.54416  Biso   1.000  C
  H116     1.0000 0.61443  0.64411  0.49100  Biso   1.000  H
  C173     1.0000 0.44094  0.78537  0.55623  Biso   1.000  C
  O19      1.0000 0.25750  0.72558  0.50834  Biso   1.000  O
  C174     1.0000 0.76255  0.73332  0.56028  Biso   1.000  C
  C175     1.0000 0.56457  0.78725  0.56769  Biso   1.000  C
  H117     1.0000 0.39255  0.82477  0.57444  Biso   1.000  H
  C176     1.0000 0.19011  0.77324  0.53427  Biso   1.000  C
  H118     1.0000 0.79042  0.70426  0.52612  Biso   1.000  H
  C177     1.0000 0.81773  0.80742  0.56228  Biso   1.000  C
  C178     1.0000 0.80891  0.69334  0.61718  Biso   1.000  C
  H119     1.0000 0.61183  0.82812  0.59475  Biso   1.000  H
  H120     1.0000 0.09837  0.76932  0.51187  Biso   1.000  H
  H121     1.0000 0.22206  0.82545  0.52926  Biso   1.000  H
  C179     1.0000 0.19756  0.76028  0.59631  Biso   1.000  C
  C180     1.0000 0.77820  0.85252  0.51553  Biso   1.000  C
  C181     1.0000 0.90432  0.82947  0.60973  Biso   1.000  C
  C182     1.0000 0.75301  0.70039  0.66398  Biso   1.000  C
  C183     1.0000 0.90919  0.65111  0.62254  Biso   1.000  C
  C184     1.0000 0.19389  0.75647  0.64712  Biso   1.000  C
  C185     1.0000 0.82536  0.91973  0.51623  Biso   1.000  C
  H122     1.0000 0.71107  0.83543  0.47880  Biso   1.000  H
  C186     1.0000 0.95148  0.89668  0.61043  Biso   1.000  C
  H123     1.0000 0.93494  0.79456  0.64594  Biso   1.000  H
  C187     1.0000 0.79728  0.66527  0.71609  Biso   1.000  C
  H124     1.0000 0.67534  0.73305  0.65984  Biso   1.000  H
  C188     1.0000 0.95357  0.61604  0.67470  Biso   1.000  C
  H125     1.0000 0.95254  0.64568  0.58634  Biso   1.000  H
  C189     1.0000 0.18520  0.75443  0.70389  Biso   1.000  C
  C190     1.0000 0.91196  0.94183  0.56368  Biso   1.000  C
  H126     1.0000 0.79474  0.95464  0.48002  Biso   1.000  H
  H127     1.0000 0.01861  0.91377  0.64716  Biso   1.000  H
  C191     1.0000 0.89756  0.62310  0.72145  Biso   1.000  C
  H128     1.0000 0.75393  0.67076  0.75230  Biso   1.000  H
  H129     1.0000 0.03115  0.58338  0.67884  Biso   1.000  H
  C192     1.0000 0.17594  0.75621  0.75300  Biso   1.000  C
  O20      1.0000 0.96596  0.00679  0.56738  Biso   1.000  O
  O21      1.0000 0.94455  0.58505  0.77003  Biso   1.000  O
  C193     1.0000 0.15782  0.76467  0.81121  Biso   1.000  C
  C194     1.0000 0.90257  0.06188  0.53427  Biso   1.000  C
  C195     1.0000 0.88118  0.58380  0.81539  Biso   1.000  C
  O22      1.0000 0.13918  0.83444  0.82672  Biso   1.000  O
  H130     1.0000 0.08100  0.73441  0.81521  Biso   1.000  H
  H131     1.0000 0.23501  0.74487  0.84118  Biso   1.000  H
  H132     1.0000 0.87135  0.04385  0.49009  Biso   1.000  H
  H133     1.0000 0.96209  0.10546  0.53453  Biso   1.000  H
  C196     1.0000 0.80298  0.08503  0.55645  Biso   1.000  C
  H134     1.0000 0.91339  0.54100  0.84449  Biso   1.000  H
  H135     1.0000 0.78814  0.57622  0.79678  Biso   1.000  H
  C197     1.0000 0.89665  0.64991  0.84881  Biso   1.000  C
  C198     1.0000 0.23519  0.87865  0.83700  Biso   1.000  C
  C199     1.0000 0.71863  0.10860  0.57244  Biso   1.000  C
  C200     1.0000 0.91541  0.70212  0.87547  Biso   1.000  C
  C201     1.0000 0.20937  0.94779  0.84855  Biso   1.000  C
  C202     1.0000 0.35199  0.85879  0.83831  Biso   1.000  C
  C203     1.0000 0.62208  0.13703  0.59082  Biso   1.000  C
  C204     1.0000 0.94462  0.76415  0.90445  Biso   1.000  C
  C205     1.0000 0.30024  0.99702  0.86136  Biso   1.000  C
  H136     1.0000 0.11894  0.96316  0.84754  Biso   1.000  H
  C206     1.0000 0.44288  0.90802  0.85116  Biso   1.000  C
  H137     1.0000 0.37193  0.80528  0.82938  Biso   1.000  H
  C207     1.0000 0.54068  0.16211  0.60581  Biso   1.000  C
  C208     1.0000 0.97838  0.81745  0.92955  Biso   1.000  C
  C209     1.0000 0.41704  0.97711  0.86266  Biso   1.000  C
  H138     1.0000 0.28021  0.05054  0.87029  Biso   1.000  H
  H139     1.0000 0.53330  0.89261  0.85216  Biso   1.000  H
  C210     1.0000 0.44340  0.19577  0.62494  Biso   1.000  C
  C211     1.0000 0.02717  0.88236  0.95695  Biso   1.000  C
  C212     1.0000 0.51150  0.03423  0.87517  Biso   1.000  C
  O23      1.0000 0.47682  0.21955  0.68337  Biso   1.000  O
  H140     1.0000 0.41402  0.23998  0.59697  Biso   1.000  H
  H141     1.0000 0.37154  0.15887  0.62180  Biso   1.000  H
  O24      1.0000 0.94956  0.91544  0.98845  Biso   1.000  O
  H142     1.0000 0.11007  0.87102  0.98671  Biso   1.000  H
  H143     1.0000 0.04289  0.91764  0.92353  Biso   1.000  H
  H144     1.0000 0.48954  0.06825  0.90798  Biso   1.000  H
  C213     1.0000 0.50898  0.08011  0.82149  Biso   1.000  C
  C214     1.0000 0.63363  0.00606  0.90292  Biso   1.000  C
  C215     1.0000 0.49105  0.16943  0.72611  Biso   1.000  C
  C216     1.0000 0.84902  0.94586  0.95717  Biso   1.000  C
  C217     1.0000 0.53238  0.15124  0.83029  Biso   1.000  C
  C218     1.0000 0.47666  0.05362  0.76498  Biso   1.000  C
  C219     1.0000 0.71261  0.98302  0.86959  Biso   1.000  C
  C220     1.0000 0.66231  0.99906  0.96340  Biso   1.000  C
  C221     1.0000 0.52336  0.19592  0.78258  Biso   1.000  C
  C222     1.0000 0.46765  0.09825  0.71731  Biso   1.000  C
  C223     1.0000 0.82034  0.95291  0.89669  Biso   1.000  C
  C224     1.0000 0.76997  0.96896  0.99054  Biso   1.000  C
  H145     1.0000 0.55741  0.17178  0.87399  Biso   1.000  H
  H146     1.0000 0.45855  0.99848  0.75818  Biso   1.000  H
  H147     1.0000 0.69037  0.98845  0.82275  Biso   1.000  H
  H148     1.0000 0.60112  0.01693  0.98924  Biso   1.000  H
  H149     1.0000 0.54149  0.25101  0.78942  Biso   1.000  H
  H150     1.0000 0.44251  0.07776  0.67357  Biso   1.000  H
  H151     1.0000 0.88145  0.93504  0.87086  Biso   1.000  H
  H152     1.0000 0.79220  0.96352  0.03734  Biso   1.000  H
