data_image0
_cell_length_a       12.178
_cell_length_b       8.186
_cell_length_c       30.873
_cell_angle_alpha    90
_cell_angle_beta     96.86
_cell_angle_gamma    90

_symmetry_space_group_name_H-M    "P 1"
_symmetry_int_tables_number       1

loop_
  _symmetry_equiv_pos_as_xyz
  'x, y, z'

loop_
  _atom_site_label
  _atom_site_occupancy
  _atom_site_fract_x
  _atom_site_fract_y
  _atom_site_fract_z
  _atom_site_thermal_displace_type
  _atom_site_B_iso_or_equiv
  _atom_site_type_symbol
  C1       1.0000 0.57366  0.59455  0.54401  Biso   1.000  C
  C2       1.0000 0.66738  0.52174  0.52809  Biso   1.000  C
  C3       1.0000 0.53286  0.74823  0.52939  Biso   1.000  C
  C4       1.0000 0.52022  0.50928  0.57549  Biso   1.000  C
  C5       1.0000 0.70337  0.37283  0.54199  Biso   1.000  C
  H1       1.0000 0.69898  0.58197  0.50499  Biso   1.000  H
  C6       1.0000 0.44181  0.81725  0.54519  Biso   1.000  C
  H2       1.0000 0.57096  0.80796  0.50499  Biso   1.000  H
  C7       1.0000 0.56012  0.35268  0.58959  Biso   1.000  C
  C8       1.0000 0.42702  0.58160  0.59151  Biso   1.000  C
  O1       1.0000 0.79202  0.29074  0.52858  Biso   1.000  O
  C9       1.0000 0.64921  0.28451  0.57331  Biso   1.000  C
  C10      1.0000 0.39043  0.73296  0.57699  Biso   1.000  C
  H3       1.0000 0.41697  0.93306  0.53200  Biso   1.000  H
  H4       1.0000 0.51904  0.28903  0.61500  Biso   1.000  H
  H5       1.0000 0.39004  0.51002  0.61500  Biso   1.000  H
  C11      1.0000 0.85967  0.38602  0.50251  Biso   1.000  C
  O2       1.0000 0.69267  0.13389  0.58394  Biso   1.000  O
  H6       1.0000 0.33399  0.78695  0.59099  Biso   1.000  H
  C12      1.0000 0.96123  0.28524  0.49729  Biso   1.000  C
  H7       1.0000 0.88001  0.49206  0.51899  Biso   1.000  H
  H8       1.0000 0.81597  0.41705  0.47100  Biso   1.000  H
  C13      1.0000 0.64872  0.04874  0.61859  Biso   1.000  C
  C14      1.0000 0.97476  0.21024  0.45821  Biso   1.000  C
  N1       1.0000 0.03673  0.27865  0.53269  Biso   1.000  N
  H9       1.0000 0.66203  0.12106  0.64900  Biso   1.000  H
  H10      1.0000 0.57402  0.03103  0.61001  Biso   1.000  H
  C15      1.0000 0.71092  0.89018  0.62521  Biso   1.000  C
  H11      1.0000 0.92503  0.23198  0.42901  Biso   1.000  H
  C16      1.0000 0.06956  0.11715  0.45589  Biso   1.000  C
  C17      1.0000 0.12892  0.18813  0.52988  Biso   1.000  C
  O3       1.0000 0.81893  0.92585  0.64619  Biso   1.000  O
  H12      1.0000 0.66996  0.79404  0.64400  Biso   1.000  H
  H13      1.0000 0.72700  0.83997  0.59399  Biso   1.000  H
  C18      1.0000 0.14814  0.10665  0.49220  Biso   1.000  C
  H14      1.0000 0.08898  0.06499  0.42699  Biso   1.000  H
  C19      1.0000 0.20921  0.18190  0.57050  Biso   1.000  C
  C20      1.0000 0.88226  0.78072  0.65549  Biso   1.000  C
  H15      1.0000 0.21503  0.03799  0.49400  Biso   1.000  H
  O4       1.0000 0.16560  0.06853  0.59921  Biso   1.000  O
  H16      1.0000 0.22000  0.29599  0.58499  Biso   1.000  H
  H17      1.0000 0.28903  0.12998  0.56401  Biso   1.000  H
  C21      1.0000 0.99028  0.82922  0.68110  Biso   1.000  C
  H18      1.0000 0.84503  0.68703  0.67301  Biso   1.000  H
  H19      1.0000 0.89104  0.73100  0.62401  Biso   1.000  H
  C22      1.0000 0.21529  0.06242  0.64130  Biso   1.000  C
  H20      1.0000 0.97902  0.89201  0.70899  Biso   1.000  H
  O5       1.0000 0.05587  0.91119  0.65174  Biso   1.000  O
  H21      1.0000 0.02996  0.73406  0.69500  Biso   1.000  H
  C23      1.0000 0.15420  0.97679  0.67059  Biso   1.000  C
  C24      1.0000 0.31408  0.13242  0.65621  Biso   1.000  C
  C25      1.0000 0.19320  0.96433  0.71369  Biso   1.000  C
  C26      1.0000 0.35630  0.12436  0.70100  Biso   1.000  C
  H22      1.0000 0.35999  0.19704  0.63699  Biso   1.000  H
  H23      1.0000 0.14404  0.89800  0.73600  Biso   1.000  H
  C27      1.0000 0.29479  0.04105  0.73000  Biso   1.000  C
  C28      1.0000 0.45618  0.20303  0.71790  Biso   1.000  C
  C29      1.0000 0.33423  0.03555  0.77509  Biso   1.000  C
  C30      1.0000 0.49181  0.19790  0.76181  Biso   1.000  C
  H24      1.0000 0.50804  0.27095  0.69500  Biso   1.000  H
  H25      1.0000 0.28697  0.98204  0.79799  Biso   1.000  H
  C31      1.0000 0.43048  0.11507  0.79059  Biso   1.000  C
  H26      1.0000 0.55498  0.26106  0.77600  Biso   1.000  H
  H27      1.0000 0.45502  0.11300  0.82500  Biso   1.000  H
  C32      1.0000 0.42630  0.40545  0.45599  Biso   1.000  C
  C33      1.0000 0.47983  0.49072  0.42451  Biso   1.000  C
  C34      1.0000 0.46710  0.25177  0.47061  Biso   1.000  C
  C35      1.0000 0.33258  0.47826  0.47191  Biso   1.000  C
  C36      1.0000 0.57303  0.41840  0.40849  Biso   1.000  C
  C37      1.0000 0.43993  0.64732  0.41041  Biso   1.000  C
  C38      1.0000 0.55823  0.18275  0.45482  Biso   1.000  C
  H28      1.0000 0.42900  0.19204  0.49501  Biso   1.000  H
  C39      1.0000 0.29660  0.62717  0.45801  Biso   1.000  C
  H29      1.0000 0.30098  0.41803  0.49501  Biso   1.000  H
  C40      1.0000 0.60961  0.26704  0.42301  Biso   1.000  C
  H30      1.0000 0.61001  0.48998  0.38500  Biso   1.000  H
  C41      1.0000 0.35084  0.71549  0.42669  Biso   1.000  C
  H31      1.0000 0.48101  0.71097  0.38500  Biso   1.000  H
  H32      1.0000 0.58300  0.06694  0.46800  Biso   1.000  H
  O6       1.0000 0.20803  0.70926  0.47142  Biso   1.000  O
  H33      1.0000 0.66598  0.21305  0.40901  Biso   1.000  H
  O7       1.0000 0.30730  0.86611  0.41606  Biso   1.000  O
  C42      1.0000 0.14030  0.61398  0.49749  Biso   1.000  C
  C43      1.0000 0.35133  0.95126  0.38141  Biso   1.000  C
  C44      1.0000 0.03882  0.71476  0.50271  Biso   1.000  C
  H34      1.0000 0.12003  0.50794  0.48101  Biso   1.000  H
  H35      1.0000 0.18400  0.58295  0.52900  Biso   1.000  H
  H36      1.0000 0.33802  0.87894  0.35101  Biso   1.000  H
  H37      1.0000 0.42602  0.96897  0.38999  Biso   1.000  H
  C45      1.0000 0.28913  0.10982  0.37479  Biso   1.000  C
  C46      1.0000 0.02520  0.78976  0.54179  Biso   1.000  C
  N2       1.0000 0.96331  0.72135  0.46731  Biso   1.000  N
  O8       1.0000 0.18112  0.07415  0.35381  Biso   1.000  O
  H38      1.0000 0.33000  0.20596  0.35600  Biso   1.000  H
  H39      1.0000 0.27297  0.16003  0.40601  Biso   1.000  H
  H40      1.0000 0.07502  0.76802  0.57099  Biso   1.000  H
  C47      1.0000 0.93040  0.88285  0.54411  Biso   1.000  C
  C48      1.0000 0.87112  0.81187  0.47008  Biso   1.000  C
  C49      1.0000 0.11771  0.21928  0.34451  Biso   1.000  C
  C50      1.0000 0.85191  0.89335  0.50780  Biso   1.000  C
  H41      1.0000 0.91099  0.93501  0.57301  Biso   1.000  H
  C51      1.0000 0.79084  0.81810  0.42950  Biso   1.000  C
  C52      1.0000 0.00969  0.17078  0.31890  Biso   1.000  C
  H42      1.0000 0.15502  0.31297  0.32699  Biso   1.000  H
  H43      1.0000 0.10901  0.26900  0.37600  Biso   1.000  H
  H44      1.0000 0.78502  0.96201  0.50600  Biso   1.000  H
  O9       1.0000 0.83437  0.93147  0.40079  Biso   1.000  O
  H45      1.0000 0.77996  0.70401  0.41501  Biso   1.000  H
  H46      1.0000 0.71102  0.87002  0.43599  Biso   1.000  H
  O10      1.0000 0.94410  0.08881  0.34826  Biso   1.000  O
  H47      1.0000 0.97001  0.26594  0.30500  Biso   1.000  H
  H48      1.0000 0.02103  0.10799  0.29101  Biso   1.000  H
  C53      1.0000 0.78467  0.93758  0.35870  Biso   1.000  C
  C54      1.0000 0.84576  0.02321  0.32941  Biso   1.000  C
  C55      1.0000 0.68589  0.86758  0.34380  Biso   1.000  C
  C56      1.0000 0.80677  0.03567  0.28631  Biso   1.000  C
  C57      1.0000 0.64367  0.87564  0.29900  Biso   1.000  C
  H49      1.0000 0.63998  0.80296  0.36301  Biso   1.000  H
  C58      1.0000 0.70518  0.95895  0.27000  Biso   1.000  C
  H50      1.0000 0.85601  0.10200  0.26400  Biso   1.000  H
  C59      1.0000 0.54379  0.79697  0.28210  Biso   1.000  C
  C60      1.0000 0.66582  0.96445  0.22491  Biso   1.000  C
  C61      1.0000 0.50816  0.80210  0.23819  Biso   1.000  C
  H51      1.0000 0.49201  0.72905  0.30500  Biso   1.000  H
  C62      1.0000 0.56949  0.88493  0.20942  Biso   1.000  C
  H52      1.0000 0.71300  0.01796  0.20201  Biso   1.000  H
  H53      1.0000 0.44498  0.73894  0.22400  Biso   1.000  H
  H54      1.0000 0.54503  0.88700  0.17500  Biso   1.000  H
  O11      1.0000 0.81886  0.57415  0.14619  Biso   1.000  O
  C63      1.0000 0.71093  0.60982  0.12521  Biso   1.000  C
  C64      1.0000 0.88228  0.71928  0.15549  Biso   1.000  C
  C65      1.0000 0.64874  0.45126  0.11859  Biso   1.000  C
  H55      1.0000 0.66998  0.70596  0.14400  Biso   1.000  H
  H56      1.0000 0.72702  0.66003  0.09399  Biso   1.000  H
  C66      1.0000 0.99030  0.67078  0.18110  Biso   1.000  C
  H57      1.0000 0.84496  0.81297  0.17301  Biso   1.000  H
  H58      1.0000 0.89097  0.76900  0.12401  Biso   1.000  H
  O12      1.0000 0.69269  0.36611  0.08394  Biso   1.000  O
  H59      1.0000 0.66197  0.37894  0.14900  Biso   1.000  H
  H60      1.0000 0.57404  0.46897  0.11001  Biso   1.000  H
  H61      1.0000 0.97903  0.60799  0.20899  Biso   1.000  H
  O13      1.0000 0.05588  0.58881  0.15174  Biso   1.000  O
  H62      1.0000 0.02998  0.76594  0.19500  Biso   1.000  H
  C67      1.0000 0.64923  0.21549  0.07331  Biso   1.000  C
  C68      1.0000 0.15422  0.52321  0.17059  Biso   1.000  C
  C69      1.0000 0.56006  0.14732  0.08959  Biso   1.000  C
  C70      1.0000 0.70339  0.12717  0.04199  Biso   1.000  C
  C71      1.0000 0.21531  0.43758  0.14130  Biso   1.000  C
  C72      1.0000 0.19322  0.53567  0.21369  Biso   1.000  C
  H63      1.0000 0.51897  0.21097  0.11500  Biso   1.000  H
  C73      1.0000 0.52023  0.99072  0.07549  Biso   1.000  C
  O14      1.0000 0.79203  0.20926  0.02858  Biso   1.000  O
  C74      1.0000 0.66740  0.97826  0.02809  Biso   1.000  C
  O15      1.0000 0.16561  0.43147  0.09921  Biso   1.000  O
  C75      1.0000 0.31409  0.36758  0.15621  Biso   1.000  C
  C76      1.0000 0.29481  0.45895  0.23000  Biso   1.000  C
  H64      1.0000 0.14397  0.60200  0.23600  Biso   1.000  H
  C77      1.0000 0.57368  0.90545  0.04401  Biso   1.000  C
  C78      1.0000 0.42704  0.91840  0.09151  Biso   1.000  C
  C79      1.0000 0.85969  0.11398  0.00251  Biso   1.000  C
  H65      1.0000 0.69900  0.91803  0.00499  Biso   1.000  H
  C80      1.0000 0.20923  0.31810  0.07050  Biso   1.000  C
  C81      1.0000 0.35631  0.37564  0.20100  Biso   1.000  C
  H66      1.0000 0.36001  0.30296  0.13699  Biso   1.000  H
  C82      1.0000 0.33416  0.46445  0.27509  Biso   1.000  C
  C83      1.0000 0.53288  0.75177  0.02939  Biso   1.000  C
  C84      1.0000 0.39037  0.76704  0.07699  Biso   1.000  C
  H67      1.0000 0.38997  0.98998  0.11500  Biso   1.000  H
  H68      1.0000 0.88003  0.00794  0.01899  Biso   1.000  H
  C85      1.0000 0.96124  0.21476  0.99729  Biso   1.000  C
  H69      1.0000 0.81607  0.08295  0.97100  Biso   1.000  H
  C86      1.0000 0.12886  0.31187  0.02988  Biso   1.000  C
  H70      1.0000 0.22002  0.20401  0.08499  Biso   1.000  H
  H71      1.0000 0.28897  0.37002  0.06401  Biso   1.000  H
  C87      1.0000 0.45619  0.29697  0.21790  Biso   1.000  C
  C88      1.0000 0.43049  0.38493  0.29058  Biso   1.000  C
  H72      1.0000 0.28698  0.51796  0.29799  Biso   1.000  H
  C89      1.0000 0.44183  0.68275  0.04518  Biso   1.000  C
  H73      1.0000 0.57098  0.69204  0.00499  Biso   1.000  H
  H74      1.0000 0.33401  0.71305  0.09099  Biso   1.000  H
  C90      1.0000 0.97486  0.28976  0.95821  Biso   1.000  C
  N3       1.0000 0.03667  0.22135  0.03269  Biso   1.000  N
  C91      1.0000 0.14816  0.39335  0.99220  Biso   1.000  C
  C92      1.0000 0.49183  0.30210  0.26181  Biso   1.000  C
  H75      1.0000 0.50797  0.22905  0.19500  Biso   1.000  H
  H76      1.0000 0.45504  0.38700  0.32500  Biso   1.000  H
  H77      1.0000 0.41698  0.56694  0.03200  Biso   1.000  H
  H78      1.0000 0.92505  0.26802  0.92901  Biso   1.000  H
  C93      1.0000 0.06966  0.38285  0.95589  Biso   1.000  C
  H79      1.0000 0.21505  0.46201  0.99400  Biso   1.000  H
  H80      1.0000 0.55500  0.23894  0.27600  Biso   1.000  H
  H81      1.0000 0.08899  0.43501  0.92699  Biso   1.000  H
  O16      1.0000 0.18111  0.42585  0.85381  Biso   1.000  O
  C94      1.0000 0.11769  0.28072  0.84451  Biso   1.000  C
  C95      1.0000 0.28912  0.39018  0.87479  Biso   1.000  C
  C96      1.0000 0.00967  0.32922  0.81890  Biso   1.000  C
  H82      1.0000 0.15500  0.18703  0.82699  Biso   1.000  H
  H83      1.0000 0.10899  0.23100  0.87600  Biso   1.000  H
  C97      1.0000 0.35131  0.54874  0.88141  Biso   1.000  C
  H84      1.0000 0.32999  0.29404  0.85600  Biso   1.000  H
  H85      1.0000 0.27303  0.33997  0.90601  Biso   1.000  H
  H86      1.0000 0.02101  0.39201  0.79101  Biso   1.000  H
  O17      1.0000 0.94408  0.41119  0.84826  Biso   1.000  O
  H87      1.0000 0.96999  0.23406  0.80501  Biso   1.000  H
  O18      1.0000 0.30728  0.63389  0.91606  Biso   1.000  O
  H88      1.0000 0.33800  0.62106  0.85101  Biso   1.000  H
  H89      1.0000 0.42601  0.53103  0.88999  Biso   1.000  H
  C98      1.0000 0.84583  0.47679  0.82941  Biso   1.000  C
  C99      1.0000 0.35082  0.78451  0.92669  Biso   1.000  C
  C100     1.0000 0.78474  0.56242  0.85870  Biso   1.000  C
  C101     1.0000 0.80683  0.46433  0.78631  Biso   1.000  C
  C102     1.0000 0.29658  0.87283  0.95801  Biso   1.000  C
  C103     1.0000 0.43991  0.85268  0.91041  Biso   1.000  C
  O19      1.0000 0.83443  0.56853  0.90079  Biso   1.000  O
  C104     1.0000 0.68587  0.63242  0.84380  Biso   1.000  C
  C105     1.0000 0.70516  0.54105  0.77000  Biso   1.000  C
  H90      1.0000 0.85599  0.39800  0.76400  Biso   1.000  H
  O20      1.0000 0.20801  0.79074  0.97142  Biso   1.000  O
  C106     1.0000 0.33257  0.02174  0.97191  Biso   1.000  C
  H91      1.0000 0.48099  0.78903  0.88500  Biso   1.000  H
  C107     1.0000 0.47982  0.00928  0.92451  Biso   1.000  C
  C108     1.0000 0.79082  0.68190  0.92950  Biso   1.000  C
  C109     1.0000 0.64373  0.62436  0.79900  Biso   1.000  C
  H92      1.0000 0.64004  0.69704  0.86301  Biso   1.000  H
  C110     1.0000 0.66581  0.53555  0.72491  Biso   1.000  C
  C111     1.0000 0.14028  0.88602  0.99749  Biso   1.000  C
  C112     1.0000 0.42628  0.09455  0.95599  Biso   1.000  C
  H93      1.0000 0.30097  0.08197  0.99501  Biso   1.000  H
  C113     1.0000 0.57301  0.08160  0.90849  Biso   1.000  C
  C114     1.0000 0.87110  0.68813  0.97008  Biso   1.000  C
  H94      1.0000 0.78003  0.79599  0.91501  Biso   1.000  H
  H95      1.0000 0.71100  0.62998  0.93599  Biso   1.000  H
  C115     1.0000 0.54377  0.70303  0.78210  Biso   1.000  C
  C116     1.0000 0.56947  0.61507  0.70942  Biso   1.000  C
  H96      1.0000 0.71298  0.48204  0.70201  Biso   1.000  H
  C117     1.0000 0.03881  0.78524  0.00271  Biso   1.000  C
  H97      1.0000 0.12002  0.99206  0.98101  Biso   1.000  H
  H98      1.0000 0.18398  0.91705  0.02900  Biso   1.000  H
  C118     1.0000 0.46709  0.24823  0.97061  Biso   1.000  C
  C119     1.0000 0.60960  0.23296  0.92301  Biso   1.000  C
  H99      1.0000 0.60999  0.01002  0.88500  Biso   1.000  H
  N4       1.0000 0.96330  0.77865  0.96731  Biso   1.000  N
  C120     1.0000 0.85189  0.60665  0.00780  Biso   1.000  C
  C121     1.0000 0.50822  0.69790  0.73819  Biso   1.000  C
  H100     1.0000 0.49200  0.77095  0.80501  Biso   1.000  H
  H101     1.0000 0.54501  0.61300  0.67500  Biso   1.000  H
  C122     1.0000 0.02518  0.71024  0.04179  Biso   1.000  C
  C123     1.0000 0.55822  0.31725  0.95482  Biso   1.000  C
  H102     1.0000 0.42899  0.30796  0.99501  Biso   1.000  H
  H103     1.0000 0.66604  0.28695  0.90901  Biso   1.000  H
  C124     1.0000 0.93039  0.61715  0.04411  Biso   1.000  C
  H104     1.0000 0.78500  0.53799  0.00600  Biso   1.000  H
  H105     1.0000 0.44497  0.76106  0.72400  Biso   1.000  H
  H106     1.0000 0.07500  0.73198  0.07099  Biso   1.000  H
  H107     1.0000 0.58298  0.43306  0.96800  Biso   1.000  H
  H108     1.0000 0.91097  0.56499  0.07301  Biso   1.000  H
