data_image0
_cell_length_a       12.109
_cell_length_b       12.2
_cell_length_c       12.804
_cell_angle_alpha    106.92
_cell_angle_beta     112.57
_cell_angle_gamma    92.56

_symmetry_space_group_name_H-M    "P 1"
_symmetry_int_tables_number       1

loop_
  _symmetry_equiv_pos_as_xyz
  'x, y, z'

loop_
  _atom_site_label
  _atom_site_occupancy
  _atom_site_fract_x
  _atom_site_fract_y
  _atom_site_fract_z
  _atom_site_thermal_displace_type
  _atom_site_B_iso_or_equiv
  _atom_site_type_symbol
  C1       1.0000 0.24913  0.20413  0.42354  Biso   1.000  C
  N1       1.0000 0.14992  0.22514  0.33875  Biso   1.000  N
  O1       1.0000 0.30674  0.12663  0.40542  Biso   1.000  O
  N2       1.0000 0.27264  0.28506  0.53275  Biso   1.000  N
  C2       1.0000 0.11465  0.16784  0.21078  Biso   1.000  C
  C3       1.0000 0.11710  0.33587  0.38621  Biso   1.000  C
  C4       1.0000 0.19915  0.37453  0.52324  Biso   1.000  C
  C5       1.0000 0.37351  0.28783  0.64079  Biso   1.000  C
  N3       1.0000 0.00374  0.08533  0.15012  Biso   1.000  N
  H1       1.0000 0.18075  0.12743  0.20029  Biso   1.000  H
  H2       1.0000 0.10679  0.22808  0.17211  Biso   1.000  H
  H3       1.0000 0.13371  0.39351  0.35014  Biso   1.000  H
  N4       1.0000 0.99661  0.32942  0.38101  Biso   1.000  N
  N5       1.0000 0.11158  0.37644  0.57546  Biso   1.000  N
  H4       1.0000 0.25030  0.45307  0.55267  Biso   1.000  H
  N6       1.0000 0.33660  0.25119  0.72218  Biso   1.000  N
  H5       1.0000 0.42781  0.23651  0.61889  Biso   1.000  H
  H6       1.0000 0.42048  0.36812  0.68269  Biso   1.000  H
  C6       1.0000 0.99933  0.96751  0.12608  Biso   1.000  C
  C7       1.0000 0.88440  0.11664  0.11001  Biso   1.000  C
  C8       1.0000 0.88907  0.30100  0.27180  Biso   1.000  C
  C9       1.0000 0.99450  0.36121  0.49174  Biso   1.000  C
  C10      1.0000 0.14458  0.42893  0.70324  Biso   1.000  C
  C11      1.0000 0.36779  0.15330  0.75026  Biso   1.000  C
  C12      1.0000 0.30863  0.33185  0.81281  Biso   1.000  C
  N7       1.0000 0.87905  0.91507  0.07340  Biso   1.000  N
  O2       1.0000 0.08602  0.91766  0.14519  Biso   1.000  O
  C13      1.0000 0.79620  0.99728  0.05061  Biso   1.000  C
  N8       1.0000 0.85080  0.17721  0.20630  Biso   1.000  N
  H7       1.0000 0.87321  0.15955  0.05205  Biso   1.000  H
  H8       1.0000 0.82229  0.33187  0.29083  Biso   1.000  H
  H9       1.0000 0.90380  0.34034  0.21949  Biso   1.000  H
  O3       1.0000 0.90506  0.37635  0.51265  Biso   1.000  O
  N9       1.0000 0.18481  0.35137  0.77028  Biso   1.000  N
  H10      1.0000 0.07348  0.45760  0.71473  Biso   1.000  H
  H11      1.0000 0.21016  0.49714  0.73600  Biso   1.000  H
  O4       1.0000 0.40544  0.07606  0.69472  Biso   1.000  O
  N10      1.0000 0.34878  0.15686  0.84933  Biso   1.000  N
  H12      1.0000 0.36798  0.40680  0.85346  Biso   1.000  H
  C14      1.0000 0.31571  0.26595  0.90165  Biso   1.000  C
  C15      1.0000 0.84163  0.79003  0.02782  Biso   1.000  C
  H13      1.0000 0.74887  0.98076  0.96267  Biso   1.000  H
  N11      1.0000 0.71796  0.01159  0.11324  Biso   1.000  N
  C16      1.0000 0.74854  0.11923  0.19903  Biso   1.000  C
  C17      1.0000 0.12152  0.31423  0.82681  Biso   1.000  C
  C18      1.0000 0.38334  0.07398  0.91134  Biso   1.000  C
  N12      1.0000 0.19427  0.25684  0.89707  Biso   1.000  N
  H14      1.0000 0.37813  0.30970  0.98447  Biso   1.000  H
  H15      1.0000 0.77272  0.76808  0.94795  Biso   1.000  H
  N13      1.0000 0.80587  0.74318  0.10301  Biso   1.000  N
  H16      1.0000 0.90955  0.75352  0.01669  Biso   1.000  H
  C19      1.0000 0.61672  0.92612  0.08875  Biso   1.000  C
  O5       1.0000 0.69110  0.15650  0.25807  Biso   1.000  O
  O6       1.0000 0.02005  0.33092  0.81730  Biso   1.000  O
  H17      1.0000 0.44337  0.03318  0.88774  Biso   1.000  H
  H18      1.0000 0.42349  0.11645  0.99883  Biso   1.000  H
  N14      1.0000 0.28218  0.98842  0.88684  Biso   1.000  N
  C20      1.0000 0.15852  0.21007  0.97227  Biso   1.000  C
  C21      1.0000 0.87851  0.68576  0.17319  Biso   1.000  C
  C22      1.0000 0.68444  0.73406  0.09844  Biso   1.000  C
  N15      1.0000 0.65133  0.84321  0.15066  Biso   1.000  N
  H19      1.0000 0.55678  0.96691  0.11235  Biso   1.000  H
  H20      1.0000 0.57662  0.88354  0.00117  Biso   1.000  H
  C23      1.0000 0.20386  0.00281  0.94947  Biso   1.000  C
  C24      1.0000 0.25161  0.88087  0.80105  Biso   1.000  C
  N16      1.0000 0.12110  0.08503  0.92668  Biso   1.000  N
  H21      1.0000 0.09056  0.24655  0.98330  Biso   1.000  H
  H22      1.0000 0.22743  0.23202  0.05213  Biso   1.000  H
  O7       1.0000 0.98006  0.66907  0.18270  Biso   1.000  O
  N17      1.0000 0.81534  0.64872  0.22981  Biso   1.000  N
  C25      1.0000 0.69139  0.66822  0.18718  Biso   1.000  C
  H23      1.0000 0.62202  0.69040  0.01561  Biso   1.000  H
  C26      1.0000 0.63236  0.84679  0.24982  Biso   1.000  C
  C27      1.0000 0.11567  0.88346  0.89007  Biso   1.000  C
  H24      1.0000 0.25128  0.01933  0.03741  Biso   1.000  H
  O8       1.0000 0.30901  0.84357  0.74192  Biso   1.000  O
  N18      1.0000 0.14922  0.82286  0.79370  Biso   1.000  N
  C28      1.0000 0.00078  0.03256  0.87392  Biso   1.000  C
  C29      1.0000 0.85557  0.57109  0.29684  Biso   1.000  C
  N19      1.0000 0.66355  0.74890  0.27791  Biso   1.000  N
  H25      1.0000 0.63217  0.59329  0.14663  Biso   1.000  H
  O9       1.0000 0.59467  0.92401  0.30527  Biso   1.000  O
  N20      1.0000 0.99641  0.91477  0.84996  Biso   1.000  N
  H26      1.0000 0.12685  0.84055  0.94804  Biso   1.000  H
  C30      1.0000 0.11108  0.69909  0.72828  Biso   1.000  C
  O10      1.0000 0.91408  0.08233  0.85480  Biso   1.000  O
  N21      1.0000 0.88857  0.62366  0.42462  Biso   1.000  N
  H27      1.0000 0.92667  0.54250  0.28535  Biso   1.000  H
  H28      1.0000 0.78995  0.50293  0.26400  Biso   1.000  H
  C31      1.0000 0.62651  0.71224  0.35920  Biso   1.000  C
  C32      1.0000 0.88546  0.83223  0.78921  Biso   1.000  C
  N22      1.0000 0.00346  0.67068  0.61907  Biso   1.000  N
  H29      1.0000 0.17786  0.66823  0.70926  Biso   1.000  H
  H30      1.0000 0.09623  0.65973  0.78050  Biso   1.000  H
  C33      1.0000 0.80100  0.62557  0.47685  Biso   1.000  C
  C34      1.0000 0.00564  0.63881  0.50834  Biso   1.000  C
  N23      1.0000 0.72750  0.71504  0.46733  Biso   1.000  N
  H31      1.0000 0.57222  0.76348  0.38110  Biso   1.000  H
  H32      1.0000 0.57963  0.63187  0.31730  Biso   1.000  H
  N24      1.0000 0.85023  0.77496  0.66134  Biso   1.000  N
  H33      1.0000 0.81936  0.87264  0.79971  Biso   1.000  H
  H34      1.0000 0.89327  0.77194  0.82797  Biso   1.000  H
  C35      1.0000 0.88296  0.66423  0.61387  Biso   1.000  C
  H35      1.0000 0.74985  0.54703  0.44741  Biso   1.000  H
  O11      1.0000 0.09508  0.62375  0.48743  Biso   1.000  O
  C36      1.0000 0.75102  0.79596  0.57654  Biso   1.000  C
  H36      1.0000 0.86635  0.60651  0.64994  Biso   1.000  H
  O12      1.0000 0.69340  0.87347  0.59467  Biso   1.000  O
  Ne1      1.0000 0.00006  0.00004  0.50003  Biso   1.000  Ne
  He1      1.0000 0.79111  0.14159  0.56097  Biso   1.000  He
  He2      1.0000 0.21498  0.85510  0.43753  Biso   1.000  He
  Ar1      1.0000 0.00008  0.00004  0.50004  Biso   1.000  Ar
