data_image0
_cell_length_a       17.199
_cell_length_b       11.385
_cell_length_c       10.395
_cell_angle_alpha    106.66
_cell_angle_beta     81.74
_cell_angle_gamma    107.1

_symmetry_space_group_name_H-M    "P 1"
_symmetry_int_tables_number       1

loop_
  _symmetry_equiv_pos_as_xyz
  'x, y, z'

loop_
  _atom_site_label
  _atom_site_occupancy
  _atom_site_fract_x
  _atom_site_fract_y
  _atom_site_fract_z
  _atom_site_thermal_displace_type
  _atom_site_B_iso_or_equiv
  _atom_site_type_symbol
  C1       1.0000 0.53401  0.60309  0.77775  Biso   1.000  C
  C2       1.0000 0.57931  0.52545  0.81729  Biso   1.000  C
  N1       1.0000 0.57319  0.74111  0.81870  Biso   1.000  N
  H1       1.0000 0.53100  0.57597  0.67802  Biso   1.000  H
  H2       1.0000 0.47802  0.58699  0.82202  Biso   1.000  H
  N2       1.0000 0.65561  0.51661  0.73297  Biso   1.000  N
  H3       1.0000 0.59300  0.56501  0.91299  Biso   1.000  H
  H4       1.0000 0.54299  0.43797  0.80904  Biso   1.000  H
  C3       1.0000 0.52461  0.82372  0.79797  Biso   1.000  C
  H5       1.0000 0.62703  0.75804  0.76497  Biso   1.000  H
  H6       1.0000 0.58299  0.76498  0.91601  Biso   1.000  H
  C4       1.0000 0.69278  0.42376  0.76366  Biso   1.000  C
  H7       1.0000 0.69601  0.60198  0.75098  Biso   1.000  H
  H8       1.0000 0.64298  0.48703  0.63596  Biso   1.000  H
  C5       1.0000 0.56767  0.96060  0.85533  Biso   1.000  C
  H9       1.0000 0.46900  0.80304  0.84496  Biso   1.000  H
  H10      1.0000 0.51901  0.80795  0.69996  Biso   1.000  H
  C6       1.0000 0.77097  0.41709  0.67994  Biso   1.000  C
  H11      1.0000 0.65299  0.33798  0.74504  Biso   1.000  H
  H12      1.0000 0.70402  0.45204  0.86096  Biso   1.000  H
  N3       1.0000 0.65149  0.99800  0.79214  Biso   1.000  N
  H13      1.0000 0.57097  0.97498  0.95404  Biso   1.000  H
  H14      1.0000 0.53500  0.01503  0.84003  Biso   1.000  H
  N4       1.0000 0.83380  0.53947  0.71143  Biso   1.000  N
  H15      1.0000 0.79099  0.35002  0.69805  Biso   1.000  H
  H16      1.0000 0.76000  0.39397  0.58303  Biso   1.000  H
  C7       1.0000 0.64859  0.02003  0.66001  Biso   1.000  C
  C8       1.0000 0.69867  0.11354  0.88139  Biso   1.000  C
  C9       1.0000 0.89832  0.54601  0.59903  Biso   1.000  C
  C10      1.0000 0.87069  0.55688  0.83722  Biso   1.000  C
  H17      1.0000 0.60097  0.95396  0.61302  Biso   1.000  H
  C11      1.0000 0.72608  0.01267  0.57196  Biso   1.000  C
  H18      1.0000 0.64098  0.10698  0.67400  Biso   1.000  H
  C12      1.0000 0.73187  0.09304  0.99419  Biso   1.000  C
  H19      1.0000 0.66300  0.17199  0.91903  Biso   1.000  H
  H20      1.0000 0.74598  0.15507  0.82605  Biso   1.000  H
  C13      1.0000 0.87121  0.57835  0.48764  Biso   1.000  C
  H21      1.0000 0.94901  0.61198  0.63395  Biso   1.000  H
  H22      1.0000 0.91098  0.46100  0.56401  Biso   1.000  H
  C14      1.0000 0.90923  0.69574  0.90343  Biso   1.000  C
  H23      1.0000 0.91403  0.51003  0.81699  Biso   1.000  H
  H24      1.0000 0.82700  0.52100  0.90101  Biso   1.000  H
  N5       1.0000 0.74072  0.88613  0.54489  Biso   1.000  N
  H25      1.0000 0.72098  0.02905  0.48402  Biso   1.000  H
  H26      1.0000 0.77298  0.07905  0.61795  Biso   1.000  H
  N6       1.0000 0.78496  0.00439  0.94469  Biso   1.000  N
  H27      1.0000 0.68500  0.05596  0.05306  Biso   1.000  H
  H28      1.0000 0.76502  0.17698  0.04702  Biso   1.000  H
  N7       1.0000 0.85650  0.70799  0.53040  Biso   1.000  N
  H29      1.0000 0.81997  0.51402  0.45604  Biso   1.000  H
  H30      1.0000 0.91401  0.57603  0.41197  Biso   1.000  H
  N8       1.0000 0.84827  0.76998  0.94026  Biso   1.000  N
  H31      1.0000 0.93500  0.70202  0.98705  Biso   1.000  H
  H32      1.0000 0.95201  0.73202  0.83903  Biso   1.000  H
  C15      1.0000 0.81428  0.86973  0.45182  Biso   1.000  C
  H33      1.0000 0.69198  0.82000  0.50404  Biso   1.000  H
  H34      1.0000 0.74800  0.87201  0.63304  Biso   1.000  H
  H35      1.0000 0.75098  0.91996  0.89699  Biso   1.000  H
  C16      1.0000 0.82498  0.98554  0.05558  Biso   1.000  C
  H36      1.0000 0.82898  0.03901  0.88099  Biso   1.000  H
  C17      1.0000 0.82192  0.73511  0.41760  Biso   1.000  C
  H37      1.0000 0.90900  0.77298  0.55496  Biso   1.000  H
  H38      1.0000 0.81702  0.71197  0.61101  Biso   1.000  H
  C18      1.0000 0.88522  0.90893  0.99892  Biso   1.000  C
  H39      1.0000 0.82100  0.75900  0.85805  Biso   1.000  H
  H40      1.0000 0.80699  0.73601  0.00808  Biso   1.000  H
  H41      1.0000 0.86401  0.92896  0.49599  Biso   1.000  H
  H42      1.0000 0.80898  0.89101  0.36699  Biso   1.000  H
  H43      1.0000 0.78199  0.93993  0.11303  Biso   1.000  H
  H44      1.0000 0.85400  0.07095  0.11102  Biso   1.000  H
  H45      1.0000 0.76699  0.67502  0.39999  Biso   1.000  H
  H46      1.0000 0.85902  0.72099  0.33499  Biso   1.000  H
  H47      1.0000 0.91997  0.94496  0.92597  Biso   1.000  H
  H48      1.0000 0.91997  0.91793  0.07299  Biso   1.000  H
  C19      1.0000 0.46600  0.39690  0.22228  Biso   1.000  C
  C20      1.0000 0.42070  0.47454  0.18274  Biso   1.000  C
  N9       1.0000 0.42682  0.25888  0.18133  Biso   1.000  N
  H49      1.0000 0.46902  0.42402  0.32201  Biso   1.000  H
  H50      1.0000 0.52199  0.41301  0.17801  Biso   1.000  H
  N10      1.0000 0.34441  0.48336  0.26696  Biso   1.000  N
  H51      1.0000 0.40701  0.43499  0.08704  Biso   1.000  H
  H52      1.0000 0.45702  0.56202  0.19099  Biso   1.000  H
  C21      1.0000 0.47540  0.17625  0.20196  Biso   1.000  C
  H53      1.0000 0.37301  0.24203  0.23496  Biso   1.000  H
  H54      1.0000 0.41702  0.23502  0.08402  Biso   1.000  H
  C22      1.0000 0.30723  0.57621  0.23627  Biso   1.000  C
  H55      1.0000 0.30400  0.39799  0.24895  Biso   1.000  H
  H56      1.0000 0.35699  0.51303  0.36397  Biso   1.000  H
  C23      1.0000 0.43228  0.03940  0.14470  Biso   1.000  C
  H57      1.0000 0.53103  0.19703  0.15497  Biso   1.000  H
  H58      1.0000 0.48101  0.19202  0.29997  Biso   1.000  H
  C24      1.0000 0.22899  0.58290  0.32009  Biso   1.000  C
  H59      1.0000 0.34702  0.66202  0.25499  Biso   1.000  H
  H60      1.0000 0.29601  0.54803  0.13897  Biso   1.000  H
  N11      1.0000 0.34852  0.00199  0.20790  Biso   1.000  N
  H61      1.0000 0.42898  0.02502  0.04599  Biso   1.000  H
  H62      1.0000 0.46501  0.98496  0.16000  Biso   1.000  H
  N12      1.0000 0.16621  0.46052  0.28860  Biso   1.000  N
  H63      1.0000 0.20902  0.64998  0.30198  Biso   1.000  H
  H64      1.0000 0.24002  0.60603  0.41700  Biso   1.000  H
  C25      1.0000 0.35142  0.97996  0.34002  Biso   1.000  C
  C26      1.0000 0.30128  0.88645  0.11864  Biso   1.000  C
  C27      1.0000 0.10169  0.45398  0.40100  Biso   1.000  C
  C28      1.0000 0.12932  0.44312  0.16281  Biso   1.000  C
  H65      1.0000 0.39898  0.04603  0.38701  Biso   1.000  H
  C29      1.0000 0.27393  0.98730  0.42797  Biso   1.000  C
  H66      1.0000 0.35903  0.89301  0.32603  Biso   1.000  H
  C30      1.0000 0.26809  0.90696  0.00584  Biso   1.000  C
  H67      1.0000 0.33701  0.82800  0.08100  Biso   1.000  H
  H68      1.0000 0.25403  0.84493  0.17398  Biso   1.000  H
  C31      1.0000 0.12882  0.42174  0.51239  Biso   1.000  C
  H69      1.0000 0.05101  0.38799  0.36598  Biso   1.000  H
  H70      1.0000 0.08897  0.53899  0.43602  Biso   1.000  H
  C32      1.0000 0.09078  0.30426  0.09660  Biso   1.000  C
  H71      1.0000 0.08600  0.49005  0.18304  Biso   1.000  H
  H72      1.0000 0.17301  0.47899  0.09902  Biso   1.000  H
  N13      1.0000 0.25930  0.11395  0.45514  Biso   1.000  N
  H73      1.0000 0.27904  0.97095  0.51602  Biso   1.000  H
  H74      1.0000 0.22698  0.92092  0.38198  Biso   1.000  H
  N14      1.0000 0.21499  0.99560  0.05534  Biso   1.000  N
  H75      1.0000 0.31501  0.94404  0.94697  Biso   1.000  H
  H76      1.0000 0.23500  0.82301  0.95301  Biso   1.000  H
  N15      1.0000 0.14351  0.29201  0.46963  Biso   1.000  N
  H77      1.0000 0.17998  0.48597  0.54399  Biso   1.000  H
  H78      1.0000 0.08602  0.42403  0.58796  Biso   1.000  H
  N16      1.0000 0.15168  0.22999  0.05967  Biso   1.000  N
  H79      1.0000 0.06501  0.29798  0.01298  Biso   1.000  H
  H80      1.0000 0.04801  0.26798  0.16100  Biso   1.000  H
  C33      1.0000 0.18567  0.13026  0.54822  Biso   1.000  C
  H81      1.0000 0.30797  0.17999  0.49599  Biso   1.000  H
  H82      1.0000 0.25201  0.12798  0.36699  Biso   1.000  H
  C34      1.0000 0.17503  0.01446  0.94445  Biso   1.000  C
  H83      1.0000 0.24903  0.08004  0.10304  Biso   1.000  H
  H84      1.0000 0.17103  0.96099  0.11904  Biso   1.000  H
  C35      1.0000 0.17809  0.26489  0.58243  Biso   1.000  C
  H85      1.0000 0.09101  0.22699  0.44497  Biso   1.000  H
  H86      1.0000 0.18299  0.28803  0.38902  Biso   1.000  H
  C36      1.0000 0.11479  0.09107  0.00111  Biso   1.000  C
  H87      1.0000 0.17901  0.24100  0.14198  Biso   1.000  H
  H88      1.0000 0.19302  0.26398  0.99195  Biso   1.000  H
  H89      1.0000 0.13600  0.07104  0.50404  Biso   1.000  H
  H90      1.0000 0.19097  0.10899  0.63304  Biso   1.000  H
  H91      1.0000 0.14601  0.92905  0.88901  Biso   1.000  H
  H92      1.0000 0.21803  0.06006  0.88700  Biso   1.000  H
  H93      1.0000 0.23297  0.32497  0.60004  Biso   1.000  H
  H94      1.0000 0.14099  0.27901  0.66504  Biso   1.000  H
  H95      1.0000 0.07999  0.05501  0.07396  Biso   1.000  H
  H96      1.0000 0.08005  0.08204  0.92694  Biso   1.000  H
