data_image0
_cell_length_a       12.503
_cell_length_b       16.797
_cell_length_c       17.554
_cell_angle_alpha    78.62
_cell_angle_beta     82.79
_cell_angle_gamma    69.51

_symmetry_space_group_name_H-M    "P 1"
_symmetry_int_tables_number       1

loop_
  _symmetry_equiv_pos_as_xyz
  'x, y, z'

loop_
  _atom_site_label
  _atom_site_occupancy
  _atom_site_fract_x
  _atom_site_fract_y
  _atom_site_fract_z
  _atom_site_thermal_displace_type
  _atom_site_B_iso_or_equiv
  _atom_site_type_symbol
  C1       1.0000 0.51997  0.55701  0.36801  Biso   1.000  C
  C2       1.0000 0.41693  0.52363  0.36603  Biso   1.000  C
  H1       1.0000 0.51130  0.61712  0.39071  Biso   1.000  H
  H2       1.0000 0.53197  0.56037  0.42163  Biso   1.000  H
  H3       1.0000 0.50604  0.61512  0.33558  Biso   1.000  H
  C3       1.0000 0.62723  0.48800  0.33249  Biso   1.000  C
  C4       1.0000 0.32502  0.56043  0.41400  Biso   1.000  C
  H4       1.0000 0.39138  0.51087  0.40073  Biso   1.000  H
  H5       1.0000 0.44338  0.46029  0.38221  Biso   1.000  H
  H6       1.0000 0.39306  0.53659  0.31212  Biso   1.000  H
  H7       1.0000 0.62302  0.43042  0.35159  Biso   1.000  H
  H8       1.0000 0.62702  0.49994  0.27549  Biso   1.000  H
  H9       1.0000 0.69763  0.49151  0.34839  Biso   1.000  H
  O1       1.0000 0.22985  0.55691  0.38838  Biso   1.000  O
  H10      1.0000 0.31686  0.55560  0.47140  Biso   1.000  H
  C5       1.0000 0.34551  0.63570  0.38192  Biso   1.000  C
  C6       1.0000 0.18854  0.49208  0.42320  Biso   1.000  C
  H11      1.0000 0.36303  0.63581  0.32527  Biso   1.000  H
  H12      1.0000 0.27381  0.68423  0.38832  Biso   1.000  H
  C7       1.0000 0.43694  0.65291  0.41260  Biso   1.000  C
  C8       1.0000 0.24632  0.42752  0.48369  Biso   1.000  C
  C9       1.0000 0.09006  0.49188  0.39892  Biso   1.000  C
  H13      1.0000 0.43517  0.63408  0.46972  Biso   1.000  H
  C10      1.0000 0.43396  0.73988  0.39712  Biso   1.000  C
  C11      1.0000 0.20759  0.36166  0.51472  Biso   1.000  C
  H14      1.0000 0.31262  0.43050  0.50249  Biso   1.000  H
  C12      1.0000 0.04626  0.42542  0.43222  Biso   1.000  C
  C13      1.0000 0.03175  0.56021  0.33418  Biso   1.000  C
  H15      1.0000 0.50697  0.74268  0.40789  Biso   1.000  H
  H16      1.0000 0.41866  0.76358  0.34221  Biso   1.000  H
  H17      1.0000 0.37234  0.77361  0.43030  Biso   1.000  H
  C14      1.0000 0.10755  0.35658  0.48829  Biso   1.000  C
  H18      1.0000 0.24752  0.31828  0.55460  Biso   1.000  H
  C15      1.0000 0.93927  0.42263  0.41097  Biso   1.000  C
  N1       1.0000 0.04732  0.51950  0.26408  Biso   1.000  N
  H19      1.0000 0.06544  0.60682  0.32358  Biso   1.000  H
  H20      1.0000 0.94923  0.58542  0.34891  Biso   1.000  H
  C16      1.0000 0.06479  0.28638  0.51839  Biso   1.000  C
  C17      1.0000 0.89655  0.36119  0.44427  Biso   1.000  C
  H21      1.0000 0.89824  0.46639  0.37179  Biso   1.000  H
  C18      1.0000 0.01424  0.56102  0.19440  Biso   1.000  C
  H22      1.0000 0.08130  0.46331  0.26932  Biso   1.000  H
  C19      1.0000 0.13117  0.20401  0.56851  Biso   1.000  C
  C20      1.0000 0.95969  0.29328  0.49731  Biso   1.000  C
  H23      1.0000 0.82343  0.36383  0.43187  Biso   1.000  H
  C21      1.0000 0.05464  0.50493  0.13297  Biso   1.000  C
  O2       1.0000 0.95529  0.63728  0.18293  Biso   1.000  O
  C22      1.0000 0.19169  0.13430  0.51728  Biso   1.000  C
  C23      1.0000 0.04434  0.17400  0.62528  Biso   1.000  C
  H24      1.0000 0.18809  0.21398  0.59739  Biso   1.000  H
  O3       1.0000 0.90608  0.23146  0.52712  Biso   1.000  O
  C24      1.0000 0.98698  0.45751  0.11702  Biso   1.000  C
  C25      1.0000 0.16056  0.49443  0.09688  Biso   1.000  C
  C26      1.0000 0.30454  0.12000  0.48287  Biso   1.000  C
  C27      1.0000 0.12536  0.08637  0.50238  Biso   1.000  C
  C28      1.0000 0.96220  0.15866  0.57771  Biso   1.000  C
  H25      1.0000 0.00204  0.21858  0.65782  Biso   1.000  H
  H26      1.0000 0.08400  0.12016  0.66009  Biso   1.000  H
  C29      1.0000 0.03389  0.39623  0.06561  Biso   1.000  C
  C30      1.0000 0.87629  0.46870  0.15248  Biso   1.000  C
  C31      1.0000 0.20457  0.43830  0.04233  Biso   1.000  C
  O4       1.0000 0.21895  0.54273  0.11638  Biso   1.000  O
  C32      1.0000 0.35074  0.06120  0.42797  Biso   1.000  C
  C33      1.0000 0.37884  0.15962  0.50150  Biso   1.000  C
  C34      1.0000 0.17536  0.02738  0.44957  Biso   1.000  C
  O5       1.0000 0.02094  0.09118  0.53521  Biso   1.000  O
  H27      1.0000 0.90359  0.14097  0.61439  Biso   1.000  H
  C35      1.0000 0.97042  0.34452  0.05228  Biso   1.000  C
  C36      1.0000 0.14217  0.39063  0.02841  Biso   1.000  C
  C37      1.0000 0.81399  0.42193  0.13612  Biso   1.000  C
  H28      1.0000 0.84485  0.50862  0.18758  Biso   1.000  H
  H29      1.0000 0.27678  0.43343  0.01543  Biso   1.000  H
  C38      1.0000 0.33348  0.52900  0.08541  Biso   1.000  C
  C39      1.0000 0.46352  0.04928  0.39298  Biso   1.000  C
  C40      1.0000 0.28278  0.01646  0.41330  Biso   1.000  C
  C41      1.0000 0.48605  0.14721  0.46541  Biso   1.000  C
  H30      1.0000 0.35383  0.19579  0.54010  Biso   1.000  H
  H31      1.0000 0.13308  0.99416  0.43868  Biso   1.000  H
  C42      1.0000 0.02188  0.26941  0.00699  Biso   1.000  C
  C43      1.0000 0.86331  0.35950  0.08820  Biso   1.000  C
  H32      1.0000 0.17322  0.35203  0.99202  Biso   1.000  H
  H33      1.0000 0.73750  0.43191  0.15731  Biso   1.000  H
  H34      1.0000 0.38005  0.46739  0.09810  Biso   1.000  H
  H35      1.0000 0.33518  0.54582  0.02812  Biso   1.000  H
  C44      1.0000 0.38049  0.58270  0.12057  Biso   1.000  C
  C45      1.0000 0.51236  0.98962  0.33272  Biso   1.000  C
  C46      1.0000 0.52705  0.09362  0.40981  Biso   1.000  C
  H36      1.0000 0.31096  0.97734  0.37732  Biso   1.000  H
  H37      1.0000 0.53289  0.17580  0.47868  Biso   1.000  H
  C47      1.0000 0.08606  0.19049  0.06218  Biso   1.000  C
  C48      1.0000 0.92462  0.24967  0.97933  Biso   1.000  C
  H38      1.0000 0.07353  0.28340  0.96204  Biso   1.000  H
  O6       1.0000 0.79050  0.31511  0.07790  Biso   1.000  O
  H39      1.0000 0.32886  0.64334  0.11149  Biso   1.000  H
  H40      1.0000 0.38216  0.56287  0.17763  Biso   1.000  H
  C49      1.0000 0.49979  0.57862  0.08762  Biso   1.000  C
  N2       1.0000 0.46391  0.03309  0.25652  Biso   1.000  N
  H41      1.0000 0.49369  0.93593  0.35002  Biso   1.000  H
  H42      1.0000 0.59671  0.97402  0.32731  Biso   1.000  H
  O7       1.0000 0.63356  0.08219  0.37010  Biso   1.000  O
  C50      1.0000 0.20728  0.15400  0.06713  Biso   1.000  C
  C51      1.0000 0.02099  0.15072  0.11498  Biso   1.000  C
  C52      1.0000 0.84696  0.23731  0.04908  Biso   1.000  C
  H43      1.0000 0.95515  0.19678  0.95540  Biso   1.000  H
  H44      1.0000 0.88273  0.29803  0.94003  Biso   1.000  H
  H45      1.0000 0.49827  0.59400  0.03022  Biso   1.000  H
  H46      1.0000 0.55137  0.51833  0.09967  Biso   1.000  H
  C53      1.0000 0.54886  0.63420  0.11562  Biso   1.000  C
  H47      1.0000 0.46076  0.08689  0.24068  Biso   1.000  H
  C54      1.0000 0.42485  0.99732  0.21052  Biso   1.000  C
  C55      1.0000 0.70222  0.13149  0.38448  Biso   1.000  C
  C56      1.0000 0.25494  0.08942  0.13152  Biso   1.000  C
  C57      1.0000 0.28551  0.17702  0.00792  Biso   1.000  C
  C58      1.0000 0.06589  0.08539  0.17617  Biso   1.000  C
  O8       1.0000 0.90390  0.17312  0.11102  Biso   1.000  O
  H48      1.0000 0.78729  0.21833  0.03260  Biso   1.000  H
  H49      1.0000 0.52556  0.63619  0.17082  Biso   1.000  H
  H50      1.0000 0.63253  0.61111  0.10910  Biso   1.000  H
  H51      1.0000 0.52146  0.69250  0.08558  Biso   1.000  H
  C59      1.0000 0.37516  0.05602  0.13798  Biso   1.000  C
  O9       1.0000 0.42049  0.92254  0.23200  Biso   1.000  O
  H52      1.0000 0.66141  0.19390  0.36917  Biso   1.000  H
  H53      1.0000 0.71559  0.12028  0.44061  Biso   1.000  H
  C60      1.0000 0.81431  0.10527  0.33802  Biso   1.000  C
  C61      1.0000 0.18008  0.05799  0.18630  Biso   1.000  C
  C62      1.0000 0.40150  0.13829  0.01223  Biso   1.000  C
  H54      1.0000 0.25642  0.22009  0.96454  Biso   1.000  H
  H55      1.0000 0.01742  0.06000  0.21081  Biso   1.000  H
  C63      1.0000 0.44742  0.07939  0.07860  Biso   1.000  C
  H56      1.0000 0.85564  0.04338  0.35537  Biso   1.000  H
  H57      1.0000 0.79959  0.11302  0.28242  Biso   1.000  H
  C64      1.0000 0.88958  0.15720  0.34600  Biso   1.000  C
  H58      1.0000 0.20990  0.01720  0.23078  Biso   1.000  H
  H59      1.0000 0.45134  0.15153  0.97002  Biso   1.000  H
  O10      1.0000 0.56228  0.04002  0.08919  Biso   1.000  O
  H60      1.0000 0.96897  0.12621  0.32813  Biso   1.000  H
  H61      1.0000 0.88981  0.15979  0.40177  Biso   1.000  H
  C65      1.0000 0.85426  0.24638  0.30210  Biso   1.000  C
  C66      1.0000 0.64169  0.06368  0.03062  Biso   1.000  C
  H62      1.0000 0.91537  0.27063  0.30088  Biso   1.000  H
  H63      1.0000 0.83949  0.24559  0.24871  Biso   1.000  H
  H64      1.0000 0.78447  0.28183  0.32760  Biso   1.000  H
  H65      1.0000 0.63301  0.12512  0.02760  Biso   1.000  H
  C67      1.0000 0.75998  0.00689  0.05379  Biso   1.000  C
  H66      1.0000 0.62794  0.05492  0.97910  Biso   1.000  H
  H67      1.0000 0.81689  0.02299  0.01508  Biso   1.000  H
  C68      1.0000 0.78617  0.01280  0.13449  Biso   1.000  C
  H68      1.0000 0.76869  0.94631  0.05211  Biso   1.000  H
  H69      1.0000 0.78282  0.07241  0.13559  Biso   1.000  H
  H70      1.0000 0.72722  0.99982  0.17320  Biso   1.000  H
  C69      1.0000 0.90822  0.94801  0.15760  Biso   1.000  C
  H71      1.0000 0.90973  0.88873  0.16063  Biso   1.000  H
  H72      1.0000 0.96628  0.95922  0.11819  Biso   1.000  H
  H73      1.0000 0.92415  0.95584  0.20831  Biso   1.000  H
  C70      1.0000 0.47996  0.44301  0.63197  Biso   1.000  C
  H74      1.0000 0.48854  0.38290  0.60933  Biso   1.000  H
  C71      1.0000 0.58291  0.47639  0.63401  Biso   1.000  C
  H75      1.0000 0.46798  0.43958  0.57841  Biso   1.000  H
  H76      1.0000 0.49381  0.38491  0.66440  Biso   1.000  H
  C72      1.0000 0.37262  0.51203  0.66749  Biso   1.000  C
  C73      1.0000 0.67482  0.43959  0.58598  Biso   1.000  C
  H77      1.0000 0.60857  0.48908  0.59931  Biso   1.000  H
  H78      1.0000 0.55654  0.53972  0.61783  Biso   1.000  H
  H79      1.0000 0.60681  0.46336  0.68792  Biso   1.000  H
  H80      1.0000 0.37682  0.56960  0.64839  Biso   1.000  H
  H81      1.0000 0.37283  0.50009  0.72448  Biso   1.000  H
  H82      1.0000 0.30221  0.50851  0.65159  Biso   1.000  H
  C74      1.0000 0.65433  0.36432  0.61812  Biso   1.000  C
  O11      1.0000 0.77007  0.44311  0.61160  Biso   1.000  O
  H83      1.0000 0.68307  0.44442  0.52858  Biso   1.000  H
  C75      1.0000 0.56290  0.34712  0.58738  Biso   1.000  C
  H84      1.0000 0.63681  0.36422  0.67471  Biso   1.000  H
  H85      1.0000 0.72603  0.31579  0.61171  Biso   1.000  H
  C76      1.0000 0.81133  0.50788  0.57678  Biso   1.000  C
  C77      1.0000 0.56599  0.26007  0.60292  Biso   1.000  C
  H86      1.0000 0.56478  0.36587  0.53032  Biso   1.000  H
  C78      1.0000 0.90981  0.50807  0.60112  Biso   1.000  C
  C79      1.0000 0.75353  0.57251  0.51629  Biso   1.000  C
  H87      1.0000 0.49299  0.25728  0.59209  Biso   1.000  H
  H88      1.0000 0.58121  0.23638  0.65782  Biso   1.000  H
  H89      1.0000 0.62758  0.22642  0.56968  Biso   1.000  H
  C80      1.0000 0.96810  0.43982  0.66580  Biso   1.000  C
  C81      1.0000 0.95366  0.57460  0.56782  Biso   1.000  C
  H90      1.0000 0.68722  0.56952  0.49749  Biso   1.000  H
  C82      1.0000 0.79236  0.63829  0.48532  Biso   1.000  C
  N3       1.0000 0.95255  0.48047  0.73590  Biso   1.000  N
  H91      1.0000 0.93441  0.39321  0.67639  Biso   1.000  H
  H92      1.0000 0.05061  0.41460  0.65113  Biso   1.000  H
  C83      1.0000 0.89233  0.64339  0.51169  Biso   1.000  C
  C84      1.0000 0.06058  0.57740  0.58901  Biso   1.000  C
  H93      1.0000 0.75235  0.68168  0.44538  Biso   1.000  H
  H94      1.0000 0.91854  0.53671  0.73071  Biso   1.000  H
  C85      1.0000 0.98560  0.43901  0.80558  Biso   1.000  C
  C86      1.0000 0.93516  0.71358  0.48159  Biso   1.000  C
  C87      1.0000 0.10333  0.63878  0.55571  Biso   1.000  C
  H95      1.0000 0.10164  0.53357  0.62819  Biso   1.000  H
  C88      1.0000 0.94520  0.49509  0.86701  Biso   1.000  C
  O12      1.0000 0.04466  0.36267  0.81711  Biso   1.000  O
  C89      1.0000 0.86875  0.79601  0.43152  Biso   1.000  C
  C90      1.0000 0.04026  0.70667  0.50273  Biso   1.000  C
  H96      1.0000 0.17642  0.63619  0.56811  Biso   1.000  H
  C91      1.0000 0.83929  0.50560  0.90310  Biso   1.000  C
  C92      1.0000 0.01286  0.54250  0.88302  Biso   1.000  C
  C93      1.0000 0.95551  0.82603  0.37470  Biso   1.000  C
  H97      1.0000 0.81183  0.78604  0.40259  Biso   1.000  H
  C94      1.0000 0.80823  0.86572  0.48270  Biso   1.000  C
  O13      1.0000 0.09379  0.76849  0.47292  Biso   1.000  O
  O14      1.0000 0.78090  0.45730  0.88360  Biso   1.000  O
  C95      1.0000 0.79527  0.56172  0.95771  Biso   1.000  C
  C96      1.0000 0.96603  0.60379  0.93442  Biso   1.000  C
  C97      1.0000 0.12356  0.53132  0.84750  Biso   1.000  C
  H98      1.0000 0.99780  0.78144  0.34221  Biso   1.000  H
  H99      1.0000 0.91596  0.87980  0.33989  Biso   1.000  H
  C98      1.0000 0.03767  0.84129  0.42232  Biso   1.000  C
  C99      1.0000 0.87452  0.91359  0.49760  Biso   1.000  C
  C100     1.0000 0.69531  0.88003  0.51711  Biso   1.000  C
  C101     1.0000 0.66637  0.47102  0.91457  Biso   1.000  C
  H100     1.0000 0.72314  0.56659  0.98461  Biso   1.000  H
  C102     1.0000 0.85767  0.60938  0.97163  Biso   1.000  C
  C103     1.0000 0.02950  0.65551  0.94770  Biso   1.000  C
  C104     1.0000 0.18593  0.57809  0.86392  Biso   1.000  C
  H101     1.0000 0.15499  0.49140  0.81240  Biso   1.000  H
  O15      1.0000 0.97893  0.90877  0.46482  Biso   1.000  O
  H102     1.0000 0.09629  0.85900  0.38559  Biso   1.000  H
  C105     1.0000 0.82451  0.97258  0.55041  Biso   1.000  C
  C106     1.0000 0.64910  0.93883  0.57201  Biso   1.000  C
  C107     1.0000 0.62101  0.84041  0.49848  Biso   1.000  C
  H103     1.0000 0.61982  0.53258  0.90188  Biso   1.000  H
  H104     1.0000 0.66474  0.45419  0.97192  Biso   1.000  H
  C108     1.0000 0.61947  0.41726  0.87941  Biso   1.000  C
  H105     1.0000 0.82671  0.64800  0.00796  Biso   1.000  H
  C109     1.0000 0.97796  0.73062  0.99299  Biso   1.000  C
  C110     1.0000 0.13662  0.64053  0.91178  Biso   1.000  C
  H106     1.0000 0.26243  0.56811  0.84267  Biso   1.000  H
  C111     1.0000 0.71709  0.98350  0.58668  Biso   1.000  C
  H107     1.0000 0.86685  0.00587  0.56129  Biso   1.000  H
  C112     1.0000 0.53643  0.95068  0.60700  Biso   1.000  C
  C113     1.0000 0.51379  0.85282  0.53457  Biso   1.000  C
  H108     1.0000 0.64602  0.80424  0.45988  Biso   1.000  H
  H109     1.0000 0.67107  0.35669  0.88849  Biso   1.000  H
  H110     1.0000 0.61771  0.43708  0.82241  Biso   1.000  H
  C114     1.0000 0.50013  0.42140  0.91242  Biso   1.000  C
  C115     1.0000 0.91382  0.80947  0.93780  Biso   1.000  C
  H111     1.0000 0.92631  0.71662  0.03800  Biso   1.000  H
  C116     1.0000 0.07525  0.75028  0.02071  Biso   1.000  C
  O16      1.0000 0.20943  0.68491  0.92208  Biso   1.000  O
  H112     1.0000 0.68888  0.02268  0.62272  Biso   1.000  H
  C117     1.0000 0.47280  0.90640  0.59017  Biso   1.000  C
  C118     1.0000 0.48751  0.01034  0.66731  Biso   1.000  C
  H113     1.0000 0.46703  0.82423  0.52130  Biso   1.000  H
  H114     1.0000 0.50157  0.40602  0.96982  Biso   1.000  H
  H115     1.0000 0.44847  0.48170  0.90031  Biso   1.000  H
  C119     1.0000 0.45098  0.36582  0.88441  Biso   1.000  C
  C120     1.0000 0.79256  0.84602  0.93291  Biso   1.000  C
  C121     1.0000 0.97893  0.84931  0.88500  Biso   1.000  C
  C122     1.0000 0.15288  0.76272  0.95090  Biso   1.000  C
  H116     1.0000 0.04472  0.80318  0.04458  Biso   1.000  H
  H117     1.0000 0.11711  0.70198  0.06000  Biso   1.000  H
  O17      1.0000 0.36629  0.91784  0.62988  Biso   1.000  O
  N4       1.0000 0.53601  0.96692  0.74352  Biso   1.000  N
  H118     1.0000 0.50615  0.06408  0.65002  Biso   1.000  H
  H119     1.0000 0.40324  0.02593  0.67273  Biso   1.000  H
  H120     1.0000 0.47431  0.36376  0.82922  Biso   1.000  H
  H121     1.0000 0.36732  0.38892  0.89088  Biso   1.000  H
  H122     1.0000 0.47842  0.30746  0.91440  Biso   1.000  H
  C123     1.0000 0.71441  0.82300  0.99212  Biso   1.000  C
  C124     1.0000 0.74490  0.91060  0.86852  Biso   1.000  C
  C125     1.0000 0.93396  0.91463  0.82381  Biso   1.000  C
  O18      1.0000 0.09601  0.82690  0.88901  Biso   1.000  O
  H123     1.0000 0.21256  0.78170  0.96738  Biso   1.000  H
  C126     1.0000 0.29774  0.86848  0.61550  Biso   1.000  C
  H124     1.0000 0.53909  0.91313  0.75930  Biso   1.000  H
  C127     1.0000 0.57499  0.00269  0.78952  Biso   1.000  C
  C128     1.0000 0.59834  0.86173  0.98781  Biso   1.000  C
  H125     1.0000 0.74345  0.77987  0.03549  Biso   1.000  H
  C129     1.0000 0.62468  0.94401  0.86200  Biso   1.000  C
  C130     1.0000 0.81976  0.94203  0.81368  Biso   1.000  C
  H126     1.0000 0.98250  0.94002  0.78922  Biso   1.000  H
  H127     1.0000 0.33852  0.80613  0.63081  Biso   1.000  H
  H128     1.0000 0.28428  0.87968  0.55937  Biso   1.000  H
  C131     1.0000 0.18564  0.89468  0.66201  Biso   1.000  C
  O19      1.0000 0.57936  0.07749  0.76797  Biso   1.000  O
  C132     1.0000 0.55246  0.92058  0.92138  Biso   1.000  C
  H129     1.0000 0.54858  0.84850  0.02996  Biso   1.000  H
  H130     1.0000 0.78994  0.98283  0.76920  Biso   1.000  H
  H131     1.0000 0.14432  0.95658  0.64461  Biso   1.000  H
  H132     1.0000 0.20025  0.88700  0.71761  Biso   1.000  H
  C133     1.0000 0.11027  0.84282  0.65398  Biso   1.000  C
  O20      1.0000 0.43756  0.96001  0.91079  Biso   1.000  O
  H133     1.0000 0.03087  0.87380  0.67191  Biso   1.000  H
  H134     1.0000 0.11014  0.84017  0.59821  Biso   1.000  H
  C134     1.0000 0.14562  0.75358  0.69788  Biso   1.000  C
  C135     1.0000 0.35817  0.93627  0.96941  Biso   1.000  C
  H135     1.0000 0.08447  0.72940  0.69910  Biso   1.000  H
  H136     1.0000 0.16038  0.75437  0.75132  Biso   1.000  H
  H137     1.0000 0.21538  0.71820  0.67238  Biso   1.000  H
  H138     1.0000 0.36691  0.87491  0.97238  Biso   1.000  H
  C136     1.0000 0.23990  0.99308  0.94618  Biso   1.000  C
  H139     1.0000 0.37190  0.94511  0.02088  Biso   1.000  H
  H140     1.0000 0.18298  0.97698  0.98490  Biso   1.000  H
  C137     1.0000 0.21368  0.98722  0.86549  Biso   1.000  C
  H141     1.0000 0.23119  0.05365  0.94787  Biso   1.000  H
  H142     1.0000 0.21711  0.92762  0.86439  Biso   1.000  H
  H143     1.0000 0.27273  0.00014  0.82678  Biso   1.000  H
  C138     1.0000 0.09166  0.05195  0.84238  Biso   1.000  C
  H144     1.0000 0.09019  0.11128  0.83941  Biso   1.000  H
  H145     1.0000 0.03359  0.04075  0.88179  Biso   1.000  H
  H146     1.0000 0.07569  0.04418  0.79167  Biso   1.000  H
  Ne1      1.0000 0.26356  0.28553  0.27016  Biso   1.000  Ne
  He1      1.0000 0.54098  0.33116  0.50190  Biso   1.000  He
  He2      1.0000 0.91679  0.18815  0.34130  Biso   1.000  He
  He3      1.0000 0.22874  0.58455  0.24343  Biso   1.000  He
  He4      1.0000 0.41226  0.32484  0.27004  Biso   1.000  He
  Ar1      1.0000 0.27621  0.27322  0.27029  Biso   1.000  Ar
  Ne2      1.0000 0.73632  0.71447  0.72984  Biso   1.000  Ne
  He5      1.0000 0.60090  0.67288  0.72815  Biso   1.000  He
  He6      1.0000 0.76911  0.41911  0.75593  Biso   1.000  He
  He7      1.0000 0.05115  0.74497  0.71668  Biso   1.000  He
  He8      1.0000 0.40184  0.64297  0.79161  Biso   1.000  He
  Ar2      1.0000 0.72365  0.72680  0.72971  Biso   1.000  Ar
