data_image0
_cell_length_a       28.697
_cell_length_b       12.164
_cell_length_c       19.606
_cell_angle_alpha    90
_cell_angle_beta     113.2
_cell_angle_gamma    90

_symmetry_space_group_name_H-M    "P 1"
_symmetry_int_tables_number       1

loop_
  _symmetry_equiv_pos_as_xyz
  'x, y, z'

loop_
  _atom_site_label
  _atom_site_occupancy
  _atom_site_fract_x
  _atom_site_fract_y
  _atom_site_fract_z
  _atom_site_thermal_displace_type
  _atom_site_B_iso_or_equiv
  _atom_site_type_symbol
  C1       1.0000 0.55749  0.60169  0.52118  Biso   1.000  C
  C2       1.0000 0.52234  0.67280  0.47279  Biso   1.000  C
  C3       1.0000 0.59245  0.64313  0.58633  Biso   1.000  C
  H1       1.0000 0.55747  0.52590  0.50958  Biso   1.000  H
  H2       1.0000 0.49748  0.64551  0.42779  Biso   1.000  H
  C4       1.0000 0.52320  0.78346  0.48944  Biso   1.000  C
  O1       1.0000 0.62574  0.56774  0.63711  Biso   1.000  O
  C5       1.0000 0.59388  0.75238  0.60547  Biso   1.000  C
  H3       1.0000 0.49927  0.83270  0.45609  Biso   1.000  H
  C6       1.0000 0.55925  0.82103  0.55514  Biso   1.000  C
  C7       1.0000 0.67541  0.57465  0.65142  Biso   1.000  C
  H4       1.0000 0.61776  0.77910  0.65148  Biso   1.000  H
  O2       1.0000 0.55824  0.93341  0.57224  Biso   1.000  O
  N1       1.0000 0.70240  0.49277  0.69421  Biso   1.000  N
  N2       1.0000 0.69236  0.65710  0.62390  Biso   1.000  N
  C8       1.0000 0.59796  0.99679  0.57817  Biso   1.000  C
  C9       1.0000 0.75055  0.49819  0.70403  Biso   1.000  C
  C10      1.0000 0.74209  0.65250  0.64177  Biso   1.000  C
  N3       1.0000 0.63768  0.95289  0.57079  Biso   1.000  N
  N4       1.0000 0.59133  0.10202  0.59110  Biso   1.000  N
  Cl1      1.0000 0.78732  0.39091  0.75364  Biso   1.000  Cl
  N5       1.0000 0.77383  0.57407  0.68072  Biso   1.000  N
  O3       1.0000 0.75953  0.73800  0.61657  Biso   1.000  O
  C11      1.0000 0.67331  0.02598  0.57706  Biso   1.000  C
  C12      1.0000 0.62955  0.16310  0.59471  Biso   1.000  C
  C13      1.0000 0.81081  0.74186  0.62623  Biso   1.000  C
  O4       1.0000 0.71419  0.98241  0.57007  Biso   1.000  O
  N6       1.0000 0.67286  0.13310  0.59027  Biso   1.000  N
  Cl2      1.0000 0.62344  0.30212  0.60670  Biso   1.000  Cl
  C14      1.0000 0.82284  0.70898  0.56841  Biso   1.000  C
  C15      1.0000 0.84557  0.78963  0.68988  Biso   1.000  C
  C16      1.0000 0.75081  0.05261  0.56230  Biso   1.000  C
  C17      1.0000 0.87205  0.72336  0.57384  Biso   1.000  C
  H5       1.0000 0.79789  0.67683  0.52540  Biso   1.000  H
  C18      1.0000 0.89431  0.80171  0.69332  Biso   1.000  C
  H6       1.0000 0.83646  0.81281  0.72917  Biso   1.000  H
  C19      1.0000 0.74596  0.07958  0.49144  Biso   1.000  C
  C20      1.0000 0.79173  0.08492  0.62462  Biso   1.000  C
  C21      1.0000 0.90807  0.76940  0.63711  Biso   1.000  C
  H7       1.0000 0.88108  0.70166  0.53411  Biso   1.000  H
  O5       1.0000 0.93235  0.84808  0.75725  Biso   1.000  O
  H8       1.0000 0.71728  0.05590  0.44949  Biso   1.000  H
  C22      1.0000 0.78330  0.14140  0.48273  Biso   1.000  C
  C23      1.0000 0.82832  0.14707  0.61335  Biso   1.000  C
  H9       1.0000 0.79468  0.06544  0.67301  Biso   1.000  H
  H10      1.0000 0.94197  0.77853  0.64149  Biso   1.000  H
  C24      1.0000 0.93526  0.95766  0.76030  Biso   1.000  C
  H11      1.0000 0.78058  0.16023  0.43428  Biso   1.000  H
  C25      1.0000 0.82481  0.17642  0.54388  Biso   1.000  C
  O6       1.0000 0.86967  0.19106  0.67440  Biso   1.000  O
  N7       1.0000 0.97576  0.99655  0.81662  Biso   1.000  N
  N8       1.0000 0.89849  0.01537  0.70952  Biso   1.000  N
  H12      1.0000 0.85049  0.21999  0.53789  Biso   1.000  H
  C26      1.0000 0.90508  0.12241  0.71962  Biso   1.000  C
  C27      1.0000 0.97688  0.10490  0.81718  Biso   1.000  C
  N9       1.0000 0.94402  0.17470  0.77184  Biso   1.000  N
  Cl3      1.0000 0.02883  0.16352  0.88643  Biso   1.000  Cl
  C28      1.0000 0.44245  0.39831  0.47879  Biso   1.000  C
  C29      1.0000 0.40749  0.35687  0.41364  Biso   1.000  C
  H13      1.0000 0.44247  0.47410  0.49038  Biso   1.000  H
  C30      1.0000 0.47760  0.32720  0.52718  Biso   1.000  C
  O7       1.0000 0.37422  0.43226  0.36292  Biso   1.000  O
  C31      1.0000 0.40610  0.24762  0.39449  Biso   1.000  C
  H14      1.0000 0.50247  0.35449  0.57218  Biso   1.000  H
  C32      1.0000 0.47674  0.21654  0.51053  Biso   1.000  C
  C33      1.0000 0.32453  0.42535  0.34855  Biso   1.000  C
  C34      1.0000 0.44075  0.17897  0.44488  Biso   1.000  C
  H15      1.0000 0.38219  0.22090  0.34849  Biso   1.000  H
  H16      1.0000 0.50067  0.16730  0.54388  Biso   1.000  H
  N10      1.0000 0.30761  0.34290  0.37607  Biso   1.000  N
  N11      1.0000 0.29756  0.50723  0.30582  Biso   1.000  N
  O8       1.0000 0.44174  0.06659  0.42773  Biso   1.000  O
  C35      1.0000 0.25787  0.34750  0.35826  Biso   1.000  C
  C36      1.0000 0.24942  0.50181  0.29594  Biso   1.000  C
  C37      1.0000 0.40202  0.00321  0.42180  Biso   1.000  C
  O9       1.0000 0.24042  0.26200  0.38340  Biso   1.000  O
  N12      1.0000 0.22613  0.42593  0.31930  Biso   1.000  N
  Cl4      1.0000 0.21262  0.60909  0.24633  Biso   1.000  Cl
  N13      1.0000 0.36228  0.04711  0.42923  Biso   1.000  N
  N14      1.0000 0.40861  0.89798  0.40887  Biso   1.000  N
  C38      1.0000 0.18914  0.25814  0.37374  Biso   1.000  C
  C39      1.0000 0.32663  0.97402  0.42291  Biso   1.000  C
  C40      1.0000 0.37044  0.83690  0.40531  Biso   1.000  C
  C41      1.0000 0.17713  0.29102  0.43156  Biso   1.000  C
  C42      1.0000 0.15437  0.21037  0.31009  Biso   1.000  C
  O10      1.0000 0.28579  0.01759  0.42990  Biso   1.000  O
  N15      1.0000 0.32712  0.86690  0.40970  Biso   1.000  N
  Cl5      1.0000 0.37650  0.69788  0.39327  Biso   1.000  Cl
  C43      1.0000 0.12790  0.27664  0.42612  Biso   1.000  C
  H17      1.0000 0.20209  0.32317  0.47457  Biso   1.000  H
  C44      1.0000 0.10564  0.19829  0.30665  Biso   1.000  C
  H18      1.0000 0.16349  0.18719  0.27080  Biso   1.000  H
  C45      1.0000 0.24917  0.94739  0.43767  Biso   1.000  C
  C46      1.0000 0.09189  0.23060  0.36292  Biso   1.000  C
  H19      1.0000 0.11888  0.29834  0.46591  Biso   1.000  H
  O11      1.0000 0.06759  0.15192  0.24272  Biso   1.000  O
  C47      1.0000 0.20823  0.91508  0.37540  Biso   1.000  C
  C48      1.0000 0.25400  0.92042  0.50859  Biso   1.000  C
  H20      1.0000 0.05798  0.22147  0.35848  Biso   1.000  H
  C49      1.0000 0.06468  0.04234  0.23967  Biso   1.000  C
  C50      1.0000 0.17166  0.85293  0.38661  Biso   1.000  C
  H21      1.0000 0.20531  0.93456  0.32702  Biso   1.000  H
  C51      1.0000 0.21669  0.85860  0.51730  Biso   1.000  C
  H22      1.0000 0.28267  0.94410  0.55048  Biso   1.000  H
  N16      1.0000 0.02422  0.00345  0.18335  Biso   1.000  N
  N17      1.0000 0.10145  0.98463  0.29045  Biso   1.000  N
  O12      1.0000 0.13029  0.80894  0.32563  Biso   1.000  O
  C52      1.0000 0.17513  0.82358  0.45609  Biso   1.000  C
  H23      1.0000 0.21937  0.83977  0.56569  Biso   1.000  H
  C53      1.0000 0.02306  0.89510  0.18279  Biso   1.000  C
  C54      1.0000 0.09490  0.87759  0.28035  Biso   1.000  C
  H24      1.0000 0.14949  0.78001  0.46208  Biso   1.000  H
  Cl6      1.0000 0.97111  0.83648  0.11354  Biso   1.000  Cl
  N18      1.0000 0.05596  0.82530  0.22813  Biso   1.000  N
  N19      1.0000 0.47578  0.50345  0.31664  Biso   1.000  N
  C55      1.0000 0.47691  0.39510  0.31719  Biso   1.000  C
  C56      1.0000 0.43529  0.54234  0.26031  Biso   1.000  C
  N20      1.0000 0.44401  0.32530  0.27186  Biso   1.000  N
  Cl7      1.0000 0.52886  0.33648  0.38645  Biso   1.000  Cl
  N21      1.0000 0.39852  0.48463  0.20954  Biso   1.000  N
  O13      1.0000 0.43238  0.65192  0.25726  Biso   1.000  O
  C57      1.0000 0.40507  0.37759  0.21964  Biso   1.000  C
  C58      1.0000 0.39434  0.69829  0.19333  Biso   1.000  C
  O14      1.0000 0.36969  0.30894  0.17441  Biso   1.000  O
  C59      1.0000 0.40809  0.73060  0.13712  Biso   1.000  C
  C60      1.0000 0.34560  0.71037  0.18989  Biso   1.000  C
  C61      1.0000 0.32831  0.35293  0.11337  Biso   1.000  C
  H25      1.0000 0.44200  0.72147  0.14150  Biso   1.000  H
  C62      1.0000 0.37208  0.77664  0.07386  Biso   1.000  C
  C63      1.0000 0.31084  0.75814  0.12624  Biso   1.000  C
  H26      1.0000 0.33649  0.68719  0.22918  Biso   1.000  H
  C64      1.0000 0.29175  0.41508  0.12458  Biso   1.000  C
  C65      1.0000 0.32484  0.32358  0.04389  Biso   1.000  C
  C66      1.0000 0.32287  0.79102  0.06842  Biso   1.000  C
  H27      1.0000 0.38109  0.79834  0.03407  Biso   1.000  H
  O15      1.0000 0.25956  0.76200  0.11659  Biso   1.000  O
  C67      1.0000 0.25084  0.44739  0.06232  Biso   1.000  C
  H28      1.0000 0.29470  0.43456  0.17297  Biso   1.000  H
  C68      1.0000 0.28328  0.35860  0.98269  Biso   1.000  C
  H29      1.0000 0.35052  0.28001  0.03790  Biso   1.000  H
  H30      1.0000 0.29792  0.82317  0.02542  Biso   1.000  H
  C69      1.0000 0.24212  0.84750  0.14178  Biso   1.000  C
  O16      1.0000 0.21418  0.51759  0.07009  Biso   1.000  O
  C70      1.0000 0.24597  0.42042  0.99140  Biso   1.000  C
  H31      1.0000 0.28056  0.33977  0.93424  Biso   1.000  H
  N22      1.0000 0.19236  0.84290  0.12391  Biso   1.000  N
  N23      1.0000 0.27384  0.92593  0.18068  Biso   1.000  N
  C71      1.0000 0.17334  0.47402  0.07708  Biso   1.000  C
  H32      1.0000 0.21725  0.44410  0.94945  Biso   1.000  H
  C72      1.0000 0.17544  0.92535  0.15144  Biso   1.000  C
  C73      1.0000 0.25055  0.00181  0.20404  Biso   1.000  C
  N24      1.0000 0.17285  0.36690  0.09029  Biso   1.000  N
  N25      1.0000 0.13770  0.54711  0.07075  Biso   1.000  N
  O17      1.0000 0.12576  0.93226  0.13712  Biso   1.000  O
  N26      1.0000 0.20243  0.00723  0.19422  Biso   1.000  N
  Cl8      1.0000 0.28735  0.10909  0.25365  Biso   1.000  Cl
  C74      1.0000 0.12955  0.33690  0.09473  Biso   1.000  C
  C75      1.0000 0.09799  0.50321  0.07819  Biso   1.000  C
  C76      1.0000 0.09248  0.85687  0.08635  Biso   1.000  C
  Cl9      1.0000 0.12347  0.19788  0.10671  Biso   1.000  Cl
  N27      1.0000 0.09136  0.39798  0.09112  Biso   1.000  N
  O18      1.0000 0.05827  0.56659  0.07225  Biso   1.000  O
  C77      1.0000 0.09390  0.74762  0.10549  Biso   1.000  C
  C78      1.0000 0.05752  0.89831  0.02120  Biso   1.000  C
  C79      1.0000 0.05923  0.67897  0.05510  Biso   1.000  C
  H33      1.0000 0.11779  0.72090  0.15149  Biso   1.000  H
  C80      1.0000 0.02237  0.82720  0.97281  Biso   1.000  C
  H34      1.0000 0.05750  0.97410  0.00960  Biso   1.000  H
  C81      1.0000 0.02318  0.71654  0.98940  Biso   1.000  C
  H35      1.0000 0.99745  0.85449  0.92775  Biso   1.000  H
  H36      1.0000 0.99925  0.66730  0.95605  Biso   1.000  H
  N28      1.0000 0.52419  0.49655  0.68333  Biso   1.000  N
  C82      1.0000 0.52303  0.60490  0.68278  Biso   1.000  C
  C83      1.0000 0.56465  0.45766  0.73965  Biso   1.000  C
  Cl10     1.0000 0.47108  0.66352  0.61352  Biso   1.000  Cl
  N29      1.0000 0.55594  0.67470  0.72811  Biso   1.000  N
  O19      1.0000 0.56760  0.34808  0.74271  Biso   1.000  O
  N30      1.0000 0.60142  0.51537  0.79043  Biso   1.000  N
  C84      1.0000 0.59487  0.62241  0.78033  Biso   1.000  C
  C85      1.0000 0.60564  0.30171  0.80663  Biso   1.000  C
  O20      1.0000 0.63027  0.69106  0.82561  Biso   1.000  O
  C86      1.0000 0.59186  0.26940  0.86290  Biso   1.000  C
  C87      1.0000 0.65434  0.28963  0.81007  Biso   1.000  C
  C88      1.0000 0.67163  0.64707  0.88660  Biso   1.000  C
  H37      1.0000 0.55795  0.27853  0.85846  Biso   1.000  H
  C89      1.0000 0.62788  0.22336  0.92616  Biso   1.000  C
  C90      1.0000 0.68911  0.24186  0.87372  Biso   1.000  C
  H38      1.0000 0.66346  0.31281  0.77079  Biso   1.000  H
  C91      1.0000 0.67514  0.67642  0.95607  Biso   1.000  C
  C92      1.0000 0.70823  0.58492  0.87539  Biso   1.000  C
  H39      1.0000 0.61885  0.20166  0.96590  Biso   1.000  H
  C93      1.0000 0.67711  0.20898  0.93155  Biso   1.000  C
  O21      1.0000 0.74044  0.23800  0.88343  Biso   1.000  O
  H40      1.0000 0.64946  0.71999  0.96207  Biso   1.000  H
  C94      1.0000 0.71671  0.64140  0.01734  Biso   1.000  C
  C95      1.0000 0.74914  0.55261  0.93765  Biso   1.000  C
  H41      1.0000 0.70528  0.56544  0.82700  Biso   1.000  H
  H42      1.0000 0.70206  0.17683  0.97455  Biso   1.000  H
  C96      1.0000 0.75784  0.15250  0.85824  Biso   1.000  C
  C97      1.0000 0.75401  0.57958  0.00857  Biso   1.000  C
  H43      1.0000 0.71939  0.66023  0.06573  Biso   1.000  H
  O22      1.0000 0.78576  0.48241  0.92988  Biso   1.000  O
  N31      1.0000 0.72610  0.07407  0.81929  Biso   1.000  N
  N32      1.0000 0.80759  0.15710  0.87605  Biso   1.000  N
  H44      1.0000 0.78269  0.55590  0.05052  Biso   1.000  H
  C98      1.0000 0.82660  0.52598  0.92289  Biso   1.000  C
  C99      1.0000 0.74940  0.99819  0.79592  Biso   1.000  C
  C100     1.0000 0.82452  0.07465  0.84859  Biso   1.000  C
  N33      1.0000 0.82709  0.63310  0.90968  Biso   1.000  N
  N34      1.0000 0.86225  0.45289  0.92922  Biso   1.000  N
  Cl11     1.0000 0.71259  0.89091  0.74631  Biso   1.000  Cl
  N35      1.0000 0.79753  0.99277  0.80580  Biso   1.000  N
  O23      1.0000 0.87419  0.06774  0.86290  Biso   1.000  O
  C101     1.0000 0.87041  0.66310  0.90530  Biso   1.000  C
  C102     1.0000 0.90201  0.49679  0.92184  Biso   1.000  C
  C103     1.0000 0.90750  0.14313  0.91362  Biso   1.000  C
  Cl12     1.0000 0.87647  0.80212  0.89326  Biso   1.000  Cl
  N36      1.0000 0.90862  0.60202  0.90885  Biso   1.000  N
  O24      1.0000 0.94173  0.43341  0.92777  Biso   1.000  O
  C104     1.0000 0.94246  0.10169  0.97877  Biso   1.000  C
  C105     1.0000 0.90607  0.25238  0.89448  Biso   1.000  C
  C106     1.0000 0.94072  0.32103  0.94486  Biso   1.000  C
  H45      1.0000 0.94248  0.02590  0.99037  Biso   1.000  H
  C107     1.0000 0.97762  0.17280  0.02722  Biso   1.000  C
  H46      1.0000 0.88216  0.27910  0.84847  Biso   1.000  H
  C108     1.0000 0.97677  0.28346  0.01057  Biso   1.000  C
  H47      1.0000 0.00249  0.14551  0.07222  Biso   1.000  H
  H48      1.0000 0.00069  0.33270  0.04392  Biso   1.000  H
  C109     1.0000 0.59191  0.73060  0.36292  Biso   1.000  C
  C110     1.0000 0.60565  0.69829  0.30665  Biso   1.000  C
  H49      1.0000 0.55799  0.72147  0.35848  Biso   1.000  H
  C111     1.0000 0.62791  0.77664  0.42612  Biso   1.000  C
  O25      1.0000 0.56761  0.65192  0.24272  Biso   1.000  O
  C112     1.0000 0.65439  0.71037  0.31009  Biso   1.000  C
  H50      1.0000 0.61890  0.79834  0.46591  Biso   1.000  H
  C113     1.0000 0.67712  0.79102  0.43156  Biso   1.000  C
  C114     1.0000 0.56470  0.54234  0.23967  Biso   1.000  C
  C115     1.0000 0.68915  0.75814  0.37374  Biso   1.000  C
  H51      1.0000 0.66350  0.68719  0.27080  Biso   1.000  H
  H52      1.0000 0.70207  0.82317  0.47457  Biso   1.000  H
  N37      1.0000 0.52420  0.50345  0.18335  Biso   1.000  N
  N38      1.0000 0.60147  0.48463  0.29045  Biso   1.000  N
  O26      1.0000 0.74043  0.76200  0.38340  Biso   1.000  O
  C116     1.0000 0.52308  0.39510  0.18279  Biso   1.000  C
  C117     1.0000 0.59488  0.37759  0.28035  Biso   1.000  C
  C118     1.0000 0.75789  0.84750  0.35826  Biso   1.000  C
  Cl13     1.0000 0.47109  0.33648  0.11354  Biso   1.000  Cl
  N39      1.0000 0.55595  0.32530  0.22813  Biso   1.000  N
  O27      1.0000 0.63031  0.30894  0.32563  Biso   1.000  O
  N40      1.0000 0.72614  0.92593  0.31930  Biso   1.000  N
  N41      1.0000 0.80760  0.84290  0.37607  Biso   1.000  N
  C119     1.0000 0.67164  0.35293  0.38661  Biso   1.000  C
  C120     1.0000 0.74941  0.00181  0.29594  Biso   1.000  C
  C121     1.0000 0.82455  0.92535  0.34855  Biso   1.000  C
  C122     1.0000 0.67515  0.32358  0.45609  Biso   1.000  C
  C123     1.0000 0.70824  0.41508  0.37540  Biso   1.000  C
  Cl14     1.0000 0.71264  0.10909  0.24633  Biso   1.000  Cl
  N42      1.0000 0.79758  0.00723  0.30582  Biso   1.000  N
  O28      1.0000 0.87424  0.93226  0.36292  Biso   1.000  O
  C124     1.0000 0.71667  0.35860  0.51730  Biso   1.000  C
  H53      1.0000 0.64947  0.28001  0.46208  Biso   1.000  H
  C125     1.0000 0.74915  0.44739  0.43767  Biso   1.000  C
  H54      1.0000 0.70529  0.43456  0.32702  Biso   1.000  H
  C126     1.0000 0.90751  0.85687  0.41364  Biso   1.000  C
  C127     1.0000 0.75402  0.42042  0.50859  Biso   1.000  C
  H55      1.0000 0.71938  0.33977  0.56569  Biso   1.000  H
  O29      1.0000 0.78577  0.51759  0.42990  Biso   1.000  O
  C128     1.0000 0.90609  0.74762  0.39449  Biso   1.000  C
  C129     1.0000 0.94247  0.89831  0.47879  Biso   1.000  C
  H56      1.0000 0.78269  0.44410  0.55048  Biso   1.000  H
  C130     1.0000 0.82665  0.47402  0.42291  Biso   1.000  C
  C131     1.0000 0.94073  0.67897  0.44488  Biso   1.000  C
  H57      1.0000 0.88217  0.72090  0.34849  Biso   1.000  H
  C132     1.0000 0.97762  0.82720  0.52718  Biso   1.000  C
  H58      1.0000 0.94249  0.97410  0.49038  Biso   1.000  H
  N43      1.0000 0.82710  0.36690  0.40970  Biso   1.000  N
  N44      1.0000 0.86229  0.54711  0.42923  Biso   1.000  N
  O30      1.0000 0.94172  0.56659  0.42773  Biso   1.000  O
  C133     1.0000 0.97676  0.71654  0.51053  Biso   1.000  C
  H59      1.0000 0.00248  0.85449  0.57218  Biso   1.000  H
  C134     1.0000 0.87042  0.33690  0.40531  Biso   1.000  C
  C135     1.0000 0.90200  0.50321  0.42180  Biso   1.000  C
  H60      1.0000 0.00069  0.66730  0.54388  Biso   1.000  H
  Cl15     1.0000 0.87652  0.19788  0.39327  Biso   1.000  Cl
  N45      1.0000 0.90863  0.39798  0.40887  Biso   1.000  N
  C136     1.0000 0.40808  0.26940  0.63711  Biso   1.000  C
  C137     1.0000 0.37207  0.22336  0.57384  Biso   1.000  C
  C138     1.0000 0.39432  0.30171  0.69332  Biso   1.000  C
  H61      1.0000 0.44198  0.27853  0.64149  Biso   1.000  H
  C139     1.0000 0.32283  0.20898  0.56841  Biso   1.000  C
  H62      1.0000 0.38109  0.20166  0.53411  Biso   1.000  H
  C140     1.0000 0.34559  0.28963  0.68988  Biso   1.000  C
  O31      1.0000 0.43237  0.34808  0.75725  Biso   1.000  O
  H63      1.0000 0.29787  0.17683  0.52540  Biso   1.000  H
  C141     1.0000 0.31083  0.24186  0.62623  Biso   1.000  C
  H64      1.0000 0.33647  0.31281  0.72917  Biso   1.000  H
  C142     1.0000 0.43528  0.45766  0.76030  Biso   1.000  C
  O32      1.0000 0.25955  0.23800  0.61657  Biso   1.000  O
  N46      1.0000 0.47574  0.49655  0.81662  Biso   1.000  N
  N47      1.0000 0.39851  0.51537  0.70952  Biso   1.000  N
  C143     1.0000 0.24211  0.15250  0.64177  Biso   1.000  C
  C144     1.0000 0.47690  0.60490  0.81718  Biso   1.000  C
  C145     1.0000 0.40506  0.62241  0.71962  Biso   1.000  C
  N48      1.0000 0.27385  0.07407  0.68072  Biso   1.000  N
  N49      1.0000 0.19235  0.15710  0.62390  Biso   1.000  N
  Cl16     1.0000 0.52885  0.66352  0.88643  Biso   1.000  Cl
  N50      1.0000 0.44400  0.67470  0.77184  Biso   1.000  N
  O33      1.0000 0.36968  0.69106  0.67440  Biso   1.000  O
  C146     1.0000 0.25054  0.99819  0.70403  Biso   1.000  C
  C147     1.0000 0.17543  0.07465  0.65142  Biso   1.000  C
  C148     1.0000 0.32830  0.64707  0.61335  Biso   1.000  C
  Cl17     1.0000 0.28734  0.89091  0.75364  Biso   1.000  Cl
  N51      1.0000 0.20242  0.99277  0.69421  Biso   1.000  N
  O34      1.0000 0.12575  0.06774  0.63711  Biso   1.000  O
  C149     1.0000 0.32483  0.67642  0.54388  Biso   1.000  C
  C150     1.0000 0.29175  0.58492  0.62462  Biso   1.000  C
  C151     1.0000 0.09247  0.14313  0.58633  Biso   1.000  C
  C152     1.0000 0.28328  0.64140  0.48273  Biso   1.000  C
  H65      1.0000 0.35047  0.71999  0.53789  Biso   1.000  H
  C153     1.0000 0.25079  0.55261  0.56230  Biso   1.000  C
  H66      1.0000 0.29467  0.56544  0.67301  Biso   1.000  H
  C154     1.0000 0.05751  0.10169  0.52118  Biso   1.000  C
  C155     1.0000 0.09386  0.25238  0.60547  Biso   1.000  C
  C156     1.0000 0.24597  0.57958  0.49144  Biso   1.000  C
  H67      1.0000 0.28059  0.66023  0.43428  Biso   1.000  H
  O35      1.0000 0.21417  0.48241  0.57007  Biso   1.000  O
  H68      1.0000 0.05749  0.02590  0.50958  Biso   1.000  H
  C157     1.0000 0.02236  0.17280  0.47279  Biso   1.000  C
  C158     1.0000 0.05923  0.32103  0.55514  Biso   1.000  C
  H69      1.0000 0.11777  0.27910  0.65148  Biso   1.000  H
  H70      1.0000 0.21729  0.55590  0.44949  Biso   1.000  H
  C159     1.0000 0.17333  0.52598  0.57706  Biso   1.000  C
  C160     1.0000 0.02322  0.28346  0.48944  Biso   1.000  C
  H71      1.0000 0.99749  0.14551  0.42779  Biso   1.000  H
  O36      1.0000 0.05822  0.43341  0.57224  Biso   1.000  O
  N52      1.0000 0.13770  0.45289  0.57079  Biso   1.000  N
  N53      1.0000 0.17284  0.63310  0.59027  Biso   1.000  N
  H72      1.0000 0.99929  0.33270  0.45609  Biso   1.000  H
  C161     1.0000 0.09794  0.49679  0.57817  Biso   1.000  C
  C162     1.0000 0.12954  0.66310  0.59471  Biso   1.000  C
  N54      1.0000 0.09135  0.60202  0.59110  Biso   1.000  N
  Cl18     1.0000 0.12346  0.80212  0.60670  Biso   1.000  Cl
  O37      1.0000 0.62578  0.43226  0.13712  Biso   1.000  O
  C163     1.0000 0.59246  0.35687  0.08635  Biso   1.000  C
  C164     1.0000 0.67542  0.42535  0.15144  Biso   1.000  C
  C165     1.0000 0.59389  0.24762  0.10549  Biso   1.000  C
  C166     1.0000 0.55751  0.39831  0.02120  Biso   1.000  C
  N55      1.0000 0.70245  0.50723  0.19422  Biso   1.000  N
  N56      1.0000 0.69237  0.34290  0.12391  Biso   1.000  N
  C167     1.0000 0.55924  0.17897  0.05510  Biso   1.000  C
  H73      1.0000 0.61780  0.22090  0.15149  Biso   1.000  H
  C168     1.0000 0.52235  0.32720  0.97281  Biso   1.000  C
  H74      1.0000 0.55749  0.47410  0.00960  Biso   1.000  H
  C169     1.0000 0.75057  0.50181  0.20404  Biso   1.000  C
  C170     1.0000 0.74214  0.34750  0.14178  Biso   1.000  C
  O38      1.0000 0.55825  0.06659  0.07225  Biso   1.000  O
  C171     1.0000 0.52320  0.21654  0.98940  Biso   1.000  C
  H75      1.0000 0.49747  0.35449  0.92775  Biso   1.000  H
  Cl19     1.0000 0.78733  0.60909  0.25365  Biso   1.000  Cl
  N57      1.0000 0.77386  0.42593  0.18068  Biso   1.000  N
  O39      1.0000 0.75954  0.26200  0.11659  Biso   1.000  O
  C172     1.0000 0.59797  0.00321  0.07819  Biso   1.000  C
  H76      1.0000 0.49927  0.16730  0.95605  Biso   1.000  H
  C173     1.0000 0.81085  0.25814  0.12624  Biso   1.000  C
  N58      1.0000 0.63771  0.04711  0.07075  Biso   1.000  N
  N59      1.0000 0.59134  0.89798  0.09112  Biso   1.000  N
  C174     1.0000 0.82285  0.29102  0.06842  Biso   1.000  C
  C175     1.0000 0.84562  0.21037  0.18989  Biso   1.000  C
  C176     1.0000 0.67336  0.97402  0.07708  Biso   1.000  C
  C177     1.0000 0.62956  0.83690  0.09473  Biso   1.000  C
  C178     1.0000 0.87209  0.27664  0.07386  Biso   1.000  C
  H77      1.0000 0.79790  0.32317  0.02542  Biso   1.000  H
  C179     1.0000 0.89432  0.19829  0.19333  Biso   1.000  C
  H78      1.0000 0.83650  0.18719  0.22918  Biso   1.000  H
  O40      1.0000 0.71420  0.01759  0.07009  Biso   1.000  O
  N60      1.0000 0.67287  0.86690  0.09029  Biso   1.000  N
  Cl20     1.0000 0.62349  0.69788  0.10671  Biso   1.000  Cl
  C180     1.0000 0.90811  0.23060  0.13712  Biso   1.000  C
  H79      1.0000 0.88111  0.29834  0.03407  Biso   1.000  H
  O41      1.0000 0.93236  0.15192  0.25726  Biso   1.000  O
  C181     1.0000 0.75082  0.94739  0.06232  Biso   1.000  C
  H80      1.0000 0.94201  0.22147  0.14150  Biso   1.000  H
  C182     1.0000 0.93531  0.04234  0.26031  Biso   1.000  C
  C183     1.0000 0.74595  0.92042  0.99140  Biso   1.000  C
  C184     1.0000 0.79173  0.91508  0.12458  Biso   1.000  C
  N61      1.0000 0.89854  0.98463  0.20954  Biso   1.000  N
  N62      1.0000 0.97577  0.00345  0.31664  Biso   1.000  N
  H81      1.0000 0.71727  0.94410  0.94945  Biso   1.000  H
  C185     1.0000 0.78326  0.85860  0.98269  Biso   1.000  C
  C186     1.0000 0.82833  0.85293  0.11337  Biso   1.000  C
  H82      1.0000 0.79468  0.93456  0.17297  Biso   1.000  H
  C187     1.0000 0.90509  0.87759  0.21964  Biso   1.000  C
  C188     1.0000 0.97689  0.89510  0.31719  Biso   1.000  C
  H83      1.0000 0.78057  0.83977  0.93424  Biso   1.000  H
  C189     1.0000 0.82483  0.82358  0.04389  Biso   1.000  C
  O42      1.0000 0.86971  0.80894  0.17441  Biso   1.000  O
  N63      1.0000 0.94403  0.82530  0.27186  Biso   1.000  N
  Cl21     1.0000 0.02888  0.83648  0.38645  Biso   1.000  Cl
  H84      1.0000 0.85050  0.78001  0.03790  Biso   1.000  H
  O43      1.0000 0.37421  0.56774  0.86290  Biso   1.000  O
  C190     1.0000 0.32453  0.57465  0.84859  Biso   1.000  C
  C191     1.0000 0.40748  0.64313  0.91362  Biso   1.000  C
  N64      1.0000 0.29755  0.49277  0.80580  Biso   1.000  N
  N65      1.0000 0.30760  0.65710  0.87605  Biso   1.000  N
  C192     1.0000 0.44244  0.60169  0.97877  Biso   1.000  C
  C193     1.0000 0.40606  0.75238  0.89448  Biso   1.000  C
  C194     1.0000 0.24941  0.49819  0.79592  Biso   1.000  C
  C195     1.0000 0.25786  0.65250  0.85824  Biso   1.000  C
  H85      1.0000 0.44246  0.52590  0.99037  Biso   1.000  H
  C196     1.0000 0.47760  0.67280  0.02722  Biso   1.000  C
  C197     1.0000 0.44070  0.82103  0.94486  Biso   1.000  C
  H86      1.0000 0.38218  0.77910  0.84847  Biso   1.000  H
  Cl22     1.0000 0.21261  0.39091  0.74631  Biso   1.000  Cl
  N66      1.0000 0.22612  0.57407  0.81929  Biso   1.000  N
  O44      1.0000 0.24042  0.73800  0.88343  Biso   1.000  O
  H87      1.0000 0.50251  0.64551  0.07222  Biso   1.000  H
  C198     1.0000 0.47678  0.78346  0.01057  Biso   1.000  C
  O45      1.0000 0.44171  0.93341  0.92777  Biso   1.000  O
  C199     1.0000 0.18912  0.74186  0.87372  Biso   1.000  C
  H88      1.0000 0.50067  0.83270  0.04392  Biso   1.000  H
  C200     1.0000 0.40199  0.99679  0.92184  Biso   1.000  C
  C201     1.0000 0.17709  0.70898  0.93155  Biso   1.000  C
  C202     1.0000 0.15436  0.78963  0.81007  Biso   1.000  C
  N67      1.0000 0.36226  0.95289  0.92922  Biso   1.000  N
  N68      1.0000 0.40860  0.10202  0.90885  Biso   1.000  N
  C203     1.0000 0.12790  0.72336  0.92616  Biso   1.000  C
  H89      1.0000 0.20204  0.67683  0.97455  Biso   1.000  H
  C204     1.0000 0.10563  0.80171  0.80663  Biso   1.000  C
  H90      1.0000 0.16348  0.81281  0.77079  Biso   1.000  H
  C205     1.0000 0.32662  0.02598  0.92289  Biso   1.000  C
  C206     1.0000 0.37039  0.16310  0.90530  Biso   1.000  C
  C207     1.0000 0.09188  0.76940  0.86290  Biso   1.000  C
  H91      1.0000 0.11887  0.70166  0.96590  Biso   1.000  H
  O46      1.0000 0.06758  0.84808  0.74271  Biso   1.000  O
  O47      1.0000 0.28578  0.98241  0.92988  Biso   1.000  O
  N69      1.0000 0.32711  0.13310  0.90968  Biso   1.000  N
  Cl23     1.0000 0.37649  0.30212  0.89326  Biso   1.000  Cl
  H92      1.0000 0.05797  0.77853  0.85846  Biso   1.000  H
  C208     1.0000 0.06467  0.95766  0.73965  Biso   1.000  C
  C209     1.0000 0.24912  0.05261  0.93765  Biso   1.000  C
  N70      1.0000 0.02418  0.99655  0.68333  Biso   1.000  N
  N71      1.0000 0.10144  0.01537  0.79043  Biso   1.000  N
  C210     1.0000 0.20822  0.08492  0.87539  Biso   1.000  C
  C211     1.0000 0.25399  0.07958  0.00857  Biso   1.000  C
  C212     1.0000 0.02305  0.10490  0.68278  Biso   1.000  C
  C213     1.0000 0.09485  0.12241  0.78033  Biso   1.000  C
  C214     1.0000 0.17161  0.14707  0.88660  Biso   1.000  C
  H93      1.0000 0.20526  0.06544  0.82700  Biso   1.000  H
  H94      1.0000 0.28271  0.05590  0.05052  Biso   1.000  H
  C215     1.0000 0.21670  0.14140  0.01734  Biso   1.000  C
  Cl24     1.0000 0.97110  0.16352  0.61352  Biso   1.000  Cl
  N72      1.0000 0.05592  0.17470  0.72811  Biso   1.000  N
  O48      1.0000 0.13028  0.19106  0.82561  Biso   1.000  O
  C216     1.0000 0.17512  0.17642  0.95607  Biso   1.000  C
  H95      1.0000 0.21941  0.16023  0.06573  Biso   1.000  H
  H96      1.0000 0.14945  0.21999  0.96207  Biso   1.000  H
