data_image0
_cell_length_a       17.216
_cell_length_b       16.31
_cell_length_c       17.196
_cell_angle_alpha    90
_cell_angle_beta     97.98
_cell_angle_gamma    90

_symmetry_space_group_name_H-M    "P 1"
_symmetry_int_tables_number       1

loop_
  _symmetry_equiv_pos_as_xyz
  'x, y, z'

loop_
  _atom_site_label
  _atom_site_occupancy
  _atom_site_fract_x
  _atom_site_fract_y
  _atom_site_fract_z
  _atom_site_thermal_displace_type
  _atom_site_B_iso_or_equiv
  _atom_site_type_symbol
  C1       1.0000 0.57390  0.59663  0.48522  Biso   1.000  C
  C2       1.0000 0.61900  0.55549  0.54482  Biso   1.000  C
  C3       1.0000 0.55920  0.55782  0.41352  Biso   1.000  C
  C4       1.0000 0.54128  0.67897  0.49831  Biso   1.000  C
  N1       1.0000 0.64992  0.48081  0.53830  Biso   1.000  N
  H1       1.0000 0.63128  0.58308  0.59820  Biso   1.000  H
  C5       1.0000 0.59061  0.48130  0.40459  Biso   1.000  C
  H2       1.0000 0.52530  0.58381  0.36760  Biso   1.000  H
  N2       1.0000 0.49480  0.71588  0.44758  Biso   1.000  N
  H3       1.0000 0.55488  0.70797  0.54952  Biso   1.000  H
  C6       1.0000 0.63431  0.44390  0.46801  Biso   1.000  C
  H4       1.0000 0.58240  0.45218  0.35168  Biso   1.000  H
  C7       1.0000 0.46540  0.79552  0.46842  Biso   1.000  C
  C8       1.0000 0.66948  0.36137  0.45862  Biso   1.000  C
  C9       1.0000 0.47998  0.86039  0.40812  Biso   1.000  C
  H5       1.0000 0.40842  0.79142  0.47101  Biso   1.000  H
  H6       1.0000 0.49409  0.81073  0.52121  Biso   1.000  H
  N3       1.0000 0.63559  0.31668  0.39807  Biso   1.000  N
  C10      1.0000 0.73489  0.33421  0.50929  Biso   1.000  C
  N4       1.0000 0.56319  0.87897  0.40541  Biso   1.000  N
  H7       1.0000 0.45791  0.84028  0.35450  Biso   1.000  H
  H8       1.0000 0.45412  0.91202  0.42021  Biso   1.000  H
  C11      1.0000 0.66832  0.24402  0.38610  Biso   1.000  C
  C12      1.0000 0.76709  0.25972  0.49479  Biso   1.000  C
  H9       1.0000 0.75968  0.36842  0.55568  Biso   1.000  H
  C13      1.0000 0.57141  0.92882  0.33571  Biso   1.000  C
  C14      1.0000 0.59691  0.92250  0.47688  Biso   1.000  C
  C15      1.0000 0.73412  0.21263  0.43172  Biso   1.000  C
  H10      1.0000 0.64458  0.20963  0.34017  Biso   1.000  H
  H11      1.0000 0.81450  0.23930  0.53008  Biso   1.000  H
  C16      1.0000 0.55292  0.88590  0.25808  Biso   1.000  C
  H12      1.0000 0.53649  0.97689  0.33689  Biso   1.000  H
  H13      1.0000 0.62789  0.94801  0.34211  Biso   1.000  H
  C17      1.0000 0.68588  0.92508  0.48892  Biso   1.000  C
  H14      1.0000 0.57428  0.97897  0.47371  Biso   1.000  H
  H15      1.0000 0.57770  0.89270  0.52221  Biso   1.000  H
  C18      1.0000 0.76828  0.13409  0.41123  Biso   1.000  C
  N5       1.0000 0.60852  0.81993  0.24810  Biso   1.000  N
  H16      1.0000 0.55520  0.92741  0.21627  Biso   1.000  H
  H17      1.0000 0.49978  0.86211  0.25520  Biso   1.000  H
  N6       1.0000 0.71860  0.84249  0.49990  Biso   1.000  N
  H18      1.0000 0.70338  0.95162  0.44212  Biso   1.000  H
  H19      1.0000 0.70291  0.95972  0.53672  Biso   1.000  H
  N7       1.0000 0.83138  0.10730  0.44993  Biso   1.000  N
  H20      1.0000 0.73948  0.10202  0.36519  Biso   1.000  H
  C19      1.0000 0.57993  0.74862  0.23542  Biso   1.000  C
  C20      1.0000 0.75502  0.81533  0.44758  Biso   1.000  C
  C21      1.0000 0.86012  0.02833  0.42632  Biso   1.000  C
  C22      1.0000 0.62792  0.67560  0.22508  Biso   1.000  C
  H21      1.0000 0.52191  0.74280  0.23260  Biso   1.000  H
  C23      1.0000 0.78977  0.73329  0.45057  Biso   1.000  C
  H22      1.0000 0.76240  0.85107  0.40230  Biso   1.000  H
  C24      1.0000 0.94428  0.03452  0.40999  Biso   1.000  C
  H23      1.0000 0.82731  0.00828  0.37782  Biso   1.000  H
  H24      1.0000 0.85858  0.98737  0.46971  Biso   1.000  H
  C25      1.0000 0.59082  0.59957  0.21850  Biso   1.000  C
  C26      1.0000 0.70801  0.67658  0.22203  Biso   1.000  C
  C27      1.0000 0.83562  0.70981  0.39461  Biso   1.000  C
  C28      1.0000 0.78091  0.67750  0.50988  Biso   1.000  C
  N8       1.0000 0.95561  0.08467  0.34217  Biso   1.000  N
  H25      1.0000 0.97652  0.06021  0.45732  Biso   1.000  H
  H26      1.0000 0.96473  0.97879  0.40160  Biso   1.000  H
  N9       1.0000 0.62789  0.52790  0.21269  Biso   1.000  N
  H27      1.0000 0.53181  0.59828  0.21680  Biso   1.000  H
  C29      1.0000 0.74647  0.60411  0.21498  Biso   1.000  C
  H28      1.0000 0.73873  0.72900  0.22702  Biso   1.000  H
  N10      1.0000 0.86958  0.63593  0.39109  Biso   1.000  N
  H29      1.0000 0.84252  0.75120  0.35262  Biso   1.000  H
  C30      1.0000 0.81578  0.60098  0.50788  Biso   1.000  C
  H30      1.0000 0.74830  0.69240  0.55281  Biso   1.000  H
  C31      1.0000 0.92342  0.04347  0.26918  Biso   1.000  C
  C32      1.0000 0.03958  0.10049  0.34200  Biso   1.000  C
  C33      1.0000 0.70510  0.53041  0.21110  Biso   1.000  C
  H31      1.0000 0.80468  0.60392  0.21292  Biso   1.000  H
  C34      1.0000 0.85761  0.58197  0.44722  Biso   1.000  C
  H32      1.0000 0.81178  0.55978  0.55069  Biso   1.000  H
  C35      1.0000 0.91553  0.09792  0.19760  Biso   1.000  C
  H33      1.0000 0.87083  0.02170  0.27570  Biso   1.000  H
  H34      1.0000 0.95959  0.99669  0.26149  Biso   1.000  H
  C36      1.0000 0.07542  0.16082  0.40483  Biso   1.000  C
  H35      1.0000 0.06761  0.04709  0.34892  Biso   1.000  H
  H36      1.0000 0.04560  0.12361  0.28862  Biso   1.000  H
  C37      1.0000 0.74631  0.45083  0.20588  Biso   1.000  C
  C38      1.0000 0.89503  0.50049  0.44141  Biso   1.000  C
  N11      1.0000 0.85708  0.16260  0.20212  Biso   1.000  N
  H37      1.0000 0.90052  0.06303  0.15050  Biso   1.000  H
  H38      1.0000 0.96830  0.12361  0.19449  Biso   1.000  H
  N12      1.0000 0.04013  0.24181  0.39032  Biso   1.000  N
  H39      1.0000 0.13349  0.16511  0.40389  Biso   1.000  H
  H40      1.0000 0.06601  0.14120  0.45803  Biso   1.000  H
  N13      1.0000 0.81771  0.45402  0.18380  Biso   1.000  N
  C39      1.0000 0.71230  0.37713  0.22408  Biso   1.000  C
  N14      1.0000 0.89732  0.45218  0.50442  Biso   1.000  N
  C40      1.0000 0.92431  0.47658  0.37400  Biso   1.000  C
  C41      1.0000 0.88092  0.23617  0.19772  Biso   1.000  C
  C42      1.0000 0.00278  0.26977  0.44188  Biso   1.000  C
  C43      1.0000 0.85720  0.38418  0.18122  Biso   1.000  C
  C44      1.0000 0.75531  0.30558  0.22138  Biso   1.000  C
  H41      1.0000 0.65719  0.37541  0.23841  Biso   1.000  H
  C45      1.0000 0.93232  0.37952  0.50048  Biso   1.000  C
  C46      1.0000 0.96002  0.40110  0.37183  Biso   1.000  C
  H42      1.0000 0.91787  0.51410  0.32679  Biso   1.000  H
  C47      1.0000 0.82961  0.30791  0.20048  Biso   1.000  C
  H43      1.0000 0.93741  0.24519  0.19249  Biso   1.000  H
  C48      1.0000 0.96428  0.35052  0.43689  Biso   1.000  C
  H44      1.0000 0.99999  0.23483  0.48962  Biso   1.000  H
  H45      1.0000 0.91221  0.38651  0.16612  Biso   1.000  H
  H46      1.0000 0.73277  0.25181  0.23600  Biso   1.000  H
  H47      1.0000 0.93530  0.34421  0.54799  Biso   1.000  H
  H48      1.0000 0.98140  0.38308  0.32332  Biso   1.000  H
  C49      1.0000 0.42612  0.40337  0.51481  Biso   1.000  C
  C50      1.0000 0.45869  0.32103  0.50172  Biso   1.000  C
  C51      1.0000 0.38102  0.44451  0.45521  Biso   1.000  C
  C52      1.0000 0.44082  0.44218  0.58651  Biso   1.000  C
  N15      1.0000 0.50521  0.28412  0.55239  Biso   1.000  N
  H49      1.0000 0.44508  0.29203  0.45051  Biso   1.000  H
  N16      1.0000 0.35010  0.51919  0.46173  Biso   1.000  N
  H50      1.0000 0.36868  0.41692  0.40177  Biso   1.000  H
  C53      1.0000 0.40941  0.51870  0.59538  Biso   1.000  C
  H51      1.0000 0.47471  0.41619  0.63237  Biso   1.000  H
  C54      1.0000 0.53462  0.20448  0.53161  Biso   1.000  C
  C55      1.0000 0.36571  0.55610  0.53202  Biso   1.000  C
  H52      1.0000 0.41761  0.54782  0.64829  Biso   1.000  H
  C56      1.0000 0.51999  0.13961  0.59191  Biso   1.000  C
  H53      1.0000 0.59160  0.20858  0.52902  Biso   1.000  H
  H54      1.0000 0.50593  0.18927  0.47882  Biso   1.000  H
  C57      1.0000 0.33048  0.63863  0.54141  Biso   1.000  C
  N17      1.0000 0.43677  0.12103  0.59462  Biso   1.000  N
  H55      1.0000 0.54212  0.15972  0.64553  Biso   1.000  H
  H56      1.0000 0.54590  0.08798  0.57982  Biso   1.000  H
  N18      1.0000 0.36442  0.68332  0.60190  Biso   1.000  N
  C58      1.0000 0.26512  0.66579  0.49068  Biso   1.000  C
  C59      1.0000 0.40310  0.07750  0.52309  Biso   1.000  C
  C60      1.0000 0.42861  0.07118  0.66432  Biso   1.000  C
  C61      1.0000 0.33170  0.75598  0.61388  Biso   1.000  C
  C62      1.0000 0.23292  0.74028  0.50518  Biso   1.000  C
  H57      1.0000 0.24028  0.63158  0.44429  Biso   1.000  H
  C63      1.0000 0.31408  0.07492  0.51111  Biso   1.000  C
  H58      1.0000 0.42568  0.02103  0.52632  Biso   1.000  H
  H59      1.0000 0.42232  0.10730  0.47782  Biso   1.000  H
  C64      1.0000 0.44709  0.11410  0.74189  Biso   1.000  C
  H60      1.0000 0.46352  0.02311  0.66309  Biso   1.000  H
  H61      1.0000 0.37207  0.05199  0.65792  Biso   1.000  H
  C65      1.0000 0.26590  0.78737  0.56831  Biso   1.000  C
  H62      1.0000 0.35537  0.79037  0.65980  Biso   1.000  H
  H63      1.0000 0.18551  0.76070  0.46989  Biso   1.000  H
  N19      1.0000 0.28141  0.15751  0.50007  Biso   1.000  N
  H64      1.0000 0.29658  0.04838  0.55791  Biso   1.000  H
  H65      1.0000 0.29711  0.04028  0.46331  Biso   1.000  H
  N20      1.0000 0.39149  0.18007  0.75187  Biso   1.000  N
  H66      1.0000 0.44481  0.07259  0.78370  Biso   1.000  H
  H67      1.0000 0.50018  0.13789  0.74483  Biso   1.000  H
  C66      1.0000 0.23168  0.86591  0.58880  Biso   1.000  C
  C67      1.0000 0.24499  0.18467  0.55239  Biso   1.000  C
  C68      1.0000 0.42009  0.25138  0.76462  Biso   1.000  C
  N21      1.0000 0.16858  0.89270  0.55010  Biso   1.000  N
  H68      1.0000 0.26048  0.89798  0.63478  Biso   1.000  H
  C69      1.0000 0.21019  0.26671  0.54940  Biso   1.000  C
  H69      1.0000 0.23762  0.14893  0.59773  Biso   1.000  H
  C70      1.0000 0.37209  0.32440  0.77489  Biso   1.000  C
  H70      1.0000 0.47810  0.25720  0.76737  Biso   1.000  H
  C71      1.0000 0.13991  0.97167  0.57371  Biso   1.000  C
  C72      1.0000 0.21910  0.32250  0.49009  Biso   1.000  C
  C73      1.0000 0.16440  0.29019  0.60542  Biso   1.000  C
  C74      1.0000 0.40920  0.40043  0.78153  Biso   1.000  C
  C75      1.0000 0.29201  0.32342  0.77800  Biso   1.000  C
  C76      1.0000 0.05567  0.96548  0.58998  Biso   1.000  C
  H71      1.0000 0.17271  0.99172  0.62221  Biso   1.000  H
  H72      1.0000 0.14138  0.01263  0.53032  Biso   1.000  H
  C77      1.0000 0.18417  0.39902  0.49209  Biso   1.000  C
  H73      1.0000 0.25172  0.30760  0.44722  Biso   1.000  H
  N22      1.0000 0.13038  0.36407  0.60889  Biso   1.000  N
  H74      1.0000 0.15750  0.24880  0.64741  Biso   1.000  H
  N23      1.0000 0.37212  0.47210  0.78728  Biso   1.000  N
  H75      1.0000 0.46821  0.40172  0.78317  Biso   1.000  H
  C78      1.0000 0.25348  0.39589  0.78499  Biso   1.000  C
  H76      1.0000 0.26129  0.27100  0.77301  Biso   1.000  H
  N24      1.0000 0.04440  0.91533  0.65780  Biso   1.000  N
  H77      1.0000 0.02350  0.93979  0.54271  Biso   1.000  H
  H78      1.0000 0.03529  0.02121  0.59837  Biso   1.000  H
  C79      1.0000 0.14241  0.41803  0.55281  Biso   1.000  C
  H79      1.0000 0.18817  0.44022  0.44928  Biso   1.000  H
  C80      1.0000 0.29492  0.46959  0.78893  Biso   1.000  C
  H80      1.0000 0.19529  0.39608  0.78711  Biso   1.000  H
  C81      1.0000 0.96037  0.89951  0.65798  Biso   1.000  C
  C82      1.0000 0.07659  0.95653  0.73079  Biso   1.000  C
  C83      1.0000 0.10499  0.49951  0.55862  Biso   1.000  C
  C84      1.0000 0.25370  0.54917  0.79409  Biso   1.000  C
  C85      1.0000 0.92460  0.83918  0.59520  Biso   1.000  C
  H81      1.0000 0.93241  0.95291  0.65111  Biso   1.000  H
  H82      1.0000 0.95442  0.87639  0.71141  Biso   1.000  H
  C86      1.0000 0.08448  0.90208  0.80237  Biso   1.000  C
  H83      1.0000 0.12918  0.97830  0.72427  Biso   1.000  H
  H84      1.0000 0.04043  0.00331  0.73848  Biso   1.000  H
  N25      1.0000 0.10270  0.54782  0.49561  Biso   1.000  N
  C87      1.0000 0.07571  0.52342  0.62597  Biso   1.000  C
  N26      1.0000 0.18230  0.54598  0.81617  Biso   1.000  N
  C88      1.0000 0.28771  0.62287  0.77589  Biso   1.000  C
  N27      1.0000 0.95989  0.75819  0.60971  Biso   1.000  N
  H85      1.0000 0.86652  0.83489  0.59608  Biso   1.000  H
  H86      1.0000 0.93401  0.85880  0.54200  Biso   1.000  H
  N28      1.0000 0.14288  0.83740  0.79791  Biso   1.000  N
  H87      1.0000 0.09950  0.93697  0.84953  Biso   1.000  H
  H88      1.0000 0.03171  0.87639  0.80549  Biso   1.000  H
  C89      1.0000 0.06769  0.62048  0.49949  Biso   1.000  C
  C90      1.0000 0.04000  0.59890  0.62820  Biso   1.000  C
  H89      1.0000 0.08208  0.48590  0.67319  Biso   1.000  H
  C91      1.0000 0.14282  0.61582  0.81882  Biso   1.000  C
  C92      1.0000 0.24470  0.69442  0.77859  Biso   1.000  C
  H90      1.0000 0.34277  0.62459  0.76162  Biso   1.000  H
  C93      1.0000 0.99717  0.73023  0.55809  Biso   1.000  C
  C94      1.0000 0.11910  0.76383  0.80231  Biso   1.000  C
  C95      1.0000 0.03568  0.64948  0.56308  Biso   1.000  C
  H91      1.0000 0.06471  0.65579  0.45198  Biso   1.000  H
  H92      1.0000 0.01862  0.61692  0.67671  Biso   1.000  H
  C96      1.0000 0.17040  0.69209  0.79950  Biso   1.000  C
  H93      1.0000 0.08781  0.61349  0.83391  Biso   1.000  H
  H94      1.0000 0.26719  0.74819  0.76403  Biso   1.000  H
  H95      1.0000 0.00003  0.76517  0.51041  Biso   1.000  H
  H96      1.0000 0.06260  0.75481  0.80748  Biso   1.000  H
  N29      1.0000 0.85711  0.33740  0.70208  Biso   1.000  N
  C97      1.0000 0.88090  0.26383  0.69767  Biso   1.000  C
  C98      1.0000 0.91551  0.40208  0.69761  Biso   1.000  C
  C99      1.0000 0.82959  0.19209  0.70049  Biso   1.000  C
  H97      1.0000 0.93740  0.25481  0.69250  Biso   1.000  H
  C100     1.0000 0.92340  0.45653  0.76920  Biso   1.000  C
  H98      1.0000 0.90050  0.43697  0.65052  Biso   1.000  H
  H99      1.0000 0.96828  0.37639  0.69450  Biso   1.000  H
  C101     1.0000 0.75530  0.19442  0.72140  Biso   1.000  C
  C102     1.0000 0.85718  0.11582  0.68117  Biso   1.000  C
  N30      1.0000 0.95560  0.41533  0.84219  Biso   1.000  N
  H100     1.0000 0.95963  0.50331  0.76150  Biso   1.000  H
  H101     1.0000 0.87081  0.47830  0.77571  Biso   1.000  H
  C103     1.0000 0.71228  0.12287  0.72410  Biso   1.000  C
  H102     1.0000 0.73281  0.24819  0.73602  Biso   1.000  H
  N31      1.0000 0.81770  0.04598  0.68381  Biso   1.000  N
  H103     1.0000 0.91218  0.11349  0.66608  Biso   1.000  H
  C104     1.0000 0.94432  0.46548  0.91001  Biso   1.000  C
  C105     1.0000 0.03962  0.39951  0.84201  Biso   1.000  C
  C106     1.0000 0.74629  0.04917  0.70589  Biso   1.000  C
  H104     1.0000 0.65723  0.12459  0.73843  Biso   1.000  H
  C107     1.0000 0.86009  0.47167  0.92628  Biso   1.000  C
  H105     1.0000 0.96471  0.52121  0.90161  Biso   1.000  H
  H106     1.0000 0.97649  0.43979  0.95728  Biso   1.000  H
  C108     1.0000 0.07539  0.33918  0.90478  Biso   1.000  C
  H107     1.0000 0.06758  0.45291  0.84888  Biso   1.000  H
  H108     1.0000 0.04557  0.37639  0.78857  Biso   1.000  H
  C109     1.0000 0.70508  0.96959  0.71112  Biso   1.000  C
  N32      1.0000 0.83141  0.39270  0.94988  Biso   1.000  N
  H109     1.0000 0.82728  0.49172  0.87777  Biso   1.000  H
  H110     1.0000 0.85861  0.51263  0.96967  Biso   1.000  H
  N33      1.0000 0.04010  0.25819  0.89028  Biso   1.000  N
  H111     1.0000 0.13347  0.33489  0.90390  Biso   1.000  H
  H112     1.0000 0.06598  0.35880  0.95799  Biso   1.000  H
  N34      1.0000 0.62793  0.97210  0.71271  Biso   1.000  N
  C110     1.0000 0.74651  0.89589  0.71500  Biso   1.000  C
  C111     1.0000 0.76831  0.36591  0.91118  Biso   1.000  C
  C112     1.0000 0.00282  0.23023  0.94190  Biso   1.000  C
  C113     1.0000 0.59081  0.90043  0.71852  Biso   1.000  C
  C114     1.0000 0.70798  0.82342  0.72198  Biso   1.000  C
  H113     1.0000 0.80471  0.89608  0.71288  Biso   1.000  H
  C115     1.0000 0.73409  0.28737  0.93168  Biso   1.000  C
  H114     1.0000 0.73951  0.39798  0.86521  Biso   1.000  H
  C116     1.0000 0.96432  0.14948  0.93690  Biso   1.000  C
  H115     1.0000 0.00002  0.26517  0.98958  Biso   1.000  H
  C117     1.0000 0.62790  0.82440  0.72510  Biso   1.000  C
  H116     1.0000 0.53179  0.90172  0.71682  Biso   1.000  H
  H117     1.0000 0.73870  0.77100  0.72697  Biso   1.000  H
  C118     1.0000 0.66830  0.25598  0.88611  Biso   1.000  C
  C119     1.0000 0.76713  0.24028  0.99480  Biso   1.000  C
  C120     1.0000 0.95999  0.09890  0.87178  Biso   1.000  C
  C121     1.0000 0.93230  0.12048  0.00050  Biso   1.000  C
  C122     1.0000 0.57990  0.75138  0.73537  Biso   1.000  C
  N35      1.0000 0.63557  0.18332  0.89809  Biso   1.000  N
  H118     1.0000 0.64462  0.29037  0.84019  Biso   1.000  H
  C123     1.0000 0.73492  0.16579  0.00925  Biso   1.000  C
  H119     1.0000 0.81454  0.26070  0.03010  Biso   1.000  H
  C124     1.0000 0.92429  0.02342  0.87401  Biso   1.000  C
  H120     1.0000 0.98138  0.11692  0.82328  Biso   1.000  H
  N36      1.0000 0.89729  0.04782  0.00438  Biso   1.000  N
  H121     1.0000 0.93534  0.15579  0.04795  Biso   1.000  H
  N37      1.0000 0.60850  0.68007  0.74811  Biso   1.000  N
  H122     1.0000 0.52190  0.75720  0.73261  Biso   1.000  H
  C125     1.0000 0.66952  0.13863  0.95857  Biso   1.000  C
  H123     1.0000 0.75971  0.13158  0.05570  Biso   1.000  H
  C126     1.0000 0.89501  0.99951  0.94143  Biso   1.000  C
  H124     1.0000 0.91791  0.98590  0.82680  Biso   1.000  H
  C127     1.0000 0.55290  0.61410  0.75810  Biso   1.000  C
  C128     1.0000 0.63429  0.05610  0.96803  Biso   1.000  C
  C129     1.0000 0.85758  0.91803  0.94718  Biso   1.000  C
  C130     1.0000 0.57139  0.57118  0.83573  Biso   1.000  C
  H125     1.0000 0.55518  0.57259  0.71629  Biso   1.000  H
  H126     1.0000 0.49982  0.63789  0.75522  Biso   1.000  H
  C131     1.0000 0.59059  0.01870  0.90461  Biso   1.000  C
  N38      1.0000 0.64990  0.01919  0.03826  Biso   1.000  N
  N39      1.0000 0.86962  0.86407  0.89110  Biso   1.000  N
  C132     1.0000 0.81582  0.89902  0.00790  Biso   1.000  C
  N40      1.0000 0.56322  0.62103  0.90537  Biso   1.000  N
  H127     1.0000 0.53647  0.52311  0.83690  Biso   1.000  H
  H128     1.0000 0.62793  0.55199  0.84213  Biso   1.000  H
  C133     1.0000 0.55917  0.94218  0.91347  Biso   1.000  C
  H129     1.0000 0.58238  0.04782  0.85170  Biso   1.000  H
  C134     1.0000 0.61903  0.94451  0.04478  Biso   1.000  C
  C135     1.0000 0.83560  0.79019  0.89462  Biso   1.000  C
  C136     1.0000 0.78090  0.82250  0.00990  Biso   1.000  C
  H130     1.0000 0.81181  0.94022  0.05065  Biso   1.000  H
  C137     1.0000 0.48001  0.63961  0.90807  Biso   1.000  C
  C138     1.0000 0.59689  0.57750  0.97689  Biso   1.000  C
  C139     1.0000 0.57388  0.90337  0.98517  Biso   1.000  C
  H131     1.0000 0.52528  0.91619  0.86761  Biso   1.000  H
  H132     1.0000 0.63131  0.91692  0.09815  Biso   1.000  H
  C140     1.0000 0.78981  0.76671  0.95059  Biso   1.000  C
  H133     1.0000 0.84249  0.74880  0.85258  Biso   1.000  H
  H134     1.0000 0.74833  0.80760  0.05276  Biso   1.000  H
  C141     1.0000 0.46537  0.70448  0.96838  Biso   1.000  C
  H135     1.0000 0.45789  0.65972  0.85452  Biso   1.000  H
  H136     1.0000 0.45410  0.58798  0.92023  Biso   1.000  H
  C142     1.0000 0.68592  0.57492  0.98887  Biso   1.000  C
  H137     1.0000 0.57432  0.52103  0.97372  Biso   1.000  H
  H138     1.0000 0.57773  0.60730  0.02217  Biso   1.000  H
  C143     1.0000 0.54132  0.82103  0.99833  Biso   1.000  C
  C144     1.0000 0.75500  0.68467  0.94759  Biso   1.000  C
  N41      1.0000 0.49478  0.78412  0.94759  Biso   1.000  N
  H139     1.0000 0.40840  0.70858  0.97102  Biso   1.000  H
  H140     1.0000 0.49412  0.68927  0.02117  Biso   1.000  H
  N42      1.0000 0.71858  0.65751  0.99991  Biso   1.000  N
  H141     1.0000 0.70341  0.54838  0.94207  Biso   1.000  H
  H142     1.0000 0.70294  0.54028  0.03667  Biso   1.000  H
  H143     1.0000 0.55491  0.79203  0.04947  Biso   1.000  H
  H144     1.0000 0.76238  0.64893  0.90232  Biso   1.000  H
  N43      1.0000 0.14290  0.66260  0.29790  Biso   1.000  N
  C145     1.0000 0.08451  0.59792  0.30242  Biso   1.000  C
  C146     1.0000 0.11911  0.73617  0.30230  Biso   1.000  C
  C147     1.0000 0.07661  0.54347  0.23078  Biso   1.000  C
  H145     1.0000 0.09952  0.56303  0.34951  Biso   1.000  H
  H146     1.0000 0.03168  0.62361  0.30553  Biso   1.000  H
  C148     1.0000 0.17042  0.80791  0.29948  Biso   1.000  C
  H147     1.0000 0.06262  0.74519  0.30753  Biso   1.000  H
  N44      1.0000 0.04442  0.58467  0.15779  Biso   1.000  N
  H148     1.0000 0.04039  0.49669  0.23853  Biso   1.000  H
  H149     1.0000 0.12921  0.52170  0.22432  Biso   1.000  H
  C149     1.0000 0.14278  0.88418  0.31880  Biso   1.000  C
  C150     1.0000 0.24472  0.80558  0.27858  Biso   1.000  C
  C151     1.0000 0.05570  0.53452  0.09002  Biso   1.000  C
  C152     1.0000 0.96040  0.60049  0.15802  Biso   1.000  C
  N45      1.0000 0.18232  0.95402  0.31622  Biso   1.000  N
  H150     1.0000 0.08777  0.88651  0.33389  Biso   1.000  H
  C153     1.0000 0.28767  0.87713  0.27587  Biso   1.000  C
  H151     1.0000 0.26721  0.75181  0.26401  Biso   1.000  H
  C154     1.0000 0.13992  0.52833  0.07370  Biso   1.000  C
  H152     1.0000 0.03531  0.47879  0.09842  Biso   1.000  H
  H153     1.0000 0.02352  0.56021  0.04269  Biso   1.000  H
  C155     1.0000 0.92462  0.66082  0.09519  Biso   1.000  C
  H154     1.0000 0.93237  0.54709  0.15109  Biso   1.000  H
  H155     1.0000 0.95438  0.62361  0.21140  Biso   1.000  H
  C156     1.0000 0.25372  0.95083  0.29408  Biso   1.000  C
  H156     1.0000 0.34279  0.87541  0.26161  Biso   1.000  H
  N46      1.0000 0.16860  0.60730  0.05009  Biso   1.000  N
  H157     1.0000 0.17267  0.50828  0.12220  Biso   1.000  H
  H158     1.0000 0.14140  0.48737  0.03030  Biso   1.000  H
  N47      1.0000 0.95991  0.74181  0.10969  Biso   1.000  N
  H159     1.0000 0.86649  0.66511  0.09613  Biso   1.000  H
  H160     1.0000 0.93397  0.64120  0.04199  Biso   1.000  H
  C157     1.0000 0.29488  0.03041  0.28891  Biso   1.000  C
  C158     1.0000 0.23170  0.63409  0.08879  Biso   1.000  C
  C159     1.0000 0.99719  0.76977  0.05808  Biso   1.000  C
  N48      1.0000 0.37209  0.02790  0.28733  Biso   1.000  N
  C160     1.0000 0.25350  0.10411  0.28498  Biso   1.000  C
  C161     1.0000 0.26592  0.71263  0.06829  Biso   1.000  C
  H161     1.0000 0.26051  0.60202  0.13482  Biso   1.000  H
  C162     1.0000 0.03571  0.85052  0.06313  Biso   1.000  C
  H162     1.0000 0.99999  0.73483  0.01039  Biso   1.000  H
  C163     1.0000 0.40922  0.09957  0.28151  Biso   1.000  C
  C164     1.0000 0.29197  0.17658  0.27799  Biso   1.000  C
  H163     1.0000 0.19530  0.10392  0.28709  Biso   1.000  H
  C165     1.0000 0.33172  0.74402  0.11392  Biso   1.000  C
  C166     1.0000 0.23289  0.75972  0.00523  Biso   1.000  C
  C167     1.0000 0.04002  0.90110  0.12819  Biso   1.000  C
  C168     1.0000 0.06766  0.87952  0.99953  Biso   1.000  C
  C169     1.0000 0.37211  0.17560  0.27488  Biso   1.000  C
  H164     1.0000 0.46818  0.09828  0.28321  Biso   1.000  H
  H165     1.0000 0.26131  0.22900  0.27300  Biso   1.000  H
  N49      1.0000 0.36438  0.81668  0.10188  Biso   1.000  N
  H166     1.0000 0.35539  0.70963  0.15978  Biso   1.000  H
  C170     1.0000 0.26509  0.83421  0.99072  Biso   1.000  C
  H167     1.0000 0.18548  0.73930  0.96993  Biso   1.000  H
  C171     1.0000 0.07568  0.97658  0.12602  Biso   1.000  C
  H168     1.0000 0.01858  0.88308  0.17669  Biso   1.000  H
  N50      1.0000 0.10267  0.95218  0.99565  Biso   1.000  N
  H169     1.0000 0.06468  0.84421  0.95202  Biso   1.000  H
  C172     1.0000 0.42011  0.24862  0.26460  Biso   1.000  C
  C173     1.0000 0.33050  0.86137  0.04140  Biso   1.000  C
  H170     1.0000 0.24031  0.86842  0.94433  Biso   1.000  H
  C174     1.0000 0.10501  0.00049  0.05860  Biso   1.000  C
  H171     1.0000 0.08211  0.01410  0.17323  Biso   1.000  H
  N51      1.0000 0.39152  0.31993  0.25192  Biso   1.000  N
  H172     1.0000 0.47813  0.24280  0.26742  Biso   1.000  H
  C175     1.0000 0.36567  0.94390  0.03200  Biso   1.000  C
  C176     1.0000 0.14243  0.08197  0.05279  Biso   1.000  C
  C177     1.0000 0.44711  0.38590  0.24187  Biso   1.000  C
  C178     1.0000 0.40938  0.98130  0.09542  Biso   1.000  C
  N52      1.0000 0.35006  0.98081  0.96171  Biso   1.000  N
  C179     1.0000 0.18420  0.10098  0.99213  Biso   1.000  C
  N53      1.0000 0.13040  0.13593  0.10893  Biso   1.000  N
  C180     1.0000 0.42863  0.42882  0.16430  Biso   1.000  C
  H173     1.0000 0.44477  0.42741  0.28368  Biso   1.000  H
  H174     1.0000 0.50020  0.36211  0.24481  Biso   1.000  H
  H175     1.0000 0.41757  0.95218  0.14827  Biso   1.000  H
  C181     1.0000 0.44078  0.05782  0.08650  Biso   1.000  C
  C182     1.0000 0.38099  0.05549  0.95525  Biso   1.000  C
  C183     1.0000 0.21907  0.17750  0.99013  Biso   1.000  C
  H176     1.0000 0.18820  0.05978  0.94932  Biso   1.000  H
  C184     1.0000 0.16442  0.20981  0.10541  Biso   1.000  C
  N54      1.0000 0.43679  0.37897  0.09460  Biso   1.000  N
  H177     1.0000 0.46349  0.47689  0.16313  Biso   1.000  H
  H178     1.0000 0.37209  0.44801  0.15790  Biso   1.000  H
  C185     1.0000 0.42608  0.09663  0.01480  Biso   1.000  C
  H179     1.0000 0.47468  0.08381  0.13242  Biso   1.000  H
  H180     1.0000 0.36870  0.08308  0.90182  Biso   1.000  H
  H181     1.0000 0.25168  0.19240  0.94721  Biso   1.000  H
  C186     1.0000 0.21021  0.23329  0.04938  Biso   1.000  C
  H182     1.0000 0.15752  0.25120  0.14739  Biso   1.000  H
  C187     1.0000 0.52000  0.36039  0.09190  Biso   1.000  C
  C188     1.0000 0.40312  0.42250  0.02308  Biso   1.000  C
  C189     1.0000 0.45871  0.17897  0.00170  Biso   1.000  C
  C190     1.0000 0.24501  0.31533  0.05238  Biso   1.000  C
  C191     1.0000 0.53459  0.29552  0.03159  Biso   1.000  C
  H183     1.0000 0.54208  0.34028  0.14551  Biso   1.000  H
  H184     1.0000 0.54592  0.41202  0.07980  Biso   1.000  H
  H185     1.0000 0.42228  0.39270  0.97780  Biso   1.000  H
  C192     1.0000 0.31410  0.42508  0.01110  Biso   1.000  C
  H186     1.0000 0.42570  0.47897  0.02631  Biso   1.000  H
  H187     1.0000 0.44511  0.20797  0.95056  Biso   1.000  H
  N55      1.0000 0.50517  0.21588  0.05238  Biso   1.000  N
  N56      1.0000 0.28138  0.34249  0.00012  Biso   1.000  N
  H188     1.0000 0.23759  0.35107  0.09771  Biso   1.000  H
  H189     1.0000 0.50589  0.31073  0.97880  Biso   1.000  H
  H190     1.0000 0.59162  0.29142  0.02901  Biso   1.000  H
  H191     1.0000 0.29708  0.45972  0.96336  Biso   1.000  H
  H192     1.0000 0.29660  0.45162  0.05790  Biso   1.000  H
  Ne1      1.0000 0.24517  0.51997  0.62757  Biso   1.000  Ne
  He1      1.0000 0.14717  0.42707  0.70969  Biso   1.000  He
  He2      1.0000 0.36930  0.60519  0.68637  Biso   1.000  He
  He3      1.0000 0.22682  0.53125  0.43589  Biso   1.000  He
  Ar1      1.0000 0.25749  0.52205  0.63404  Biso   1.000  Ar
  Ne2      1.0000 0.24517  0.98003  0.12757  Biso   1.000  Ne
  He4      1.0000 0.14316  0.04090  0.24064  Biso   1.000  He
  He5      1.0000 0.37831  0.93767  0.21689  Biso   1.000  He
  He6      1.0000 0.22750  0.96784  0.95154  Biso   1.000  He
  Ar2      1.0000 0.25749  0.97795  0.13403  Biso   1.000  Ar
  Ne3      1.0000 0.75483  0.48003  0.37243  Biso   1.000  Ne
  He7      1.0000 0.77084  0.46880  0.52465  Biso   1.000  He
  He8      1.0000 0.61198  0.43490  0.27753  Biso   1.000  He
  He9      1.0000 0.87232  0.58775  0.28252  Biso   1.000  He
  Ar3      1.0000 0.74271  0.47657  0.36566  Biso   1.000  Ar
  Ne4      1.0000 0.75483  0.01997  0.87242  Biso   1.000  Ne
  He10     1.0000 0.77323  0.03120  0.06501  Biso   1.000  He
  He11     1.0000 0.63195  0.10451  0.81419  Biso   1.000  He
  He12     1.0000 0.85189  0.92800  0.79104  Biso   1.000  He
  Ar4      1.0000 0.74251  0.02203  0.86602  Biso   1.000  Ar
