data_image0
_cell_length_a       14.834
_cell_length_b       14.834
_cell_length_c       15.594
_cell_angle_alpha    90
_cell_angle_beta     90
_cell_angle_gamma    120

_symmetry_space_group_name_H-M    "P 1"
_symmetry_int_tables_number       1

loop_
  _symmetry_equiv_pos_as_xyz
  'x, y, z'

loop_
  _atom_site_label
  _atom_site_occupancy
  _atom_site_fract_x
  _atom_site_fract_y
  _atom_site_fract_z
  _atom_site_thermal_displace_type
  _atom_site_B_iso_or_equiv
  _atom_site_type_symbol
  C1       1.0000 0.53467  0.42945  0.36963  Biso   1.000  C
  C2       1.0000 0.52858  0.42011  0.28133  Biso   1.000  C
  C3       1.0000 0.49339  0.34367  0.42234  Biso   1.000  C
  H1       1.0000 0.56246  0.49017  0.40445  Biso   1.000  H
  C4       1.0000 0.48308  0.32304  0.24432  Biso   1.000  C
  H2       1.0000 0.55641  0.48075  0.24651  Biso   1.000  H
  C5       1.0000 0.44179  0.24652  0.38534  Biso   1.000  C
  C6       1.0000 0.50296  0.35714  0.51545  Biso   1.000  C
  C7       1.0000 0.43857  0.23726  0.29704  Biso   1.000  C
  C8       1.0000 0.47914  0.30950  0.15121  Biso   1.000  C
  H3       1.0000 0.40901  0.18596  0.42016  Biso   1.000  H
  N1       1.0000 0.47025  0.28552  0.57022  Biso   1.000  N
  H4       1.0000 0.53741  0.42657  0.53655  Biso   1.000  H
  H5       1.0000 0.40565  0.17654  0.26222  Biso   1.000  H
  N2       1.0000 0.51805  0.38111  0.09645  Biso   1.000  N
  H6       1.0000 0.44419  0.24014  0.13011  Biso   1.000  H
  C9       1.0000 0.49028  0.31627  0.66122  Biso   1.000  C
  C10      1.0000 0.50736  0.35044  0.00545  Biso   1.000  C
  C11      1.0000 0.55713  0.27821  0.70194  Biso   1.000  C
  H7       1.0000 0.52507  0.38991  0.66494  Biso   1.000  H
  H8       1.0000 0.42586  0.28747  0.69091  Biso   1.000  H
  H9       1.0000 0.46848  0.27673  0.00173  Biso   1.000  H
  C12      1.0000 0.61224  0.38843  0.96473  Biso   1.000  C
  H10      1.0000 0.47174  0.37924  0.97576  Biso   1.000  H
  N3       1.0000 0.66666  0.33332  0.67116  Biso   1.000  N
  H11      1.0000 0.52767  0.20620  0.68943  Biso   1.000  H
  H12      1.0000 0.55728  0.28755  0.76215  Biso   1.000  H
  N4       1.0000 0.66666  0.33332  0.99551  Biso   1.000  N
  H13      1.0000 0.65478  0.46043  0.97723  Biso   1.000  H
  H14      1.0000 0.60309  0.37917  0.90451  Biso   1.000  H
  C13      1.0000 0.72108  0.44284  0.70194  Biso   1.000  C
  C14      1.0000 0.72176  0.27891  0.70194  Biso   1.000  C
  C15      1.0000 0.77618  0.38773  0.96473  Biso   1.000  C
  C16      1.0000 0.61160  0.22387  0.96473  Biso   1.000  C
  C17      1.0000 0.82597  0.50971  0.66122  Biso   1.000  C
  H15      1.0000 0.67860  0.47234  0.68943  Biso   1.000  H
  H16      1.0000 0.73028  0.44276  0.76215  Biso   1.000  H
  C18      1.0000 0.68376  0.17405  0.66122  Biso   1.000  C
  H17      1.0000 0.79378  0.32141  0.68943  Biso   1.000  H
  H18      1.0000 0.71245  0.26972  0.76215  Biso   1.000  H
  C19      1.0000 0.84307  0.49266  0.00545  Biso   1.000  C
  H19      1.0000 0.80569  0.34523  0.97723  Biso   1.000  H
  H20      1.0000 0.77605  0.39691  0.90451  Biso   1.000  H
  C20      1.0000 0.64958  0.15693  0.00545  Biso   1.000  C
  H21      1.0000 0.53961  0.19437  0.97723  Biso   1.000  H
  H22      1.0000 0.62087  0.22395  0.90451  Biso   1.000  H
  N5       1.0000 0.81528  0.52971  0.57022  Biso   1.000  N
  H23      1.0000 0.86487  0.47491  0.66494  Biso   1.000  H
  H24      1.0000 0.86157  0.57416  0.69091  Biso   1.000  H
  N6       1.0000 0.71444  0.18472  0.57022  Biso   1.000  N
  H25      1.0000 0.61004  0.13513  0.66494  Biso   1.000  H
  H26      1.0000 0.71252  0.13840  0.69091  Biso   1.000  H
  N7       1.0000 0.86304  0.48192  0.09645  Biso   1.000  N
  H27      1.0000 0.80822  0.53150  0.00173  Biso   1.000  H
  H28      1.0000 0.90744  0.52823  0.97576  Biso   1.000  H
  N8       1.0000 0.61889  0.13692  0.09645  Biso   1.000  N
  H29      1.0000 0.72327  0.19172  0.00173  Biso   1.000  H
  H30      1.0000 0.62077  0.09255  0.97576  Biso   1.000  H
  C21      1.0000 0.85414  0.49702  0.51545  Biso   1.000  C
  C22      1.0000 0.64287  0.14580  0.51545  Biso   1.000  C
  C23      1.0000 0.83039  0.52084  0.15121  Biso   1.000  C
  C24      1.0000 0.69044  0.16962  0.15121  Biso   1.000  C
  C25      1.0000 0.85027  0.50667  0.42234  Biso   1.000  C
  H31      1.0000 0.88919  0.46261  0.53655  Biso   1.000  H
  C26      1.0000 0.65639  0.14977  0.42234  Biso   1.000  C
  H32      1.0000 0.57349  0.11085  0.53655  Biso   1.000  H
  C27      1.0000 0.83997  0.51695  0.24432  Biso   1.000  C
  H33      1.0000 0.79600  0.55587  0.13011  Biso   1.000  H
  C28      1.0000 0.67696  0.16004  0.24432  Biso   1.000  C
  H34      1.0000 0.75989  0.20402  0.13011  Biso   1.000  H
  C29      1.0000 0.89480  0.46534  0.36963  Biso   1.000  C
  C30      1.0000 0.80472  0.55820  0.38534  Biso   1.000  C
  C31      1.0000 0.57055  0.10524  0.36963  Biso   1.000  C
  C32      1.0000 0.75347  0.19523  0.38534  Biso   1.000  C
  C33      1.0000 0.89156  0.47141  0.28133  Biso   1.000  C
  C34      1.0000 0.79867  0.56147  0.29704  Biso   1.000  C
  C35      1.0000 0.57983  0.10843  0.28133  Biso   1.000  C
  C36      1.0000 0.76278  0.20130  0.29704  Biso   1.000  C
  H35      1.0000 0.92769  0.43755  0.40445  Biso   1.000  H
  H36      1.0000 0.77699  0.59105  0.42016  Biso   1.000  H
  H37      1.0000 0.50987  0.07231  0.40445  Biso   1.000  H
  H38      1.0000 0.81408  0.22302  0.42016  Biso   1.000  H
  H39      1.0000 0.92438  0.44362  0.24651  Biso   1.000  H
  H40      1.0000 0.77087  0.59432  0.26222  Biso   1.000  H
  H41      1.0000 0.51929  0.07566  0.24651  Biso   1.000  H
  H42      1.0000 0.82349  0.22917  0.26222  Biso   1.000  H
  C37      1.0000 0.31624  0.49025  0.33878  Biso   1.000  C
  C38      1.0000 0.27826  0.55719  0.29806  Biso   1.000  C
  N9       1.0000 0.28554  0.47024  0.42978  Biso   1.000  N
  H43      1.0000 0.38993  0.52504  0.33506  Biso   1.000  H
  H44      1.0000 0.28743  0.42587  0.30909  Biso   1.000  H
  N10      1.0000 0.33332  0.66663  0.32884  Biso   1.000  N
  H45      1.0000 0.20627  0.52769  0.31057  Biso   1.000  H
  H46      1.0000 0.28753  0.55727  0.23785  Biso   1.000  H
  C39      1.0000 0.35710  0.50293  0.48455  Biso   1.000  C
  C40      1.0000 0.44283  0.72105  0.29806  Biso   1.000  C
  C41      1.0000 0.27890  0.72175  0.29806  Biso   1.000  C
  C42      1.0000 0.34362  0.49336  0.57766  Biso   1.000  C
  H47      1.0000 0.42655  0.53734  0.46345  Biso   1.000  H
  C43      1.0000 0.50973  0.82598  0.33878  Biso   1.000  C
  H48      1.0000 0.47234  0.67854  0.31057  Biso   1.000  H
  H49      1.0000 0.44271  0.73023  0.23785  Biso   1.000  H
  C44      1.0000 0.17402  0.68376  0.33878  Biso   1.000  C
  H50      1.0000 0.32144  0.79375  0.31057  Biso   1.000  H
  H51      1.0000 0.26975  0.71248  0.23785  Biso   1.000  H
  C45      1.0000 0.24649  0.44175  0.61466  Biso   1.000  C
  C46      1.0000 0.42947  0.53469  0.63037  Biso   1.000  C
  N11      1.0000 0.52970  0.81523  0.42978  Biso   1.000  N
  H52      1.0000 0.47492  0.86490  0.33506  Biso   1.000  H
  H53      1.0000 0.57409  0.86155  0.30909  Biso   1.000  H
  N12      1.0000 0.18471  0.71443  0.42978  Biso   1.000  N
  H54      1.0000 0.13514  0.61004  0.33506  Biso   1.000  H
  H55      1.0000 0.13840  0.71256  0.30909  Biso   1.000  H
  C47      1.0000 0.23721  0.43856  0.70296  Biso   1.000  C
  H56      1.0000 0.18595  0.40898  0.57984  Biso   1.000  H
  C48      1.0000 0.42013  0.52854  0.71867  Biso   1.000  C
  H57      1.0000 0.49015  0.56248  0.59555  Biso   1.000  H
  C49      1.0000 0.49705  0.85415  0.48455  Biso   1.000  C
  C50      1.0000 0.14584  0.64289  0.48455  Biso   1.000  C
  C51      1.0000 0.32304  0.48308  0.75568  Biso   1.000  C
  H58      1.0000 0.17653  0.40563  0.73778  Biso   1.000  H
  H59      1.0000 0.48074  0.55633  0.75349  Biso   1.000  H
  C52      1.0000 0.50663  0.85026  0.57766  Biso   1.000  C
  H60      1.0000 0.46266  0.88918  0.46345  Biso   1.000  H
  C53      1.0000 0.14974  0.65636  0.57766  Biso   1.000  C
  H61      1.0000 0.11085  0.57346  0.46345  Biso   1.000  H
  C54      1.0000 0.30957  0.47919  0.84879  Biso   1.000  C
  C55      1.0000 0.55826  0.80480  0.61466  Biso   1.000  C
  C56      1.0000 0.46533  0.89479  0.63037  Biso   1.000  C
  C57      1.0000 0.19528  0.75351  0.61466  Biso   1.000  C
  C58      1.0000 0.10523  0.57058  0.63037  Biso   1.000  C
  N13      1.0000 0.38110  0.51804  0.90355  Biso   1.000  N
  H62      1.0000 0.24015  0.44416  0.86989  Biso   1.000  H
  C59      1.0000 0.56145  0.79865  0.70296  Biso   1.000  C
  H63      1.0000 0.59104  0.77694  0.57984  Biso   1.000  H
  C60      1.0000 0.47141  0.89160  0.71867  Biso   1.000  C
  H64      1.0000 0.43753  0.92764  0.59555  Biso   1.000  H
  C61      1.0000 0.20133  0.76277  0.70296  Biso   1.000  C
  H65      1.0000 0.22306  0.81407  0.57984  Biso   1.000  H
  C62      1.0000 0.10845  0.57984  0.71867  Biso   1.000  C
  H66      1.0000 0.07231  0.50986  0.59555  Biso   1.000  H
  C63      1.0000 0.35042  0.50737  0.99455  Biso   1.000  C
  C64      1.0000 0.51693  0.83999  0.75568  Biso   1.000  C
  H67      1.0000 0.59434  0.77086  0.73778  Biso   1.000  H
  H68      1.0000 0.44365  0.92437  0.75349  Biso   1.000  H
  C65      1.0000 0.16005  0.67699  0.75568  Biso   1.000  C
  H69      1.0000 0.22912  0.82349  0.73778  Biso   1.000  H
  H70      1.0000 0.07567  0.51928  0.75349  Biso   1.000  H
  H71      1.0000 0.27670  0.46845  0.99827  Biso   1.000  H
  C66      1.0000 0.38846  0.61230  0.03527  Biso   1.000  C
  H72      1.0000 0.37922  0.47180  0.02424  Biso   1.000  H
  C67      1.0000 0.52080  0.83034  0.84879  Biso   1.000  C
  C68      1.0000 0.16962  0.69045  0.84879  Biso   1.000  C
  N14      1.0000 0.33332  0.66663  0.00449  Biso   1.000  N
  H73      1.0000 0.46047  0.65480  0.02277  Biso   1.000  H
  H74      1.0000 0.37911  0.60304  0.09549  Biso   1.000  H
  N15      1.0000 0.48194  0.86303  0.90355  Biso   1.000  N
  H75      1.0000 0.55585  0.79593  0.86989  Biso   1.000  H
  N16      1.0000 0.13691  0.61884  0.90355  Biso   1.000  N
  H76      1.0000 0.20406  0.75989  0.86989  Biso   1.000  H
  C69      1.0000 0.38774  0.77616  0.03527  Biso   1.000  C
  C70      1.0000 0.22383  0.61160  0.03527  Biso   1.000  C
  C71      1.0000 0.49267  0.84310  0.99455  Biso   1.000  C
  C72      1.0000 0.15694  0.64959  0.99455  Biso   1.000  C
  H77      1.0000 0.34526  0.80566  0.02277  Biso   1.000  H
  H78      1.0000 0.39694  0.77608  0.09549  Biso   1.000  H
  H79      1.0000 0.19436  0.53960  0.02277  Biso   1.000  H
  H80      1.0000 0.22394  0.62086  0.09549  Biso   1.000  H
  H81      1.0000 0.53152  0.80823  0.99827  Biso   1.000  H
  H82      1.0000 0.52823  0.90748  0.02424  Biso   1.000  H
  H83      1.0000 0.19177  0.72330  0.99827  Biso   1.000  H
  H84      1.0000 0.09252  0.62079  0.02424  Biso   1.000  H
  C73      1.0000 0.15931  0.17639  0.32788  Biso   1.000  C
  N17      1.0000 0.14862  0.19639  0.23689  Biso   1.000  N
  C74      1.0000 0.05442  0.10952  0.36860  Biso   1.000  C
  H85      1.0000 0.19821  0.14159  0.33160  Biso   1.000  H
  H86      1.0000 0.19487  0.24076  0.35757  Biso   1.000  H
  C75      1.0000 0.18749  0.16370  0.18212  Biso   1.000  C
  N18      1.0000 0.00000  0.00000  0.33782  Biso   1.000  N
  H87      1.0000 0.01194  0.13902  0.35610  Biso   1.000  H
  H88      1.0000 0.06358  0.10937  0.42882  Biso   1.000  H
  C76      1.0000 0.18358  0.17328  0.08901  Biso   1.000  C
  H89      1.0000 0.22253  0.12929  0.20322  Biso   1.000  H
  C77      1.0000 0.89047  0.94489  0.36860  Biso   1.000  C
  C78      1.0000 0.05511  0.94559  0.36860  Biso   1.000  C
  C79      1.0000 0.13806  0.22488  0.05201  Biso   1.000  C
  C80      1.0000 0.22814  0.13202  0.03630  Biso   1.000  C
  C81      1.0000 0.82358  0.98287  0.32788  Biso   1.000  C
  H90      1.0000 0.86101  0.87288  0.35610  Biso   1.000  H
  H91      1.0000 0.89059  0.95415  0.42882  Biso   1.000  H
  C82      1.0000 0.01707  0.84066  0.32788  Biso   1.000  C
  H92      1.0000 0.12712  0.98809  0.35610  Biso   1.000  H
  H93      1.0000 0.04579  0.93640  0.42882  Biso   1.000  H
  H94      1.0000 0.11033  0.25773  0.08683  Biso   1.000  H
  C83      1.0000 0.13197  0.22808  0.96370  Biso   1.000  C
  H95      1.0000 0.26103  0.10423  0.07112  Biso   1.000  H
  C84      1.0000 0.22490  0.13809  0.94799  Biso   1.000  C
  N19      1.0000 0.80359  0.95221  0.23689  Biso   1.000  N
  H96      1.0000 0.75916  0.95407  0.35757  Biso   1.000  H
  H97      1.0000 0.85842  0.05659  0.33160  Biso   1.000  H
  H98      1.0000 0.94334  0.80174  0.33160  Biso   1.000  H
  N20      1.0000 0.04778  0.85140  0.23689  Biso   1.000  N
  H99      1.0000 0.04586  0.80508  0.35757  Biso   1.000  H
  C85      1.0000 0.17332  0.18363  0.91099  Biso   1.000  C
  H100     1.0000 0.10421  0.26100  0.92888  Biso   1.000  H
  H101     1.0000 0.25773  0.11030  0.91317  Biso   1.000  H
  C86      1.0000 0.83630  0.02382  0.18212  Biso   1.000  C
  C87      1.0000 0.97621  0.81248  0.18212  Biso   1.000  C
  C88      1.0000 0.16373  0.18752  0.81788  Biso   1.000  C
  C89      1.0000 0.82670  0.01028  0.08901  Biso   1.000  C
  H102     1.0000 0.87071  0.09318  0.20322  Biso   1.000  H
  C90      1.0000 0.98969  0.81637  0.08901  Biso   1.000  C
  H103     1.0000 0.90679  0.77745  0.20322  Biso   1.000  H
  N21      1.0000 0.19638  0.14860  0.76311  Biso   1.000  N
  H104     1.0000 0.12930  0.22247  0.79678  Biso   1.000  H
  C91      1.0000 0.77513  0.91321  0.05201  Biso   1.000  C
  C92      1.0000 0.86801  0.09613  0.03630  Biso   1.000  C
  C93      1.0000 0.90386  0.77185  0.03630  Biso   1.000  C
  C94      1.0000 0.08681  0.86191  0.05201  Biso   1.000  C
  C95      1.0000 0.17637  0.15926  0.67212  Biso   1.000  C
  C96      1.0000 0.77187  0.90387  0.96370  Biso   1.000  C
  H105     1.0000 0.74231  0.85257  0.08683  Biso   1.000  H
  C97      1.0000 0.86192  0.08679  0.94799  Biso   1.000  C
  H106     1.0000 0.89577  0.15677  0.07112  Biso   1.000  H
  C98      1.0000 0.91314  0.77504  0.94799  Biso   1.000  C
  H107     1.0000 0.84321  0.73900  0.07112  Biso   1.000  H
  C99      1.0000 0.09612  0.86798  0.96370  Biso   1.000  C
  H108     1.0000 0.14742  0.88970  0.08683  Biso   1.000  H
  C100     1.0000 0.10952  0.05441  0.63140  Biso   1.000  C
  H109     1.0000 0.14156  0.19818  0.66840  Biso   1.000  H
  H110     1.0000 0.24078  0.19492  0.64243  Biso   1.000  H
  C101     1.0000 0.81638  0.98965  0.91099  Biso   1.000  C
  H111     1.0000 0.73895  0.84315  0.92888  Biso   1.000  H
  H112     1.0000 0.88975  0.14743  0.91317  Biso   1.000  H
  H113     1.0000 0.85259  0.74227  0.91317  Biso   1.000  H
  C102     1.0000 0.01026  0.82665  0.91099  Biso   1.000  C
  H114     1.0000 0.15680  0.89577  0.92888  Biso   1.000  H
  N22      1.0000 0.00000  0.00000  0.66218  Biso   1.000  N
  H115     1.0000 0.13903  0.01191  0.64390  Biso   1.000  H
  H116     1.0000 0.10939  0.06360  0.57118  Biso   1.000  H
  C103     1.0000 0.81248  0.97618  0.81788  Biso   1.000  C
  C104     1.0000 0.02379  0.83630  0.81788  Biso   1.000  C
  C105     1.0000 0.94490  0.89048  0.63140  Biso   1.000  C
  C106     1.0000 0.94558  0.05511  0.63140  Biso   1.000  C
  H117     1.0000 0.77749  0.90675  0.79678  Biso   1.000  H
  N23      1.0000 0.85139  0.04779  0.76311  Biso   1.000  N
  N24      1.0000 0.95223  0.80361  0.76311  Biso   1.000  N
  H118     1.0000 0.09323  0.87071  0.79678  Biso   1.000  H
  C107     1.0000 0.98289  0.82353  0.67212  Biso   1.000  C
  H119     1.0000 0.87292  0.86098  0.64390  Biso   1.000  H
  H120     1.0000 0.95418  0.89055  0.57118  Biso   1.000  H
  C108     1.0000 0.84070  0.01713  0.67212  Biso   1.000  C
  H121     1.0000 0.98812  0.12712  0.64390  Biso   1.000  H
  H122     1.0000 0.93639  0.04577  0.57118  Biso   1.000  H
  H123     1.0000 0.95407  0.75916  0.64243  Biso   1.000  H
  H124     1.0000 0.05661  0.85841  0.66840  Biso   1.000  H
  H125     1.0000 0.80182  0.94341  0.66840  Biso   1.000  H
  H126     1.0000 0.80509  0.04593  0.64243  Biso   1.000  H
  Ne1      1.0000 1.00000  0.99999  0.00000  Biso   1.000  Ne
  He1      1.0000 0.05180  0.99245  0.13836  Biso   1.000  He
  He2      1.0000 0.93992  0.94754  0.13849  Biso   1.000  He
  He3      1.0000 0.00732  0.05772  0.13822  Biso   1.000  He
  He4      1.0000 0.07292  0.00927  0.86027  Biso   1.000  He
  He5      1.0000 0.85946  0.84939  0.84176  Biso   1.000  He
  He6      1.0000 0.98957  0.13690  0.84236  Biso   1.000  He
  Ar1      1.0000 0.99999  0.99997  1.00000  Biso   1.000  Ar
  Ne2      1.0000 0.66667  0.33333  0.33333  Biso   1.000  Ne
  He7      1.0000 0.71836  0.32579  0.47179  Biso   1.000  He
  He8      1.0000 0.60654  0.28083  0.47179  Biso   1.000  He
  He9      1.0000 0.67399  0.39112  0.47150  Biso   1.000  He
  He10     1.0000 0.73958  0.34258  0.19360  Biso   1.000  He
  He11     1.0000 0.52615  0.18273  0.17508  Biso   1.000  He
  He12     1.0000 0.65623  0.47022  0.17570  Biso   1.000  He
  Ar2      1.0000 0.66668  0.33335  0.33333  Biso   1.000  Ar
  Ne3      1.0000 0.33333  0.66666  0.66667  Biso   1.000  Ne
  He13     1.0000 0.38514  0.65913  0.80502  Biso   1.000  He
  He14     1.0000 0.27319  0.61416  0.80512  Biso   1.000  He
  He15     1.0000 0.34065  0.72450  0.80483  Biso   1.000  He
  He16     1.0000 0.40624  0.67590  0.52694  Biso   1.000  He
  He17     1.0000 0.19284  0.51611  0.50842  Biso   1.000  He
  He18     1.0000 0.32289  0.80352  0.50902  Biso   1.000  He
  Ar3      1.0000 0.33334  0.66667  0.66666  Biso   1.000  Ar
