data_image0
_cell_length_a       14.229
_cell_length_b       16.298
_cell_length_c       18.093
_cell_angle_alpha    90
_cell_angle_beta     109.94
_cell_angle_gamma    90

_symmetry_space_group_name_H-M    "P 1"
_symmetry_int_tables_number       1

loop_
  _symmetry_equiv_pos_as_xyz
  'x, y, z'

loop_
  _atom_site_label
  _atom_site_occupancy
  _atom_site_fract_x
  _atom_site_fract_y
  _atom_site_fract_z
  _atom_site_thermal_displace_type
  _atom_site_B_iso_or_equiv
  _atom_site_type_symbol
  O1       1.0000 0.69340  0.66517  0.59289  Biso   1.000  O
  C1       1.0000 0.80030  0.65707  0.60911  Biso   1.000  C
  C2       1.0000 0.64812  0.73297  0.54908  Biso   1.000  C
  C3       1.0000 0.82631  0.57111  0.63522  Biso   1.000  C
  H1       1.0000 0.83704  0.69518  0.64992  Biso   1.000  H
  H2       1.0000 0.81633  0.66830  0.56214  Biso   1.000  H
  C4       1.0000 0.54934  0.74420  0.54220  Biso   1.000  C
  C5       1.0000 0.69352  0.78537  0.51134  Biso   1.000  C
  O2       1.0000 0.80243  0.52350  0.56719  Biso   1.000  O
  H3       1.0000 0.89704  0.56657  0.66544  Biso   1.000  H
  H4       1.0000 0.78843  0.55320  0.66779  Biso   1.000  H
  C6       1.0000 0.49522  0.80697  0.49682  Biso   1.000  C
  H5       1.0000 0.51950  0.70917  0.56819  Biso   1.000  H
  C7       1.0000 0.63915  0.84851  0.46683  Biso   1.000  C
  H6       1.0000 0.76010  0.77789  0.51592  Biso   1.000  H
  C8       1.0000 0.87352  0.47221  0.55949  Biso   1.000  C
  O3       1.0000 0.39720  0.80918  0.49070  Biso   1.000  O
  C9       1.0000 0.54036  0.86121  0.45942  Biso   1.000  C
  C10      1.0000 0.69073  0.90029  0.42273  Biso   1.000  C
  C11      1.0000 0.84173  0.42269  0.48911  Biso   1.000  C
  H7       1.0000 0.89514  0.43607  0.60482  Biso   1.000  H
  H8       1.0000 0.93078  0.50460  0.55978  Biso   1.000  H
  C12      1.0000 0.33424  0.87250  0.44631  Biso   1.000  C
  H9       1.0000 0.50452  0.90502  0.43008  Biso   1.000  H
  O4       1.0000 0.62732  0.96171  0.38023  Biso   1.000  O
  H10      1.0000 0.75034  0.92478  0.45972  Biso   1.000  H
  H11      1.0000 0.71091  0.86569  0.38710  Biso   1.000  H
  O5       1.0000 0.75050  0.38821  0.47142  Biso   1.000  O
  H12      1.0000 0.84194  0.45668  0.44519  Biso   1.000  H
  H13      1.0000 0.89045  0.37937  0.49482  Biso   1.000  H
  C13      1.0000 0.22813  0.84207  0.42803  Biso   1.000  C
  H14      1.0000 0.34791  0.88268  0.39810  Biso   1.000  H
  H15      1.0000 0.34462  0.92300  0.47641  Biso   1.000  H
  C14      1.0000 0.64537  0.98386  0.30938  Biso   1.000  C
  C15      1.0000 0.71791  0.33348  0.40892  Biso   1.000  C
  O6       1.0000 0.20764  0.78721  0.36423  Biso   1.000  O
  H16      1.0000 0.22146  0.81439  0.47342  Biso   1.000  H
  H17      1.0000 0.18171  0.88778  0.41433  Biso   1.000  H
  C16      1.0000 0.61640  0.91852  0.24970  Biso   1.000  C
  H18      1.0000 0.71593  0.99601  0.32202  Biso   1.000  H
  H19      1.0000 0.60809  0.03332  0.28792  Biso   1.000  H
  C17      1.0000 0.66371  0.37317  0.33401  Biso   1.000  C
  H20      1.0000 0.67483  0.29292  0.42009  Biso   1.000  H
  H21      1.0000 0.77542  0.30482  0.40410  Biso   1.000  H
  C18      1.0000 0.10962  0.75917  0.33948  Biso   1.000  C
  C19      1.0000 0.58862  0.86906  0.20120  Biso   1.000  C
  O7       1.0000 0.56420  0.39342  0.33272  Biso   1.000  O
  H22      1.0000 0.69844  0.42257  0.32819  Biso   1.000  H
  H23      1.0000 0.65994  0.33648  0.29080  Biso   1.000  H
  C20      1.0000 0.08322  0.71641  0.26581  Biso   1.000  C
  H24      1.0000 0.06485  0.80537  0.33413  Biso   1.000  H
  H25      1.0000 0.10103  0.72260  0.37899  Biso   1.000  H
  C21      1.0000 0.55649  0.81077  0.14622  Biso   1.000  C
  C22      1.0000 0.50749  0.44318  0.27439  Biso   1.000  C
  O8       1.0000 0.13884  0.64707  0.26863  Biso   1.000  O
  H26      1.0000 0.01314  0.70137  0.24941  Biso   1.000  H
  H27      1.0000 0.09172  0.75328  0.22642  Biso   1.000  H
  C23      1.0000 0.52638  0.76138  0.09431  Biso   1.000  C
  C24      1.0000 0.41158  0.45858  0.27298  Biso   1.000  C
  C25      1.0000 0.54057  0.47969  0.21860  Biso   1.000  C
  C26      1.0000 0.10838  0.59719  0.20261  Biso   1.000  C
  C27      1.0000 0.49089  0.70052  0.03240  Biso   1.000  C
  C28      1.0000 0.35021  0.51141  0.21848  Biso   1.000  C
  H28      1.0000 0.38819  0.43312  0.30932  Biso   1.000  H
  H29      1.0000 0.60443  0.46859  0.21789  Biso   1.000  H
  C29      1.0000 0.47814  0.53270  0.16392  Biso   1.000  C
  C30      1.0000 0.19101  0.58099  0.17292  Biso   1.000  C
  H30      1.0000 0.05381  0.62339  0.16169  Biso   1.000  H
  H31      1.0000 0.08392  0.54559  0.21572  Biso   1.000  H
  O9       1.0000 0.44832  0.62541  0.05433  Biso   1.000  O
  H32      1.0000 0.54619  0.68481  0.01552  Biso   1.000  H
  H33      1.0000 0.44036  0.72561  0.98783  Biso   1.000  H
  C31      1.0000 0.38289  0.54939  0.16321  Biso   1.000  C
  O10      1.0000 0.25833  0.52460  0.22524  Biso   1.000  O
  C32      1.0000 0.52414  0.57682  0.10971  Biso   1.000  C
  H34      1.0000 0.16522  0.55780  0.12041  Biso   1.000  H
  H35      1.0000 0.22548  0.63167  0.17039  Biso   1.000  H
  H36      1.0000 0.34148  0.58529  0.12641  Biso   1.000  H
  H37      1.0000 0.57870  0.61167  0.14040  Biso   1.000  H
  H38      1.0000 0.55050  0.53700  0.08202  Biso   1.000  H
  O11      1.0000 0.30662  0.33483  0.40709  Biso   1.000  O
  C33      1.0000 0.35190  0.26703  0.45090  Biso   1.000  C
  C34      1.0000 0.19974  0.34293  0.39093  Biso   1.000  C
  C35      1.0000 0.45077  0.25580  0.45783  Biso   1.000  C
  C36      1.0000 0.30652  0.21463  0.48870  Biso   1.000  C
  C37      1.0000 0.17374  0.42889  0.36482  Biso   1.000  C
  H39      1.0000 0.16300  0.30482  0.35012  Biso   1.000  H
  H40      1.0000 0.18371  0.33170  0.43790  Biso   1.000  H
  H41      1.0000 0.48052  0.29077  0.43179  Biso   1.000  H
  C38      1.0000 0.50482  0.19297  0.50322  Biso   1.000  C
  H42      1.0000 0.23994  0.22211  0.48412  Biso   1.000  H
  C39      1.0000 0.36096  0.15149  0.53321  Biso   1.000  C
  H43      1.0000 0.10300  0.43337  0.33460  Biso   1.000  H
  H44      1.0000 0.21159  0.44680  0.33219  Biso   1.000  H
  O12      1.0000 0.19759  0.47650  0.43279  Biso   1.000  O
  C40      1.0000 0.45975  0.13879  0.54062  Biso   1.000  C
  O13      1.0000 0.60284  0.19082  0.50934  Biso   1.000  O
  C41      1.0000 0.30931  0.09971  0.57731  Biso   1.000  C
  C42      1.0000 0.12650  0.52779  0.44049  Biso   1.000  C
  H45      1.0000 0.49550  0.09498  0.56990  Biso   1.000  H
  C43      1.0000 0.66580  0.12750  0.55373  Biso   1.000  C
  H46      1.0000 0.24977  0.07522  0.54032  Biso   1.000  H
  H47      1.0000 0.28913  0.13431  0.61293  Biso   1.000  H
  O14      1.0000 0.37272  0.03829  0.61981  Biso   1.000  O
  H48      1.0000 0.10490  0.56387  0.39522  Biso   1.000  H
  H49      1.0000 0.06924  0.49540  0.44020  Biso   1.000  H
  C44      1.0000 0.15831  0.57731  0.51093  Biso   1.000  C
  H50      1.0000 0.65213  0.11732  0.60194  Biso   1.000  H
  H51      1.0000 0.65542  0.07700  0.52363  Biso   1.000  H
  C45      1.0000 0.77191  0.15787  0.57201  Biso   1.000  C
  C46      1.0000 0.35465  0.01608  0.69060  Biso   1.000  C
  H52      1.0000 0.15814  0.54332  0.55479  Biso   1.000  H
  H53      1.0000 0.10966  0.62057  0.50522  Biso   1.000  H
  O15      1.0000 0.24955  0.61179  0.52862  Biso   1.000  O
  H54      1.0000 0.77865  0.18561  0.52662  Biso   1.000  H
  H55      1.0000 0.81833  0.11222  0.58571  Biso   1.000  H
  O16      1.0000 0.79241  0.21279  0.63581  Biso   1.000  O
  H56      1.0000 0.28411  0.00399  0.67802  Biso   1.000  H
  C47      1.0000 0.38364  0.08148  0.75034  Biso   1.000  C
  H57      1.0000 0.39195  0.96668  0.71212  Biso   1.000  H
  C48      1.0000 0.28213  0.66646  0.59112  Biso   1.000  C
  C49      1.0000 0.89040  0.24083  0.66050  Biso   1.000  C
  C50      1.0000 0.41149  0.13087  0.79884  Biso   1.000  C
  C51      1.0000 0.33633  0.62676  0.66603  Biso   1.000  C
  H58      1.0000 0.32526  0.70708  0.57989  Biso   1.000  H
  H59      1.0000 0.22460  0.69518  0.59588  Biso   1.000  H
  C52      1.0000 0.91682  0.28359  0.73423  Biso   1.000  C
  H60      1.0000 0.93527  0.19463  0.66591  Biso   1.000  H
  H61      1.0000 0.89899  0.27740  0.62099  Biso   1.000  H
  C53      1.0000 0.44356  0.18923  0.85382  Biso   1.000  C
  O17      1.0000 0.43582  0.60658  0.66726  Biso   1.000  O
  H62      1.0000 0.30165  0.57737  0.67179  Biso   1.000  H
  H63      1.0000 0.34017  0.66352  0.70924  Biso   1.000  H
  H64      1.0000 0.98698  0.29863  0.75063  Biso   1.000  H
  H65      1.0000 0.90832  0.24672  0.77362  Biso   1.000  H
  O18      1.0000 0.86120  0.35287  0.73141  Biso   1.000  O
  C54      1.0000 0.47366  0.23862  0.90573  Biso   1.000  C
  C55      1.0000 0.49252  0.55682  0.72559  Biso   1.000  C
  C56      1.0000 0.89166  0.40281  0.79743  Biso   1.000  C
  C57      1.0000 0.50915  0.29948  0.96764  Biso   1.000  C
  C58      1.0000 0.58843  0.54142  0.72700  Biso   1.000  C
  C59      1.0000 0.45947  0.52031  0.78144  Biso   1.000  C
  H66      1.0000 0.94621  0.37661  0.83830  Biso   1.000  H
  H67      1.0000 0.91613  0.45441  0.78432  Biso   1.000  H
  C60      1.0000 0.80903  0.41901  0.82712  Biso   1.000  C
  O19      1.0000 0.55179  0.37459  0.94571  Biso   1.000  O
  H68      1.0000 0.45385  0.31519  0.98452  Biso   1.000  H
  H69      1.0000 0.55975  0.27439  0.01221  Biso   1.000  H
  C61      1.0000 0.64981  0.48859  0.78150  Biso   1.000  C
  H70      1.0000 0.61185  0.56688  0.69072  Biso   1.000  H
  H71      1.0000 0.39565  0.53141  0.78209  Biso   1.000  H
  C62      1.0000 0.52197  0.46730  0.83612  Biso   1.000  C
  O20      1.0000 0.74175  0.47540  0.77474  Biso   1.000  O
  H72      1.0000 0.83489  0.44220  0.87963  Biso   1.000  H
  H73      1.0000 0.77454  0.36827  0.82959  Biso   1.000  H
  C63      1.0000 0.47598  0.42318  0.89033  Biso   1.000  C
  C64      1.0000 0.61716  0.45061  0.83683  Biso   1.000  C
  H74      1.0000 0.42134  0.38827  0.85964  Biso   1.000  H
  H75      1.0000 0.44954  0.46300  0.91802  Biso   1.000  H
  H76      1.0000 0.65856  0.41471  0.87363  Biso   1.000  H
  C65      1.0000 0.91143  0.36913  0.29879  Biso   1.000  C
  C66      1.0000 0.88357  0.41852  0.25029  Biso   1.000  C
  C67      1.0000 0.94351  0.31077  0.35383  Biso   1.000  C
  C68      1.0000 0.85460  0.48392  0.19061  Biso   1.000  C
  C69      1.0000 0.97359  0.26138  0.40568  Biso   1.000  C
  O21      1.0000 0.87268  0.46171  0.11982  Biso   1.000  O
  H77      1.0000 0.78414  0.49601  0.17803  Biso   1.000  H
  H78      1.0000 0.89191  0.53332  0.21213  Biso   1.000  H
  C70      1.0000 0.00915  0.20052  0.46759  Biso   1.000  C
  C71      1.0000 0.80927  0.40029  0.07732  Biso   1.000  C
  H79      1.0000 0.95381  0.18481  0.48453  Biso   1.000  H
  O22      1.0000 0.05174  0.12541  0.44572  Biso   1.000  O
  H80      1.0000 0.05971  0.22561  0.51222  Biso   1.000  H
  C72      1.0000 0.86092  0.34851  0.03322  Biso   1.000  C
  H81      1.0000 0.74970  0.42478  0.04027  Biso   1.000  H
  H82      1.0000 0.78906  0.36569  0.11289  Biso   1.000  H
  C73      1.0000 0.97591  0.07682  0.39028  Biso   1.000  C
  C74      1.0000 0.95971  0.36121  0.04063  Biso   1.000  C
  C75      1.0000 0.80655  0.28537  0.98871  Biso   1.000  C
  H83      1.0000 0.92127  0.11167  0.35959  Biso   1.000  H
  H84      1.0000 0.94950  0.03700  0.41803  Biso   1.000  H
  C76      1.0000 0.02193  0.03270  0.33613  Biso   1.000  C
  H85      1.0000 0.99553  0.40502  0.06991  Biso   1.000  H
  C77      1.0000 0.00482  0.30697  0.00317  Biso   1.000  C
  C78      1.0000 0.85195  0.23297  0.95097  Biso   1.000  C
  H86      1.0000 0.73997  0.27789  0.98413  Biso   1.000  H
  C79      1.0000 0.95940  0.97969  0.28139  Biso   1.000  C
  C80      1.0000 0.11711  0.04939  0.33683  Biso   1.000  C
  C81      1.0000 0.95073  0.24420  0.95784  Biso   1.000  C
  O23      1.0000 0.10277  0.30918  0.00929  Biso   1.000  O
  O24      1.0000 0.80667  0.16517  0.90716  Biso   1.000  O
  C82      1.0000 0.99248  0.94318  0.22560  Biso   1.000  C
  H87      1.0000 0.89561  0.96859  0.28210  Biso   1.000  H
  C83      1.0000 0.14984  0.01141  0.28151  Biso   1.000  C
  H88      1.0000 0.15849  0.08529  0.37358  Biso   1.000  H
  H89      1.0000 0.98057  0.20917  0.93186  Biso   1.000  H
  C84      1.0000 0.16580  0.37250  0.05368  Biso   1.000  C
  C85      1.0000 0.69977  0.15707  0.89094  Biso   1.000  C
  O25      1.0000 0.93577  0.89336  0.16727  Biso   1.000  O
  C86      1.0000 0.08839  0.95858  0.22701  Biso   1.000  C
  O26      1.0000 0.24171  0.02460  0.27475  Biso   1.000  O
  H90      1.0000 0.15213  0.38268  0.10189  Biso   1.000  H
  H91      1.0000 0.15542  0.42300  0.02358  Biso   1.000  H
  C87      1.0000 0.27194  0.34207  0.07202  Biso   1.000  C
  C88      1.0000 0.67376  0.07111  0.86483  Biso   1.000  C
  H92      1.0000 0.66303  0.19518  0.85013  Biso   1.000  H
  H93      1.0000 0.68374  0.16830  0.93791  Biso   1.000  H
  C89      1.0000 0.83626  0.87317  0.16598  Biso   1.000  C
  H94      1.0000 0.11181  0.93306  0.19073  Biso   1.000  H
  C90      1.0000 0.30905  0.08099  0.32713  Biso   1.000  C
  H95      1.0000 0.27858  0.31439  0.02658  Biso   1.000  H
  H96      1.0000 0.31829  0.38778  0.08572  Biso   1.000  H
  O27      1.0000 0.29243  0.28721  0.13582  Biso   1.000  O
  H97      1.0000 0.60303  0.06657  0.83461  Biso   1.000  H
  H98      1.0000 0.71164  0.05320  0.83226  Biso   1.000  H
  O28      1.0000 0.69764  0.02350  0.93286  Biso   1.000  O
  H99      1.0000 0.80161  0.92257  0.17180  Biso   1.000  H
  H100     1.0000 0.84010  0.83648  0.20919  Biso   1.000  H
  C91      1.0000 0.78206  0.83348  0.09107  Biso   1.000  C
  C92      1.0000 0.39159  0.09719  0.29738  Biso   1.000  C
  H101     1.0000 0.33482  0.05780  0.37958  Biso   1.000  H
  H102     1.0000 0.27449  0.13167  0.32960  Biso   1.000  H
  C93      1.0000 0.39043  0.25917  0.16051  Biso   1.000  C
  C94      1.0000 0.62655  0.97221  0.94056  Biso   1.000  C
  O29      1.0000 0.74948  0.88821  0.02857  Biso   1.000  O
  H103     1.0000 0.82522  0.79292  0.07990  Biso   1.000  H
  H104     1.0000 0.72463  0.80476  0.09589  Biso   1.000  H
  O30      1.0000 0.36123  0.14707  0.23142  Biso   1.000  O
  H105     1.0000 0.44623  0.12339  0.33830  Biso   1.000  H
  H106     1.0000 0.41615  0.04559  0.28433  Biso   1.000  H
  C95      1.0000 0.41682  0.21641  0.23418  Biso   1.000  C
  H107     1.0000 0.43522  0.30537  0.16592  Biso   1.000  H
  H108     1.0000 0.39902  0.22260  0.12100  Biso   1.000  H
  H109     1.0000 0.60493  0.93607  0.89523  Biso   1.000  H
  C96      1.0000 0.65831  0.92269  0.01088  Biso   1.000  C
  H110     1.0000 0.56922  0.00460  0.94026  Biso   1.000  H
  H111     1.0000 0.48691  0.20137  0.25058  Biso   1.000  H
  H112     1.0000 0.40835  0.25328  0.27363  Biso   1.000  H
  H113     1.0000 0.65810  0.95668  0.05480  Biso   1.000  H
  H114     1.0000 0.60959  0.87937  0.00517  Biso   1.000  H
  C97      1.0000 0.08866  0.63087  0.70119  Biso   1.000  C
  C98      1.0000 0.11644  0.58148  0.74969  Biso   1.000  C
  C99      1.0000 0.05653  0.68916  0.64621  Biso   1.000  C
  C100     1.0000 0.14544  0.51608  0.80943  Biso   1.000  C
  C101     1.0000 0.02643  0.73862  0.59430  Biso   1.000  C
  O31      1.0000 0.12736  0.53829  0.88022  Biso   1.000  O
  H115     1.0000 0.21597  0.50399  0.82201  Biso   1.000  H
  H116     1.0000 0.10814  0.46668  0.78791  Biso   1.000  H
  C102     1.0000 0.99094  0.79948  0.53239  Biso   1.000  C
  C103     1.0000 0.19078  0.59971  0.92272  Biso   1.000  C
  H117     1.0000 0.04624  0.81519  0.51551  Biso   1.000  H
  O32      1.0000 0.94830  0.87459  0.55432  Biso   1.000  O
  H118     1.0000 0.94033  0.77439  0.48782  Biso   1.000  H
  C104     1.0000 0.13920  0.65149  0.96682  Biso   1.000  C
  H119     1.0000 0.25039  0.57516  0.95971  Biso   1.000  H
  H120     1.0000 0.21096  0.63431  0.88709  Biso   1.000  H
  C105     1.0000 0.02411  0.92318  0.60970  Biso   1.000  C
  C106     1.0000 0.04033  0.63879  0.95941  Biso   1.000  C
  C107     1.0000 0.19354  0.71457  0.01127  Biso   1.000  C
  H121     1.0000 0.07874  0.88827  0.64039  Biso   1.000  H
  H122     1.0000 0.05055  0.96300  0.58201  Biso   1.000  H
  C108     1.0000 0.97811  0.96730  0.66391  Biso   1.000  C
  H123     1.0000 0.00459  0.59498  0.93013  Biso   1.000  H
  C109     1.0000 0.99527  0.69297  0.99681  Biso   1.000  C
  C110     1.0000 0.14809  0.76697  0.04907  Biso   1.000  C
  H124     1.0000 0.26012  0.72211  0.01586  Biso   1.000  H
  C111     1.0000 0.88293  0.95061  0.66320  Biso   1.000  C
  C112     1.0000 0.04062  0.02031  0.71859  Biso   1.000  C
  O33      1.0000 0.89725  0.69082  0.99069  Biso   1.000  O
  C113     1.0000 0.04932  0.75580  0.04220  Biso   1.000  C
  O34      1.0000 0.19344  0.83477  0.09288  Biso   1.000  O
  C114     1.0000 0.85028  0.98859  0.71853  Biso   1.000  C
  H125     1.0000 0.84153  0.91471  0.62640  Biso   1.000  H
  C115     1.0000 0.00756  0.05682  0.77444  Biso   1.000  C
  H126     1.0000 0.10443  0.03141  0.71794  Biso   1.000  H
  C116     1.0000 0.83421  0.62750  0.94630  Biso   1.000  C
  H127     1.0000 0.01954  0.79077  0.06818  Biso   1.000  H
  C117     1.0000 0.30034  0.84286  0.10910  Biso   1.000  C
  O35      1.0000 0.75833  0.97540  0.72529  Biso   1.000  O
  C118     1.0000 0.91165  0.04142  0.77303  Biso   1.000  C
  O36      1.0000 0.06427  0.10658  0.83277  Biso   1.000  O
  H128     1.0000 0.84795  0.61732  0.89809  Biso   1.000  H
  H129     1.0000 0.84467  0.57700  0.97640  Biso   1.000  H
  C119     1.0000 0.72817  0.65787  0.92802  Biso   1.000  C
  C120     1.0000 0.32635  0.92889  0.13521  Biso   1.000  C
  H130     1.0000 0.33701  0.80476  0.14991  Biso   1.000  H
  H131     1.0000 0.31628  0.83170  0.06207  Biso   1.000  H
  C121     1.0000 0.69106  0.91901  0.67291  Biso   1.000  C
  H132     1.0000 0.88824  0.06688  0.80931  Biso   1.000  H
  C122     1.0000 0.16376  0.12683  0.83400  Biso   1.000  C
  H133     1.0000 0.72143  0.68561  0.97341  Biso   1.000  H
  H134     1.0000 0.68175  0.61222  0.91432  Biso   1.000  H
  O37      1.0000 0.70768  0.71279  0.86422  Biso   1.000  O
  H135     1.0000 0.39699  0.93337  0.16537  Biso   1.000  H
  H136     1.0000 0.28840  0.94680  0.16778  Biso   1.000  H
  O38      1.0000 0.30240  0.97650  0.06718  Biso   1.000  O
  C123     1.0000 0.60842  0.90281  0.70260  Biso   1.000  C
  H137     1.0000 0.66520  0.94220  0.62040  Biso   1.000  H
  H138     1.0000 0.72555  0.86827  0.67044  Biso   1.000  H
  H139     1.0000 0.19844  0.07737  0.82824  Biso   1.000  H
  H140     1.0000 0.15992  0.16352  0.79079  Biso   1.000  H
  C124     1.0000 0.21796  0.16652  0.90891  Biso   1.000  C
  C125     1.0000 0.60968  0.74077  0.83953  Biso   1.000  C
  C126     1.0000 0.37349  0.02779  0.05948  Biso   1.000  C
  O39      1.0000 0.63888  0.85287  0.76862  Biso   1.000  O
  H141     1.0000 0.55388  0.87661  0.66173  Biso   1.000  H
  H142     1.0000 0.58396  0.95441  0.71571  Biso   1.000  H
  O40      1.0000 0.25054  0.11179  0.97141  Biso   1.000  O
  H143     1.0000 0.17490  0.20708  0.92014  Biso   1.000  H
  H144     1.0000 0.27549  0.19518  0.90415  Biso   1.000  H
  C127     1.0000 0.58326  0.78359  0.76580  Biso   1.000  C
  H145     1.0000 0.56482  0.69456  0.83412  Biso   1.000  H
  H146     1.0000 0.60110  0.77740  0.87904  Biso   1.000  H
  H147     1.0000 0.43082  0.99540  0.05977  Biso   1.000  H
  C128     1.0000 0.34178  0.07731  0.98910  Biso   1.000  C
  H148     1.0000 0.39511  0.06387  0.10481  Biso   1.000  H
  H149     1.0000 0.51311  0.79856  0.74940  Biso   1.000  H
  H150     1.0000 0.59176  0.74672  0.72641  Biso   1.000  H
  H151     1.0000 0.34194  0.04332  0.94524  Biso   1.000  H
  H152     1.0000 0.39049  0.12063  0.99481  Biso   1.000  H
