data_image0
_cell_length_a       13.037
_cell_length_b       13.038
_cell_length_c       24.631
_cell_angle_alpha    100.77
_cell_angle_beta     92.65
_cell_angle_gamma    90.07

_symmetry_space_group_name_H-M    "P 1"
_symmetry_int_tables_number       1

loop_
  _symmetry_equiv_pos_as_xyz
  'x, y, z'

loop_
  _atom_site_label
  _atom_site_occupancy
  _atom_site_fract_x
  _atom_site_fract_y
  _atom_site_fract_z
  _atom_site_thermal_displace_type
  _atom_site_B_iso_or_equiv
  _atom_site_type_symbol
  C1       1.0000 0.54649  0.54173  0.43289  Biso   1.000  C
  C2       1.0000 0.54069  0.52061  0.36938  Biso   1.000  C
  H1       1.0000 0.55585  0.61667  0.44679  Biso   1.000  H
  H2       1.0000 0.48274  0.51778  0.44630  Biso   1.000  H
  H3       1.0000 0.60459  0.50390  0.44609  Biso   1.000  H
  C3       1.0000 0.52783  0.40561  0.34410  Biso   1.000  C
  C4       1.0000 0.62505  0.56579  0.34311  Biso   1.000  C
  H4       1.0000 0.47663  0.55512  0.35829  Biso   1.000  H
  C5       1.0000 0.46874  0.36260  0.29789  Biso   1.000  C
  C6       1.0000 0.58452  0.32359  0.36640  Biso   1.000  C
  C7       1.0000 0.60472  0.61509  0.30029  Biso   1.000  C
  C8       1.0000 0.72280  0.57187  0.36620  Biso   1.000  C
  C9       1.0000 0.45635  0.26019  0.27331  Biso   1.000  C
  O1       1.0000 0.40769  0.43128  0.27410  Biso   1.000  O
  C10      1.0000 0.58434  0.21369  0.34299  Biso   1.000  C
  H5       1.0000 0.62534  0.34551  0.39959  Biso   1.000  H
  C11      1.0000 0.68522  0.66167  0.27191  Biso   1.000  C
  O2       1.0000 0.50850  0.61463  0.27269  Biso   1.000  O
  C12      1.0000 0.80955  0.62114  0.34261  Biso   1.000  C
  H6       1.0000 0.73610  0.54358  0.39859  Biso   1.000  H
  C13      1.0000 0.39128  0.21962  0.22619  Biso   1.000  C
  C14      1.0000 0.51648  0.18829  0.29971  Biso   1.000  C
  H7       1.0000 0.41938  0.42443  0.24038  Biso   1.000  H
  C15      1.0000 0.64790  0.13997  0.36922  Biso   1.000  C
  C16      1.0000 0.77839  0.66411  0.29619  Biso   1.000  C
  C17      1.0000 0.65372  0.71098  0.22582  Biso   1.000  C
  H8       1.0000 0.47941  0.55897  0.27319  Biso   1.000  H
  C18      1.0000 0.90941  0.62907  0.36789  Biso   1.000  C
  H9       1.0000 0.35042  0.16137  0.23521  Biso   1.000  H
  H10      1.0000 0.34263  0.27488  0.21998  Biso   1.000  H
  N1       1.0000 0.44150  0.18058  0.17298  Biso   1.000  N
  O3       1.0000 0.50117  0.08094  0.27091  Biso   1.000  O
  H11      1.0000 0.61207  0.07097  0.35780  Biso   1.000  H
  C19      1.0000 0.65532  0.16003  0.43450  Biso   1.000  C
  C20      1.0000 0.75408  0.12400  0.34419  Biso   1.000  C
  O4       1.0000 0.85859  0.71166  0.27489  Biso   1.000  O
  H12      1.0000 0.58993  0.75066  0.23438  Biso   1.000  H
  H13      1.0000 0.70771  0.76047  0.21982  Biso   1.000  H
  N2       1.0000 0.63506  0.62781  0.17319  Biso   1.000  N
  C21      1.0000 0.97132  0.53041  0.34220  Biso   1.000  C
  H14      1.0000 0.94323  0.69013  0.35639  Biso   1.000  H
  C22      1.0000 0.91576  0.65038  0.43062  Biso   1.000  C
  C23      1.0000 0.38313  0.13849  0.12350  Biso   1.000  C
  H15      1.0000 0.48673  0.13051  0.17952  Biso   1.000  H
  H16      1.0000 0.47958  0.23451  0.16562  Biso   1.000  H
  H17      1.0000 0.55564  0.04959  0.27141  Biso   1.000  H
  H18      1.0000 0.58622  0.16992  0.44861  Biso   1.000  H
  H19      1.0000 0.68653  0.09900  0.44671  Biso   1.000  H
  H20      1.0000 0.69751  0.22193  0.44861  Biso   1.000  H
  C24      1.0000 0.76630  0.04988  0.29979  Biso   1.000  C
  C25      1.0000 0.83941  0.18863  0.36649  Biso   1.000  C
  H21      1.0000 0.86509  0.68333  0.24179  Biso   1.000  H
  C26      1.0000 0.60299  0.67232  0.12329  Biso   1.000  C
  H22      1.0000 0.58544  0.58268  0.17919  Biso   1.000  H
  H23      1.0000 0.69362  0.59090  0.16620  Biso   1.000  H
  C27      1.0000 0.97159  0.43423  0.36500  Biso   1.000  C
  C28      1.0000 0.02702  0.52654  0.29582  Biso   1.000  C
  H24      1.0000 0.89276  0.58842  0.44390  Biso   1.000  H
  H25      1.0000 0.98689  0.66711  0.44390  Biso   1.000  H
  H26      1.0000 0.87171  0.70951  0.44452  Biso   1.000  H
  H27      1.0000 0.32211  0.18390  0.12069  Biso   1.000  H
  C29      1.0000 0.34163  0.01982  0.12520  Biso   1.000  C
  C30      1.0000 0.44008  0.13317  0.07389  Biso   1.000  C
  C31      1.0000 0.86221  0.03051  0.27319  Biso   1.000  C
  O5       1.0000 0.68307  0.98298  0.27522  Biso   1.000  O
  C32      1.0000 0.93598  0.17663  0.34381  Biso   1.000  C
  H28      1.0000 0.83049  0.24187  0.39801  Biso   1.000  H
  H29      1.0000 0.64940  0.73272  0.12168  Biso   1.000  H
  C33      1.0000 0.61434  0.59208  0.07178  Biso   1.000  C
  C34      1.0000 0.48752  0.71430  0.12859  Biso   1.000  C
  C35      1.0000 0.02854  0.34292  0.34121  Biso   1.000  C
  H30      1.0000 0.93308  0.43182  0.39661  Biso   1.000  H
  C36      1.0000 0.08674  0.43663  0.26951  Biso   1.000  C
  O6       1.0000 0.03889  0.61087  0.27162  Biso   1.000  O
  H31      1.0000 0.29961  0.02152  0.15780  Biso   1.000  H
  H32      1.0000 0.40095  0.97374  0.12871  Biso   1.000  H
  C37      1.0000 0.28103  0.97853  0.07559  Biso   1.000  C
  C38      1.0000 0.36959  0.08461  0.02110  Biso   1.000  C
  H33      1.0000 0.46313  0.20414  0.07071  Biso   1.000  H
  H34      1.0000 0.50173  0.08953  0.07609  Biso   1.000  H
  C39      1.0000 0.94690  0.10081  0.29872  Biso   1.000  C
  C40      1.0000 0.88765  0.95049  0.22491  Biso   1.000  C
  H35      1.0000 0.67582  0.98562  0.24141  Biso   1.000  H
  C41      1.0000 0.02759  0.24569  0.36690  Biso   1.000  C
  H36      1.0000 0.68660  0.56911  0.06951  Biso   1.000  H
  H37      1.0000 0.57081  0.53042  0.07311  Biso   1.000  H
  C42      1.0000 0.58231  0.63812  0.02060  Biso   1.000  C
  C43      1.0000 0.45926  0.75212  0.07671  Biso   1.000  C
  H38      1.0000 0.48343  0.77188  0.16090  Biso   1.000  H
  H39      1.0000 0.44031  0.65747  0.13339  Biso   1.000  H
  C44      1.0000 0.08533  0.34508  0.29499  Biso   1.000  C
  C45      1.0000 0.14903  0.44358  0.22379  Biso   1.000  C
  H40      1.0000 0.98102  0.63489  0.26471  Biso   1.000  H
  H41      1.0000 0.21824  0.02087  0.07451  Biso   1.000  H
  H42      1.0000 0.25921  0.90643  0.07712  Biso   1.000  H
  C46      1.0000 0.33652  0.97732  0.02329  Biso   1.000  C
  H43      1.0000 0.30841  0.12873  0.01899  Biso   1.000  H
  H44      1.0000 0.40815  0.08392  0.98742  Biso   1.000  H
  O7       1.0000 0.03710  0.07596  0.27178  Biso   1.000  O
  H45      1.0000 0.95377  0.91813  0.23318  Biso   1.000  H
  H46      1.0000 0.83414  0.89499  0.21891  Biso   1.000  H
  N3       1.0000 0.89577  0.99251  0.17232  Biso   1.000  N
  H47      1.0000 0.09020  0.20541  0.35449  Biso   1.000  H
  C47      1.0000 0.03413  0.26521  0.42999  Biso   1.000  C
  H48      1.0000 0.62941  0.69649  0.01800  Biso   1.000  H
  C48      1.0000 0.47112  0.67817  0.02300  Biso   1.000  C
  H49      1.0000 0.58851  0.58388  0.98688  Biso   1.000  H
  H50      1.0000 0.38654  0.77397  0.07820  Biso   1.000  H
  H51      1.0000 0.50116  0.81533  0.07609  Biso   1.000  H
  O8       1.0000 0.13672  0.25896  0.27418  Biso   1.000  O
  H52      1.0000 0.19018  0.50887  0.23211  Biso   1.000  H
  H53      1.0000 0.19692  0.38413  0.21791  Biso   1.000  H
  N4       1.0000 0.08352  0.44230  0.17282  Biso   1.000  N
  H54      1.0000 0.29046  0.94982  0.99082  Biso   1.000  H
  H55      1.0000 0.39715  0.93143  0.02259  Biso   1.000  H
  H56      1.0000 0.07060  0.13104  0.27162  Biso   1.000  H
  H57      1.0000 0.94452  0.04387  0.17832  Biso   1.000  H
  H58      1.0000 0.83481  0.02263  0.16508  Biso   1.000  H
  C49      1.0000 0.92093  0.91747  0.12251  Biso   1.000  C
  H59      1.0000 0.96843  0.29189  0.44410  Biso   1.000  H
  H60      1.0000 0.08864  0.31652  0.44390  Biso   1.000  H
  H61      1.0000 0.04963  0.19959  0.44249  Biso   1.000  H
  H62      1.0000 0.42261  0.61873  0.01998  Biso   1.000  H
  H63      1.0000 0.45547  0.71435  0.99168  Biso   1.000  H
  H64      1.0000 0.12541  0.24460  0.23980  Biso   1.000  H
  C50      1.0000 0.14340  0.45339  0.12321  Biso   1.000  C
  H65      1.0000 0.04732  0.38117  0.16500  Biso   1.000  H
  H66      1.0000 0.03773  0.49517  0.17919  Biso   1.000  H
  H67      1.0000 0.87475  0.85563  0.12069  Biso   1.000  H
  C51      1.0000 0.89922  0.95748  0.07269  Biso   1.000  C
  C52      1.0000 0.03315  0.87778  0.12739  Biso   1.000  C
  H68      1.0000 0.20358  0.40568  0.12168  Biso   1.000  H
  C53      1.0000 0.18400  0.56631  0.12979  Biso   1.000  C
  C54      1.0000 0.07419  0.41860  0.06988  Biso   1.000  C
  H69      1.0000 0.93858  0.02309  0.07451  Biso   1.000  H
  C55      1.0000 0.92680  0.87902  0.01990  Biso   1.000  C
  H70      1.0000 0.82537  0.97413  0.07009  Biso   1.000  H
  H71      1.0000 0.04195  0.84427  0.16020  Biso   1.000  H
  H72      1.0000 0.08201  0.93720  0.13190  Biso   1.000  H
  C56      1.0000 0.05443  0.79959  0.07538  Biso   1.000  C
  H73      1.0000 0.12690  0.61643  0.13662  Biso   1.000  H
  H74      1.0000 0.23495  0.58177  0.16140  Biso   1.000  H
  C57      1.0000 0.23464  0.57509  0.07538  Biso   1.000  C
  C58      1.0000 0.13039  0.42778  0.01940  Biso   1.000  C
  H75      1.0000 0.01219  0.46263  0.07162  Biso   1.000  H
  H76      1.0000 0.05181  0.34532  0.06760  Biso   1.000  H
  H77      1.0000 0.91789  0.91386  0.98759  Biso   1.000  H
  H78      1.0000 0.87785  0.81947  0.01440  Biso   1.000  H
  C59      1.0000 0.02822  0.83978  0.02151  Biso   1.000  C
  H79      1.0000 0.12806  0.78109  0.07642  Biso   1.000  H
  H80      1.0000 0.01406  0.73506  0.07509  Biso   1.000  H
  H81      1.0000 0.29846  0.53364  0.07331  Biso   1.000  H
  H82      1.0000 0.25492  0.64901  0.07729  Biso   1.000  H
  C60      1.0000 0.16959  0.53938  0.02139  Biso   1.000  C
  H83      1.0000 0.08405  0.40678  0.98622  Biso   1.000  H
  H84      1.0000 0.18935  0.37948  0.01622  Biso   1.000  H
  H85      1.0000 0.03563  0.78207  0.98949  Biso   1.000  H
  H86      1.0000 0.07754  0.89578  0.01808  Biso   1.000  H
  H87      1.0000 0.21173  0.54159  0.98920  Biso   1.000  H
  H88      1.0000 0.11082  0.58688  0.01969  Biso   1.000  H
  C61      1.0000 0.45349  0.45828  0.56711  Biso   1.000  C
  C62      1.0000 0.45929  0.47940  0.63062  Biso   1.000  C
  H89      1.0000 0.44420  0.38327  0.55321  Biso   1.000  H
  H90      1.0000 0.51732  0.48223  0.55370  Biso   1.000  H
  H91      1.0000 0.39539  0.49611  0.55391  Biso   1.000  H
  C63      1.0000 0.37501  0.43422  0.65689  Biso   1.000  C
  H92      1.0000 0.52342  0.44489  0.64170  Biso   1.000  H
  C64      1.0000 0.47223  0.59440  0.65589  Biso   1.000  C
  C65      1.0000 0.39533  0.38492  0.69971  Biso   1.000  C
  C66      1.0000 0.27718  0.42814  0.63380  Biso   1.000  C
  C67      1.0000 0.53131  0.63741  0.70211  Biso   1.000  C
  C68      1.0000 0.41553  0.67642  0.63359  Biso   1.000  C
  C69      1.0000 0.31484  0.33834  0.72809  Biso   1.000  C
  O9       1.0000 0.49148  0.38538  0.72731  Biso   1.000  O
  C70      1.0000 0.19051  0.37887  0.65738  Biso   1.000  C
  H93      1.0000 0.26395  0.45643  0.60141  Biso   1.000  H
  C71      1.0000 0.54371  0.73982  0.72668  Biso   1.000  C
  O10      1.0000 0.59229  0.56873  0.72590  Biso   1.000  O
  C72      1.0000 0.41572  0.78631  0.65701  Biso   1.000  C
  H94      1.0000 0.37472  0.65450  0.60041  Biso   1.000  H
  C73      1.0000 0.22159  0.33590  0.70380  Biso   1.000  C
  C74      1.0000 0.34634  0.28903  0.77418  Biso   1.000  C
  H95      1.0000 0.52065  0.44104  0.72681  Biso   1.000  H
  C75      1.0000 0.09065  0.37094  0.63210  Biso   1.000  C
  C76      1.0000 0.48350  0.81172  0.70029  Biso   1.000  C
  C77      1.0000 0.60870  0.78039  0.77381  Biso   1.000  C
  H96      1.0000 0.58060  0.57558  0.75962  Biso   1.000  H
  C78      1.0000 0.35215  0.85996  0.63078  Biso   1.000  C
  O11      1.0000 0.14139  0.28827  0.72511  Biso   1.000  O
  H97      1.0000 0.41013  0.24927  0.76562  Biso   1.000  H
  H98      1.0000 0.29234  0.23946  0.78018  Biso   1.000  H
  N5       1.0000 0.36500  0.37220  0.82681  Biso   1.000  N
  C79      1.0000 0.02873  0.46960  0.65780  Biso   1.000  C
  H99      1.0000 0.05683  0.30988  0.64361  Biso   1.000  H
  C80      1.0000 0.08430  0.34963  0.56938  Biso   1.000  C
  O12      1.0000 0.49881  0.91907  0.72908  Biso   1.000  O
  H100     1.0000 0.64964  0.83856  0.76479  Biso   1.000  H
  H101     1.0000 0.65742  0.72513  0.78001  Biso   1.000  H
  N6       1.0000 0.55855  0.81943  0.82702  Biso   1.000  N
  H102     1.0000 0.38791  0.92904  0.64220  Biso   1.000  H
  C81      1.0000 0.34474  0.83998  0.56549  Biso   1.000  C
  C82      1.0000 0.24590  0.87601  0.65581  Biso   1.000  C
  H103     1.0000 0.13489  0.31668  0.75821  Biso   1.000  H
  C83      1.0000 0.39699  0.32769  0.87670  Biso   1.000  C
  H104     1.0000 0.41462  0.41733  0.82081  Biso   1.000  H
  H105     1.0000 0.30644  0.40911  0.83380  Biso   1.000  H
  C84      1.0000 0.02839  0.56578  0.63500  Biso   1.000  C
  C85      1.0000 0.97304  0.47349  0.70422  Biso   1.000  C
  H106     1.0000 0.10730  0.41159  0.55610  Biso   1.000  H
  H107     1.0000 0.01309  0.33290  0.55610  Biso   1.000  H
  H108     1.0000 0.12834  0.29050  0.55548  Biso   1.000  H
  H109     1.0000 0.44442  0.95041  0.72859  Biso   1.000  H
  C86      1.0000 0.61693  0.86152  0.87650  Biso   1.000  C
  H110     1.0000 0.51333  0.86952  0.82052  Biso   1.000  H
  H111     1.0000 0.52040  0.76550  0.83438  Biso   1.000  H
  H112     1.0000 0.41383  0.83008  0.55138  Biso   1.000  H
  H113     1.0000 0.31353  0.90101  0.55329  Biso   1.000  H
  H114     1.0000 0.30255  0.77808  0.55138  Biso   1.000  H
  C87      1.0000 0.23376  0.95013  0.70021  Biso   1.000  C
  C88      1.0000 0.16065  0.81138  0.63351  Biso   1.000  C
  H115     1.0000 0.35058  0.26729  0.87832  Biso   1.000  H
  C89      1.0000 0.38571  0.40793  0.92821  Biso   1.000  C
  C90      1.0000 0.51253  0.28571  0.87141  Biso   1.000  C
  H116     1.0000 0.06690  0.56819  0.60339  Biso   1.000  H
  C91      1.0000 0.97152  0.65709  0.65879  Biso   1.000  C
  C92      1.0000 0.91331  0.56337  0.73049  Biso   1.000  C
  O13      1.0000 0.96109  0.38906  0.72838  Biso   1.000  O
  H117     1.0000 0.67794  0.81611  0.87931  Biso   1.000  H
  C93      1.0000 0.65842  0.98019  0.87480  Biso   1.000  C
  C94      1.0000 0.55990  0.86677  0.92610  Biso   1.000  C
  C95      1.0000 0.13785  0.96950  0.72681  Biso   1.000  C
  O14      1.0000 0.31699  0.01703  0.72478  Biso   1.000  O
  C96      1.0000 0.06400  0.82337  0.65618  Biso   1.000  C
  H118     1.0000 0.16949  0.75806  0.60198  Biso   1.000  H
  H119     1.0000 0.31338  0.43090  0.93049  Biso   1.000  H
  H120     1.0000 0.42924  0.46959  0.92689  Biso   1.000  H
  C97      1.0000 0.41774  0.36188  0.97939  Biso   1.000  C
  C98      1.0000 0.54080  0.24789  0.92329  Biso   1.000  C
  H121     1.0000 0.51662  0.22813  0.83910  Biso   1.000  H
  H122     1.0000 0.55974  0.34254  0.86661  Biso   1.000  H
  C99      1.0000 0.91473  0.65493  0.70500  Biso   1.000  C
  C100     1.0000 0.97246  0.75432  0.63310  Biso   1.000  C
  C101     1.0000 0.85103  0.55643  0.77621  Biso   1.000  C
  H123     1.0000 0.01904  0.36511  0.73529  Biso   1.000  H
  H124     1.0000 0.70044  0.97849  0.84220  Biso   1.000  H
  H125     1.0000 0.59911  0.02627  0.87128  Biso   1.000  H
  C102     1.0000 0.71903  0.02148  0.92441  Biso   1.000  C
  C103     1.0000 0.63046  0.91540  0.97890  Biso   1.000  C
  H126     1.0000 0.53693  0.79587  0.92929  Biso   1.000  H
  H127     1.0000 0.49832  0.91048  0.92391  Biso   1.000  H
  C104     1.0000 0.05315  0.89920  0.70128  Biso   1.000  C
  C105     1.0000 0.11240  0.04952  0.77509  Biso   1.000  C
  H128     1.0000 0.32416  0.01439  0.75858  Biso   1.000  H
  H129     1.0000 0.37065  0.30352  0.98200  Biso   1.000  H
  C106     1.0000 0.52894  0.32177  0.97699  Biso   1.000  C
  H130     1.0000 0.41147  0.41613  0.01311  Biso   1.000  H
  H131     1.0000 0.61351  0.22604  0.92180  Biso   1.000  H
  H132     1.0000 0.49890  0.18468  0.92391  Biso   1.000  H
  O15      1.0000 0.86334  0.74105  0.72582  Biso   1.000  O
  H133     1.0000 0.90985  0.79460  0.64551  Biso   1.000  H
  C107     1.0000 0.96593  0.73480  0.57000  Biso   1.000  C
  H134     1.0000 0.80980  0.49106  0.76789  Biso   1.000  H
  H135     1.0000 0.80313  0.61588  0.78208  Biso   1.000  H
  N7       1.0000 0.91654  0.55771  0.82718  Biso   1.000  N
  H136     1.0000 0.78182  0.97906  0.92548  Biso   1.000  H
  H137     1.0000 0.74077  0.09359  0.92292  Biso   1.000  H
  C108     1.0000 0.66346  0.02269  0.97670  Biso   1.000  C
  H138     1.0000 0.69165  0.87127  0.98101  Biso   1.000  H
  H139     1.0000 0.59191  0.91611  0.01262  Biso   1.000  H
  O16      1.0000 0.96295  0.92398  0.72822  Biso   1.000  O
  H140     1.0000 0.04629  0.08188  0.76682  Biso   1.000  H
  H141     1.0000 0.16592  0.10502  0.78109  Biso   1.000  H
  N8       1.0000 0.10429  0.00751  0.82772  Biso   1.000  N
  H142     1.0000 0.57744  0.38128  0.98001  Biso   1.000  H
  H143     1.0000 0.54459  0.28558  0.00831  Biso   1.000  H
  H144     1.0000 0.87465  0.75541  0.76020  Biso   1.000  H
  H145     1.0000 0.03163  0.70812  0.55589  Biso   1.000  H
  H146     1.0000 0.91142  0.68349  0.55610  Biso   1.000  H
  H147     1.0000 0.95042  0.80042  0.55751  Biso   1.000  H
  C109     1.0000 0.85665  0.54662  0.87679  Biso   1.000  C
  H148     1.0000 0.95273  0.61884  0.83500  Biso   1.000  H
  H149     1.0000 0.96232  0.50484  0.82081  Biso   1.000  H
  H150     1.0000 0.60291  0.06858  0.97741  Biso   1.000  H
  H151     1.0000 0.70960  0.05019  0.00918  Biso   1.000  H
  H152     1.0000 0.92946  0.86896  0.72838  Biso   1.000  H
  H153     1.0000 0.05553  0.95607  0.82172  Biso   1.000  H
  H154     1.0000 0.16525  0.97738  0.83492  Biso   1.000  H
  C110     1.0000 0.07912  0.08253  0.87749  Biso   1.000  C
  H155     1.0000 0.79640  0.59433  0.87832  Biso   1.000  H
  C111     1.0000 0.81598  0.43370  0.87021  Biso   1.000  C
  C112     1.0000 0.92579  0.58141  0.93012  Biso   1.000  C
  C113     1.0000 0.96691  0.12223  0.87261  Biso   1.000  C
  H156     1.0000 0.12530  0.14438  0.87931  Biso   1.000  H
  C114     1.0000 0.10076  0.04252  0.92730  Biso   1.000  C
  H157     1.0000 0.87308  0.38358  0.86338  Biso   1.000  H
  H158     1.0000 0.76510  0.41824  0.83860  Biso   1.000  H
  C115     1.0000 0.76542  0.42491  0.92462  Biso   1.000  C
  C116     1.0000 0.86959  0.57223  0.98059  Biso   1.000  C
  H159     1.0000 0.98779  0.53738  0.92838  Biso   1.000  H
  H160     1.0000 0.94824  0.65469  0.93239  Biso   1.000  H
  H161     1.0000 0.95810  0.15574  0.83980  Biso   1.000  H
  H162     1.0000 0.91797  0.06280  0.86810  Biso   1.000  H
  C117     1.0000 0.94562  0.20042  0.92462  Biso   1.000  C
  H163     1.0000 0.06140  0.97692  0.92548  Biso   1.000  H
  C118     1.0000 0.07318  0.12099  0.98010  Biso   1.000  C
  H164     1.0000 0.17468  0.02588  0.92991  Biso   1.000  H
  H165     1.0000 0.70160  0.46637  0.92668  Biso   1.000  H
  H166     1.0000 0.74514  0.35100  0.92271  Biso   1.000  H
  C119     1.0000 0.83039  0.46062  0.97861  Biso   1.000  C
  H167     1.0000 0.81071  0.62054  0.98382  Biso   1.000  H
  H168     1.0000 0.91601  0.59325  0.01382  Biso   1.000  H
  H169     1.0000 0.87199  0.21892  0.92358  Biso   1.000  H
  H170     1.0000 0.98600  0.26487  0.92490  Biso   1.000  H
  C120     1.0000 0.97183  0.16023  0.97848  Biso   1.000  C
  H171     1.0000 0.12221  0.18054  0.98560  Biso   1.000  H
  H172     1.0000 0.08217  0.08608  0.01241  Biso   1.000  H
  H173     1.0000 0.88924  0.41313  0.98030  Biso   1.000  H
  H174     1.0000 0.78833  0.45842  0.01080  Biso   1.000  H
  H175     1.0000 0.92251  0.10422  0.98192  Biso   1.000  H
  H176     1.0000 0.96442  0.21794  0.01051  Biso   1.000  H
