data_image0
_cell_length_a       19.506
_cell_length_b       19.814
_cell_length_c       12.951
_cell_angle_alpha    90
_cell_angle_beta     90
_cell_angle_gamma    90

_symmetry_space_group_name_H-M    "P 1"
_symmetry_int_tables_number       1

loop_
  _symmetry_equiv_pos_as_xyz
  'x, y, z'

loop_
  _atom_site_label
  _atom_site_occupancy
  _atom_site_fract_x
  _atom_site_fract_y
  _atom_site_fract_z
  _atom_site_thermal_displace_type
  _atom_site_B_iso_or_equiv
  _atom_site_type_symbol
  C1       1.0000 0.58582  0.39957  0.52567  Biso   1.000  C
  C2       1.0000 0.57798  0.38261  0.42252  Biso   1.000  C
  C3       1.0000 0.64678  0.43227  0.55386  Biso   1.000  C
  C4       1.0000 0.53548  0.37847  0.60768  Biso   1.000  C
  C5       1.0000 0.62658  0.39835  0.34762  Biso   1.000  C
  H1       1.0000 0.53860  0.35970  0.40236  Biso   1.000  H
  C6       1.0000 0.69758  0.44908  0.48328  Biso   1.000  C
  O1       1.0000 0.65590  0.45347  0.65563  Biso   1.000  O
  C7       1.0000 0.55788  0.31175  0.65377  Biso   1.000  C
  H2       1.0000 0.53999  0.41198  0.66296  Biso   1.000  H
  C8       1.0000 0.46119  0.38049  0.57463  Biso   1.000  C
  C9       1.0000 0.61750  0.37877  0.23581  Biso   1.000  C
  C10      1.0000 0.68589  0.43161  0.37997  Biso   1.000  C
  C11      1.0000 0.76212  0.48541  0.51610  Biso   1.000  C
  C12      1.0000 0.67928  0.40451  0.72635  Biso   1.000  C
  C13      1.0000 0.53691  0.24997  0.61416  Biso   1.000  C
  C14      1.0000 0.60392  0.31018  0.73577  Biso   1.000  C
  H3       1.0000 0.45160  0.42480  0.54598  Biso   1.000  H
  H4       1.0000 0.45448  0.34768  0.51988  Biso   1.000  H
  C15      1.0000 0.40921  0.36610  0.66026  Biso   1.000  C
  C16      1.0000 0.54378  0.37928  0.19867  Biso   1.000  C
  C17      1.0000 0.65431  0.31170  0.21790  Biso   1.000  C
  H5       1.0000 0.64201  0.41299  0.19497  Biso   1.000  H
  O2       1.0000 0.73393  0.45296  0.30669  Biso   1.000  O
  H6       1.0000 0.77571  0.51630  0.46290  Biso   1.000  H
  H7       1.0000 0.75361  0.50979  0.57880  Biso   1.000  H
  H8       1.0000 0.79801  0.45311  0.52737  Biso   1.000  H
  O3       1.0000 0.62678  0.37045  0.77909  Biso   1.000  O
  H9       1.0000 0.70881  0.42631  0.77662  Biso   1.000  H
  H10      1.0000 0.70681  0.37161  0.68937  Biso   1.000  H
  H11      1.0000 0.50718  0.24997  0.55803  Biso   1.000  H
  C18      1.0000 0.55788  0.18825  0.65377  Biso   1.000  C
  C19      1.0000 0.62653  0.24997  0.78040  Biso   1.000  C
  H12      1.0000 0.41900  0.32099  0.68898  Biso   1.000  H
  C20      1.0000 0.33790  0.36520  0.61478  Biso   1.000  C
  C21      1.0000 0.41198  0.41678  0.74820  Biso   1.000  C
  C22      1.0000 0.53332  0.36732  0.08339  Biso   1.000  C
  H13      1.0000 0.51871  0.34491  0.23628  Biso   1.000  H
  H14      1.0000 0.52369  0.42248  0.21643  Biso   1.000  H
  C23      1.0000 0.62150  0.24997  0.22979  Biso   1.000  C
  C24      1.0000 0.72429  0.30988  0.19551  Biso   1.000  C
  C25      1.0000 0.78150  0.40421  0.27048  Biso   1.000  C
  C26      1.0000 0.60392  0.18982  0.73577  Biso   1.000  C
  C27      1.0000 0.53548  0.12148  0.60768  Biso   1.000  C
  C28      1.0000 0.67338  0.24997  0.87298  Biso   1.000  C
  H15      1.0000 0.33590  0.33259  0.56011  Biso   1.000  H
  H16      1.0000 0.30539  0.35339  0.66752  Biso   1.000  H
  H17      1.0000 0.32698  0.40910  0.58799  Biso   1.000  H
  H18      1.0000 0.37650  0.40678  0.79716  Biso   1.000  H
  H19      1.0000 0.45581  0.41420  0.78156  Biso   1.000  H
  H20      1.0000 0.40531  0.46149  0.72126  Biso   1.000  H
  C29      1.0000 0.45719  0.36499  0.05853  Biso   1.000  C
  H21      1.0000 0.55301  0.32300  0.06602  Biso   1.000  H
  C30      1.0000 0.56931  0.41980  0.01822  Biso   1.000  C
  H22      1.0000 0.57521  0.24997  0.24670  Biso   1.000  H
  C31      1.0000 0.65431  0.18830  0.21790  Biso   1.000  C
  O4       1.0000 0.76054  0.37019  0.18068  Biso   1.000  O
  C32      1.0000 0.76110  0.24997  0.18431  Biso   1.000  C
  H23      1.0000 0.78919  0.37120  0.32461  Biso   1.000  H
  H24      1.0000 0.82487  0.42642  0.25681  Biso   1.000  H
  O5       1.0000 0.62678  0.12955  0.77909  Biso   1.000  O
  C33      1.0000 0.58582  0.10043  0.52567  Biso   1.000  C
  H25      1.0000 0.53999  0.08802  0.66296  Biso   1.000  H
  C34      1.0000 0.46119  0.11951  0.57463  Biso   1.000  C
  H26      1.0000 0.71691  0.23090  0.85407  Biso   1.000  H
  H27      1.0000 0.71691  0.26910  0.85407  Biso   1.000  H
  H28      1.0000 0.65329  0.22358  0.92726  Biso   1.000  H
  H29      1.0000 0.65329  0.27637  0.92726  Biso   1.000  H
  H30      1.0000 0.68000  0.29550  0.89661  Biso   1.000  H
  H31      1.0000 0.68000  0.20450  0.89661  Biso   1.000  H
  H32      1.0000 0.43612  0.40658  0.07953  Biso   1.000  H
  H33      1.0000 0.43628  0.32810  0.09482  Biso   1.000  H
  H34      1.0000 0.45109  0.35889  0.98556  Biso   1.000  H
  H35      1.0000 0.61750  0.41920  0.03312  Biso   1.000  H
  H36      1.0000 0.55101  0.46371  0.03367  Biso   1.000  H
  H37      1.0000 0.56219  0.40991  0.94641  Biso   1.000  H
  C35      1.0000 0.72429  0.19012  0.19551  Biso   1.000  C
  C36      1.0000 0.61750  0.12118  0.23581  Biso   1.000  C
  C37      1.0000 0.83682  0.24997  0.16339  Biso   1.000  C
  C38      1.0000 0.67928  0.09549  0.72635  Biso   1.000  C
  C39      1.0000 0.57798  0.11739  0.42252  Biso   1.000  C
  C40      1.0000 0.64678  0.06773  0.55386  Biso   1.000  C
  H38      1.0000 0.45160  0.07520  0.54598  Biso   1.000  H
  H39      1.0000 0.45448  0.15232  0.51988  Biso   1.000  H
  C41      1.0000 0.40921  0.13390  0.66026  Biso   1.000  C
  O6       1.0000 0.76054  0.12981  0.18068  Biso   1.000  O
  C42      1.0000 0.62658  0.10165  0.34762  Biso   1.000  C
  H40      1.0000 0.64201  0.08701  0.19497  Biso   1.000  H
  C43      1.0000 0.54378  0.12072  0.19867  Biso   1.000  C
  O7       1.0000 0.89388  0.24997  0.23226  Biso   1.000  O
  H41      1.0000 0.84420  0.21101  0.11953  Biso   1.000  H
  H42      1.0000 0.84420  0.28899  0.11953  Biso   1.000  H
  O8       1.0000 0.65590  0.04653  0.65563  Biso   1.000  O
  H43      1.0000 0.70881  0.07369  0.77662  Biso   1.000  H
  H44      1.0000 0.70681  0.12839  0.68937  Biso   1.000  H
  H45      1.0000 0.53860  0.14030  0.40236  Biso   1.000  H
  C44      1.0000 0.69758  0.05092  0.48328  Biso   1.000  C
  H46      1.0000 0.41900  0.17901  0.68898  Biso   1.000  H
  C45      1.0000 0.33790  0.13480  0.61478  Biso   1.000  C
  C46      1.0000 0.41198  0.08317  0.74820  Biso   1.000  C
  C47      1.0000 0.78150  0.09579  0.27048  Biso   1.000  C
  C48      1.0000 0.68589  0.06834  0.37997  Biso   1.000  C
  H47      1.0000 0.51871  0.15509  0.23628  Biso   1.000  H
  H48      1.0000 0.52369  0.07752  0.21643  Biso   1.000  H
  C49      1.0000 0.53332  0.13268  0.08339  Biso   1.000  C
  H49      1.0000 0.92961  0.24997  0.19898  Biso   1.000  H
  C50      1.0000 0.76212  0.01459  0.51610  Biso   1.000  C
  H50      1.0000 0.33590  0.16741  0.56011  Biso   1.000  H
  H51      1.0000 0.30539  0.14661  0.66752  Biso   1.000  H
  H52      1.0000 0.32698  0.09090  0.58799  Biso   1.000  H
  H53      1.0000 0.37650  0.09322  0.79716  Biso   1.000  H
  H54      1.0000 0.45581  0.08580  0.78156  Biso   1.000  H
  H55      1.0000 0.40531  0.03851  0.72126  Biso   1.000  H
  O9       1.0000 0.73393  0.04704  0.30669  Biso   1.000  O
  H56      1.0000 0.78919  0.12880  0.32461  Biso   1.000  H
  H57      1.0000 0.82487  0.07358  0.25681  Biso   1.000  H
  H58      1.0000 0.55301  0.17700  0.06602  Biso   1.000  H
  C51      1.0000 0.56931  0.08020  0.01822  Biso   1.000  C
  C52      1.0000 0.45719  0.13501  0.05853  Biso   1.000  C
  H59      1.0000 0.79801  0.04689  0.52737  Biso   1.000  H
  H60      1.0000 0.77571  0.98370  0.46290  Biso   1.000  H
  H61      1.0000 0.75361  0.99016  0.57880  Biso   1.000  H
  H62      1.0000 0.61750  0.08080  0.03312  Biso   1.000  H
  H63      1.0000 0.55101  0.03629  0.03367  Biso   1.000  H
  H64      1.0000 0.56219  0.09009  0.94641  Biso   1.000  H
  H65      1.0000 0.43612  0.09342  0.07953  Biso   1.000  H
  H66      1.0000 0.43628  0.17190  0.09482  Biso   1.000  H
  H67      1.0000 0.45109  0.14111  0.98556  Biso   1.000  H
  C53      1.0000 0.41418  0.60038  0.47433  Biso   1.000  C
  C54      1.0000 0.35322  0.56773  0.44607  Biso   1.000  C
  C55      1.0000 0.42202  0.61739  0.57748  Biso   1.000  C
  C56      1.0000 0.46452  0.62148  0.39232  Biso   1.000  C
  C57      1.0000 0.30242  0.55087  0.51672  Biso   1.000  C
  O10      1.0000 0.34410  0.54653  0.34437  Biso   1.000  O
  C58      1.0000 0.37342  0.60165  0.65238  Biso   1.000  C
  H68      1.0000 0.46140  0.64030  0.59756  Biso   1.000  H
  C59      1.0000 0.44212  0.68825  0.34623  Biso   1.000  C
  H69      1.0000 0.46001  0.58797  0.33696  Biso   1.000  H
  C60      1.0000 0.53881  0.61951  0.42537  Biso   1.000  C
  C61      1.0000 0.23788  0.51459  0.48390  Biso   1.000  C
  C62      1.0000 0.31411  0.56834  0.61995  Biso   1.000  C
  C63      1.0000 0.32072  0.59549  0.27357  Biso   1.000  C
  C64      1.0000 0.38250  0.62118  0.76419  Biso   1.000  C
  C65      1.0000 0.39608  0.68976  0.26423  Biso   1.000  C
  C66      1.0000 0.46309  0.74997  0.38576  Biso   1.000  C
  H70      1.0000 0.54840  0.57520  0.45402  Biso   1.000  H
  H71      1.0000 0.54552  0.65227  0.48012  Biso   1.000  H
  C67      1.0000 0.59079  0.63390  0.33966  Biso   1.000  C
  H72      1.0000 0.22429  0.48370  0.53710  Biso   1.000  H
  H73      1.0000 0.24639  0.49021  0.42120  Biso   1.000  H
  H74      1.0000 0.20199  0.54689  0.47263  Biso   1.000  H
  O11      1.0000 0.26607  0.54704  0.69331  Biso   1.000  O
  O12      1.0000 0.37322  0.62955  0.22091  Biso   1.000  O
  H75      1.0000 0.29119  0.57369  0.22338  Biso   1.000  H
  H76      1.0000 0.29319  0.62839  0.31063  Biso   1.000  H
  C68      1.0000 0.34569  0.68830  0.78210  Biso   1.000  C
  H77      1.0000 0.35799  0.58701  0.80496  Biso   1.000  H
  C69      1.0000 0.45622  0.62067  0.80125  Biso   1.000  C
  C70      1.0000 0.37347  0.74997  0.21960  Biso   1.000  C
  H78      1.0000 0.49282  0.74997  0.44197  Biso   1.000  H
  C71      1.0000 0.44212  0.81170  0.34623  Biso   1.000  C
  H79      1.0000 0.58100  0.67896  0.31102  Biso   1.000  H
  C72      1.0000 0.66210  0.63480  0.38522  Biso   1.000  C
  C73      1.0000 0.58802  0.58317  0.25180  Biso   1.000  C
  C74      1.0000 0.21850  0.59579  0.72952  Biso   1.000  C
  C75      1.0000 0.27571  0.69007  0.80449  Biso   1.000  C
  C76      1.0000 0.37850  0.74997  0.77021  Biso   1.000  C
  H80      1.0000 0.48129  0.65509  0.76372  Biso   1.000  H
  H81      1.0000 0.47631  0.57747  0.78357  Biso   1.000  H
  C77      1.0000 0.46668  0.63268  0.91661  Biso   1.000  C
  C78      1.0000 0.39608  0.81018  0.26423  Biso   1.000  C
  C79      1.0000 0.32662  0.74997  0.12702  Biso   1.000  C
  C80      1.0000 0.46452  0.87847  0.39232  Biso   1.000  C
  H82      1.0000 0.66410  0.66741  0.43989  Biso   1.000  H
  H83      1.0000 0.69461  0.64656  0.33248  Biso   1.000  H
  H84      1.0000 0.67302  0.59090  0.41201  Biso   1.000  H
  H85      1.0000 0.62350  0.59317  0.20276  Biso   1.000  H
  H86      1.0000 0.54419  0.58580  0.21836  Biso   1.000  H
  H87      1.0000 0.59469  0.53851  0.27867  Biso   1.000  H
  O13      1.0000 0.23946  0.62981  0.81932  Biso   1.000  O
  H88      1.0000 0.21081  0.62880  0.67539  Biso   1.000  H
  H89      1.0000 0.17513  0.57358  0.74319  Biso   1.000  H
  C81      1.0000 0.23890  0.74997  0.81569  Biso   1.000  C
  H90      1.0000 0.42479  0.74997  0.75330  Biso   1.000  H
  C82      1.0000 0.34569  0.81170  0.78210  Biso   1.000  C
  H91      1.0000 0.44699  0.67700  0.93398  Biso   1.000  H
  C83      1.0000 0.43069  0.58020  0.98178  Biso   1.000  C
  C84      1.0000 0.54281  0.63501  0.94147  Biso   1.000  C
  O14      1.0000 0.37322  0.87039  0.22091  Biso   1.000  O
  H92      1.0000 0.28309  0.73090  0.14593  Biso   1.000  H
  H93      1.0000 0.28309  0.76910  0.14593  Biso   1.000  H
  H94      1.0000 0.34671  0.72358  0.07274  Biso   1.000  H
  H95      1.0000 0.34671  0.77637  0.07274  Biso   1.000  H
  H96      1.0000 0.32000  0.79550  0.10339  Biso   1.000  H
  H97      1.0000 0.32000  0.70450  0.10339  Biso   1.000  H
  C85      1.0000 0.41418  0.89957  0.47433  Biso   1.000  C
  H98      1.0000 0.46001  0.91198  0.33696  Biso   1.000  H
  C86      1.0000 0.53881  0.88049  0.42537  Biso   1.000  C
  C87      1.0000 0.27571  0.80988  0.80449  Biso   1.000  C
  C88      1.0000 0.16318  0.74997  0.83661  Biso   1.000  C
  C89      1.0000 0.38250  0.87877  0.76419  Biso   1.000  C
  H99      1.0000 0.38250  0.58080  0.96688  Biso   1.000  H
  H100     1.0000 0.44899  0.53629  0.96626  Biso   1.000  H
  H101     1.0000 0.43781  0.59009  0.05359  Biso   1.000  H
  H102     1.0000 0.56388  0.59337  0.92047  Biso   1.000  H
  H103     1.0000 0.56372  0.67190  0.90518  Biso   1.000  H
  H104     1.0000 0.54891  0.64106  0.01436  Biso   1.000  H
  C90      1.0000 0.32072  0.90446  0.27357  Biso   1.000  C
  C91      1.0000 0.35322  0.93222  0.44607  Biso   1.000  C
  C92      1.0000 0.42202  0.88261  0.57748  Biso   1.000  C
  H105     1.0000 0.54840  0.92480  0.45402  Biso   1.000  H
  H106     1.0000 0.54552  0.84768  0.48012  Biso   1.000  H
  C93      1.0000 0.59079  0.86610  0.33966  Biso   1.000  C
  O15      1.0000 0.23946  0.87019  0.81932  Biso   1.000  O
  O16      1.0000 0.10612  0.74997  0.76766  Biso   1.000  O
  H107     1.0000 0.15580  0.71096  0.88047  Biso   1.000  H
  H108     1.0000 0.15580  0.78899  0.88047  Biso   1.000  H
  C94      1.0000 0.37342  0.89835  0.65238  Biso   1.000  C
  H109     1.0000 0.35799  0.91299  0.80496  Biso   1.000  H
  C95      1.0000 0.45622  0.87928  0.80125  Biso   1.000  C
  O17      1.0000 0.34410  0.95347  0.34437  Biso   1.000  O
  H110     1.0000 0.29119  0.92626  0.22338  Biso   1.000  H
  H111     1.0000 0.29319  0.87161  0.31063  Biso   1.000  H
  C96      1.0000 0.30242  0.94908  0.51672  Biso   1.000  C
  H112     1.0000 0.46140  0.85970  0.59756  Biso   1.000  H
  H113     1.0000 0.58100  0.82099  0.31102  Biso   1.000  H
  C97      1.0000 0.66210  0.86520  0.38522  Biso   1.000  C
  C98      1.0000 0.58802  0.91678  0.25180  Biso   1.000  C
  C99      1.0000 0.21850  0.90416  0.72952  Biso   1.000  C
  H114     1.0000 0.07039  0.74997  0.80102  Biso   1.000  H
  C100     1.0000 0.31411  0.93161  0.61995  Biso   1.000  C
  H115     1.0000 0.48129  0.84491  0.76372  Biso   1.000  H
  H116     1.0000 0.47631  0.92248  0.78357  Biso   1.000  H
  C101     1.0000 0.46668  0.86727  0.91661  Biso   1.000  C
  C102     1.0000 0.23788  0.98536  0.48390  Biso   1.000  C
  H117     1.0000 0.66410  0.83259  0.43989  Biso   1.000  H
  H118     1.0000 0.69461  0.85339  0.33248  Biso   1.000  H
  H119     1.0000 0.67302  0.90910  0.41201  Biso   1.000  H
  H120     1.0000 0.62350  0.90678  0.20276  Biso   1.000  H
  H121     1.0000 0.54419  0.91420  0.21836  Biso   1.000  H
  H122     1.0000 0.59469  0.96149  0.27867  Biso   1.000  H
  O18      1.0000 0.26607  0.95291  0.69331  Biso   1.000  O
  H123     1.0000 0.21081  0.87120  0.67539  Biso   1.000  H
  H124     1.0000 0.17513  0.92637  0.74319  Biso   1.000  H
  H125     1.0000 0.44699  0.82300  0.93398  Biso   1.000  H
  C103     1.0000 0.43069  0.91980  0.98178  Biso   1.000  C
  C104     1.0000 0.54281  0.86499  0.94147  Biso   1.000  C
  H126     1.0000 0.20199  0.95306  0.47263  Biso   1.000  H
  H127     1.0000 0.22429  0.01630  0.53710  Biso   1.000  H
  H128     1.0000 0.24639  0.00979  0.42120  Biso   1.000  H
  H129     1.0000 0.38250  0.91920  0.96688  Biso   1.000  H
  H130     1.0000 0.44899  0.96366  0.96626  Biso   1.000  H
  H131     1.0000 0.43781  0.90986  0.05359  Biso   1.000  H
  H132     1.0000 0.56388  0.90658  0.92047  Biso   1.000  H
  H133     1.0000 0.56372  0.82810  0.90518  Biso   1.000  H
  H134     1.0000 0.54891  0.85889  0.01436  Biso   1.000  H
  O19      1.0000 0.73946  0.62981  0.68072  Biso   1.000  O
  C105     1.0000 0.71850  0.59579  0.77052  Biso   1.000  C
  C106     1.0000 0.77571  0.69007  0.69547  Biso   1.000  C
  O20      1.0000 0.76607  0.54704  0.80666  Biso   1.000  O
  H135     1.0000 0.71081  0.62880  0.82457  Biso   1.000  H
  H136     1.0000 0.67513  0.57358  0.75678  Biso   1.000  H
  C107     1.0000 0.84569  0.68830  0.71786  Biso   1.000  C
  C108     1.0000 0.73890  0.74997  0.68427  Biso   1.000  C
  C109     1.0000 0.81411  0.56834  0.88001  Biso   1.000  C
  C110     1.0000 0.88250  0.62118  0.73577  Biso   1.000  C
  C111     1.0000 0.87850  0.74997  0.72975  Biso   1.000  C
  C112     1.0000 0.77571  0.80988  0.69547  Biso   1.000  C
  C113     1.0000 0.66318  0.74997  0.66342  Biso   1.000  C
  C114     1.0000 0.80242  0.55087  0.98332  Biso   1.000  C
  C115     1.0000 0.87342  0.60165  0.84758  Biso   1.000  C
  H137     1.0000 0.85799  0.58701  0.69500  Biso   1.000  H
  C116     1.0000 0.95622  0.62067  0.69871  Biso   1.000  C
  H138     1.0000 0.92479  0.74997  0.74666  Biso   1.000  H
  C117     1.0000 0.84569  0.81170  0.71786  Biso   1.000  C
  O21      1.0000 0.73946  0.87019  0.68072  Biso   1.000  O
  O22      1.0000 0.60612  0.74997  0.73230  Biso   1.000  O
  H139     1.0000 0.65580  0.78899  0.61949  Biso   1.000  H
  H140     1.0000 0.65580  0.71096  0.61949  Biso   1.000  H
  C118     1.0000 0.85322  0.56773  0.05390  Biso   1.000  C
  C119     1.0000 0.73788  0.51459  0.01614  Biso   1.000  C
  C120     1.0000 0.92202  0.61739  0.92248  Biso   1.000  C
  H141     1.0000 0.98129  0.65509  0.73631  Biso   1.000  H
  H142     1.0000 0.97631  0.57747  0.71639  Biso   1.000  H
  C121     1.0000 0.96668  0.63268  0.58335  Biso   1.000  C
  C122     1.0000 0.88250  0.87877  0.73577  Biso   1.000  C
  C123     1.0000 0.71850  0.90416  0.77052  Biso   1.000  C
  H143     1.0000 0.57039  0.74997  0.69902  Biso   1.000  H
  O23      1.0000 0.84410  0.54653  0.15559  Biso   1.000  O
  C124     1.0000 0.91418  0.60038  0.02571  Biso   1.000  C
  H144     1.0000 0.72429  0.48370  0.96286  Biso   1.000  H
  H145     1.0000 0.74639  0.49021  0.07884  Biso   1.000  H
  H146     1.0000 0.70199  0.54689  0.02741  Biso   1.000  H
  H147     1.0000 0.96140  0.64030  0.90240  Biso   1.000  H
  H148     1.0000 0.94699  0.67700  0.56598  Biso   1.000  H
  C125     1.0000 0.93069  0.58020  0.51818  Biso   1.000  C
  C126     1.0000 0.04281  0.63501  0.55849  Biso   1.000  C
  C127     1.0000 0.87342  0.89835  0.84758  Biso   1.000  C
  H149     1.0000 0.85799  0.91299  0.69500  Biso   1.000  H
  C128     1.0000 0.95622  0.87928  0.69871  Biso   1.000  C
  O24      1.0000 0.76607  0.95291  0.80666  Biso   1.000  O
  H150     1.0000 0.71081  0.87120  0.82457  Biso   1.000  H
  H151     1.0000 0.67513  0.92637  0.75678  Biso   1.000  H
  C129     1.0000 0.82072  0.59549  0.22639  Biso   1.000  C
  C130     1.0000 0.96452  0.62148  0.10771  Biso   1.000  C
  H152     1.0000 0.88250  0.58080  0.53309  Biso   1.000  H
  H153     1.0000 0.93781  0.59009  0.44637  Biso   1.000  H
  H154     1.0000 0.94899  0.53629  0.53370  Biso   1.000  H
  H155     1.0000 0.06388  0.59337  0.57949  Biso   1.000  H
  H156     1.0000 0.04891  0.64106  0.48560  Biso   1.000  H
  H157     1.0000 0.06372  0.67190  0.59478  Biso   1.000  H
  C131     1.0000 0.81411  0.93161  0.88001  Biso   1.000  C
  C132     1.0000 0.92202  0.88261  0.92248  Biso   1.000  C
  H158     1.0000 0.98129  0.84491  0.73631  Biso   1.000  H
  H159     1.0000 0.97631  0.92248  0.71639  Biso   1.000  H
  C133     1.0000 0.96668  0.86727  0.58335  Biso   1.000  C
  O25      1.0000 0.87322  0.62955  0.27913  Biso   1.000  O
  H160     1.0000 0.79119  0.57369  0.27658  Biso   1.000  H
  H161     1.0000 0.79319  0.62839  0.18941  Biso   1.000  H
  C134     1.0000 0.94212  0.68825  0.15381  Biso   1.000  C
  H162     1.0000 0.96001  0.58797  0.16300  Biso   1.000  H
  C135     1.0000 0.03881  0.61951  0.07459  Biso   1.000  C
  C136     1.0000 0.80242  0.94908  0.98332  Biso   1.000  C
  H163     1.0000 0.96140  0.85970  0.90240  Biso   1.000  H
  C137     1.0000 0.91418  0.89957  0.02571  Biso   1.000  C
  H164     1.0000 0.94699  0.82300  0.56598  Biso   1.000  H
  C138     1.0000 0.93069  0.91980  0.51818  Biso   1.000  C
  C139     1.0000 0.04281  0.86499  0.55849  Biso   1.000  C
  C140     1.0000 0.89608  0.68976  0.23581  Biso   1.000  C
  C141     1.0000 0.96309  0.74997  0.11420  Biso   1.000  C
  H165     1.0000 0.04840  0.57520  0.04602  Biso   1.000  H
  H166     1.0000 0.04552  0.65227  0.01992  Biso   1.000  H
  C142     1.0000 0.09079  0.63390  0.16030  Biso   1.000  C
  C143     1.0000 0.85322  0.93222  0.05390  Biso   1.000  C
  C144     1.0000 0.73788  0.98536  0.01614  Biso   1.000  C
  C145     1.0000 0.96452  0.87847  0.10771  Biso   1.000  C
  H167     1.0000 0.88250  0.91920  0.53309  Biso   1.000  H
  H168     1.0000 0.93781  0.90986  0.44637  Biso   1.000  H
  H169     1.0000 0.94899  0.96366  0.53370  Biso   1.000  H
  H170     1.0000 0.06388  0.90658  0.57949  Biso   1.000  H
  H171     1.0000 0.04891  0.85889  0.48560  Biso   1.000  H
  H172     1.0000 0.06372  0.82810  0.59478  Biso   1.000  H
  C146     1.0000 0.87347  0.74997  0.28036  Biso   1.000  C
  H173     1.0000 0.99282  0.74997  0.05799  Biso   1.000  H
  C147     1.0000 0.94212  0.81170  0.15381  Biso   1.000  C
  H174     1.0000 0.08100  0.67896  0.18902  Biso   1.000  H
  C148     1.0000 0.16210  0.63480  0.11482  Biso   1.000  C
  C149     1.0000 0.08802  0.58317  0.24817  Biso   1.000  C
  O26      1.0000 0.84410  0.95347  0.15559  Biso   1.000  O
  H175     1.0000 0.70199  0.95306  0.02741  Biso   1.000  H
  H176     1.0000 0.72429  0.01630  0.96286  Biso   1.000  H
  H177     1.0000 0.74639  0.00979  0.07884  Biso   1.000  H
  H178     1.0000 0.96001  0.91198  0.16300  Biso   1.000  H
  C150     1.0000 0.03881  0.88049  0.07459  Biso   1.000  C
  C151     1.0000 0.89608  0.81018  0.23581  Biso   1.000  C
  C152     1.0000 0.82662  0.74997  0.37302  Biso   1.000  C
  H179     1.0000 0.16410  0.66741  0.06007  Biso   1.000  H
  H180     1.0000 0.19461  0.64656  0.16748  Biso   1.000  H
  H181     1.0000 0.17302  0.59090  0.08802  Biso   1.000  H
  H182     1.0000 0.12350  0.59317  0.29720  Biso   1.000  H
  H183     1.0000 0.04419  0.58580  0.28160  Biso   1.000  H
  H184     1.0000 0.09469  0.53851  0.22130  Biso   1.000  H
  C153     1.0000 0.82072  0.90446  0.22639  Biso   1.000  C
  H185     1.0000 0.04840  0.92480  0.04602  Biso   1.000  H
  H186     1.0000 0.04552  0.84768  0.01992  Biso   1.000  H
  C154     1.0000 0.09079  0.86610  0.16030  Biso   1.000  C
  O27      1.0000 0.87322  0.87039  0.27913  Biso   1.000  O
  H187     1.0000 0.78309  0.76910  0.35410  Biso   1.000  H
  H188     1.0000 0.78309  0.73090  0.35410  Biso   1.000  H
  H189     1.0000 0.84671  0.77637  0.42730  Biso   1.000  H
  H190     1.0000 0.84671  0.72358  0.42730  Biso   1.000  H
  H191     1.0000 0.82000  0.70450  0.39657  Biso   1.000  H
  H192     1.0000 0.82000  0.79550  0.39657  Biso   1.000  H
  H193     1.0000 0.79119  0.92626  0.27658  Biso   1.000  H
  H194     1.0000 0.79319  0.87161  0.18941  Biso   1.000  H
  H195     1.0000 0.08100  0.82099  0.18902  Biso   1.000  H
  C155     1.0000 0.16210  0.86520  0.11482  Biso   1.000  C
  C156     1.0000 0.08802  0.91678  0.24817  Biso   1.000  C
  H196     1.0000 0.16410  0.83259  0.06007  Biso   1.000  H
  H197     1.0000 0.19461  0.85339  0.16748  Biso   1.000  H
  H198     1.0000 0.17302  0.90910  0.08802  Biso   1.000  H
  H199     1.0000 0.12350  0.90678  0.29720  Biso   1.000  H
  H200     1.0000 0.04419  0.91420  0.28160  Biso   1.000  H
  H201     1.0000 0.09469  0.96149  0.22130  Biso   1.000  H
  O28      1.0000 0.26054  0.37019  0.31928  Biso   1.000  O
  C157     1.0000 0.22429  0.30988  0.30453  Biso   1.000  C
  C158     1.0000 0.28150  0.40421  0.22948  Biso   1.000  C
  C159     1.0000 0.26110  0.24997  0.31573  Biso   1.000  C
  C160     1.0000 0.15431  0.31170  0.28206  Biso   1.000  C
  O29      1.0000 0.23393  0.45296  0.19327  Biso   1.000  O
  H202     1.0000 0.28919  0.37120  0.17543  Biso   1.000  H
  H203     1.0000 0.32487  0.42642  0.24322  Biso   1.000  H
  C161     1.0000 0.22429  0.19012  0.30453  Biso   1.000  C
  C162     1.0000 0.33682  0.24997  0.33658  Biso   1.000  C
  C163     1.0000 0.12150  0.24997  0.27017  Biso   1.000  C
  C164     1.0000 0.11750  0.37877  0.26423  Biso   1.000  C
  C165     1.0000 0.18589  0.43161  0.11999  Biso   1.000  C
  O30      1.0000 0.26054  0.12981  0.31928  Biso   1.000  O
  C166     1.0000 0.15431  0.18830  0.28206  Biso   1.000  C
  O31      1.0000 0.39388  0.24997  0.26770  Biso   1.000  O
  H204     1.0000 0.34420  0.28899  0.38051  Biso   1.000  H
  H205     1.0000 0.34420  0.21101  0.38051  Biso   1.000  H
  H206     1.0000 0.07521  0.24997  0.25326  Biso   1.000  H
  C167     1.0000 0.12658  0.39835  0.15242  Biso   1.000  C
  H207     1.0000 0.14201  0.41299  0.30500  Biso   1.000  H
  C168     1.0000 0.04378  0.37928  0.30129  Biso   1.000  C
  C169     1.0000 0.19758  0.44908  0.01668  Biso   1.000  C
  C170     1.0000 0.28150  0.09579  0.22948  Biso   1.000  C
  C171     1.0000 0.11750  0.12118  0.26423  Biso   1.000  C
  H208     1.0000 0.42961  0.24997  0.30098  Biso   1.000  H
  C172     1.0000 0.07798  0.38261  0.07752  Biso   1.000  C
  H209     1.0000 0.01871  0.34491  0.26369  Biso   1.000  H
  H210     1.0000 0.02369  0.42248  0.28361  Biso   1.000  H
  C173     1.0000 0.03332  0.36732  0.41657  Biso   1.000  C
  C174     1.0000 0.14678  0.43227  0.94610  Biso   1.000  C
  C175     1.0000 0.26212  0.48541  0.98386  Biso   1.000  C
  O32      1.0000 0.23393  0.04704  0.19327  Biso   1.000  O
  H211     1.0000 0.28919  0.12880  0.17543  Biso   1.000  H
  H212     1.0000 0.32487  0.07358  0.24322  Biso   1.000  H
  C176     1.0000 0.12658  0.10165  0.15242  Biso   1.000  C
  H213     1.0000 0.14201  0.08701  0.30500  Biso   1.000  H
  C177     1.0000 0.04378  0.12072  0.30129  Biso   1.000  C
  H214     1.0000 0.03860  0.35970  0.09760  Biso   1.000  H
  C178     1.0000 0.08582  0.39957  0.97429  Biso   1.000  C
  H215     1.0000 0.05301  0.32300  0.43402  Biso   1.000  H
  C179     1.0000 0.06931  0.41980  0.48182  Biso   1.000  C
  C180     1.0000 0.95719  0.36499  0.44151  Biso   1.000  C
  O33      1.0000 0.15590  0.45347  0.84441  Biso   1.000  O
  H216     1.0000 0.27571  0.51630  0.03706  Biso   1.000  H
  H217     1.0000 0.25361  0.50979  0.92116  Biso   1.000  H
  H218     1.0000 0.29801  0.45311  0.97259  Biso   1.000  H
  C181     1.0000 0.18589  0.06834  0.11999  Biso   1.000  C
  C182     1.0000 0.07798  0.11739  0.07752  Biso   1.000  C
  H219     1.0000 0.01871  0.15509  0.26369  Biso   1.000  H
  H220     1.0000 0.02369  0.07752  0.28361  Biso   1.000  H
  C183     1.0000 0.03332  0.13268  0.41657  Biso   1.000  C
  C184     1.0000 0.03548  0.37847  0.89229  Biso   1.000  C
  H221     1.0000 0.11750  0.41920  0.46691  Biso   1.000  H
  H222     1.0000 0.06219  0.40991  0.55363  Biso   1.000  H
  H223     1.0000 0.05101  0.46371  0.46630  Biso   1.000  H
  H224     1.0000 0.93612  0.40658  0.42051  Biso   1.000  H
  H225     1.0000 0.95109  0.35889  0.51440  Biso   1.000  H
  H226     1.0000 0.93628  0.32810  0.40522  Biso   1.000  H
  C185     1.0000 0.17928  0.40451  0.77361  Biso   1.000  C
  C186     1.0000 0.19758  0.05092  0.01668  Biso   1.000  C
  H227     1.0000 0.03860  0.14030  0.09760  Biso   1.000  H
  C187     1.0000 0.08582  0.10043  0.97429  Biso   1.000  C
  H228     1.0000 0.05301  0.17700  0.43402  Biso   1.000  H
  C188     1.0000 0.06931  0.08020  0.48182  Biso   1.000  C
  C189     1.0000 0.95719  0.13501  0.44151  Biso   1.000  C
  C190     1.0000 0.96119  0.38049  0.92541  Biso   1.000  C
  C191     1.0000 0.05788  0.31175  0.84619  Biso   1.000  C
  H229     1.0000 0.03999  0.41198  0.83700  Biso   1.000  H
  O34      1.0000 0.12678  0.37045  0.72087  Biso   1.000  O
  H230     1.0000 0.20881  0.42631  0.72342  Biso   1.000  H
  H231     1.0000 0.20681  0.37161  0.81059  Biso   1.000  H
  C192     1.0000 0.14678  0.06773  0.94610  Biso   1.000  C
  C193     1.0000 0.26212  0.01459  0.98386  Biso   1.000  C
  C194     1.0000 0.03548  0.12148  0.89229  Biso   1.000  C
  H232     1.0000 0.11750  0.08080  0.46691  Biso   1.000  H
  H233     1.0000 0.06219  0.09009  0.55363  Biso   1.000  H
  H234     1.0000 0.05101  0.03629  0.46630  Biso   1.000  H
  H235     1.0000 0.93612  0.09342  0.42051  Biso   1.000  H
  H236     1.0000 0.95109  0.14111  0.51440  Biso   1.000  H
  H237     1.0000 0.93628  0.17190  0.40522  Biso   1.000  H
  H238     1.0000 0.95160  0.42480  0.95398  Biso   1.000  H
  H239     1.0000 0.95448  0.34768  0.98008  Biso   1.000  H
  C195     1.0000 0.90921  0.36610  0.83970  Biso   1.000  C
  C196     1.0000 0.03691  0.24997  0.88580  Biso   1.000  C
  C197     1.0000 0.10392  0.31018  0.76419  Biso   1.000  C
  O35      1.0000 0.15590  0.04653  0.84441  Biso   1.000  O
  H240     1.0000 0.25361  0.99016  0.92116  Biso   1.000  H
  H241     1.0000 0.27571  0.98370  0.03706  Biso   1.000  H
  H242     1.0000 0.29801  0.04689  0.97259  Biso   1.000  H
  C198     1.0000 0.96119  0.11951  0.92541  Biso   1.000  C
  C199     1.0000 0.05788  0.18825  0.84619  Biso   1.000  C
  H243     1.0000 0.03999  0.08802  0.83700  Biso   1.000  H
  H244     1.0000 0.91900  0.32099  0.81098  Biso   1.000  H
  C200     1.0000 0.83790  0.36520  0.88518  Biso   1.000  C
  C201     1.0000 0.91198  0.41678  0.75176  Biso   1.000  C
  H245     1.0000 0.00718  0.24997  0.94201  Biso   1.000  H
  C202     1.0000 0.12653  0.24997  0.71956  Biso   1.000  C
  C203     1.0000 0.17928  0.09549  0.77361  Biso   1.000  C
  H246     1.0000 0.95160  0.07520  0.95398  Biso   1.000  H
  H247     1.0000 0.95448  0.15232  0.98008  Biso   1.000  H
  C204     1.0000 0.90921  0.13390  0.83970  Biso   1.000  C
  C205     1.0000 0.10392  0.18982  0.76419  Biso   1.000  C
  H248     1.0000 0.83590  0.33259  0.93985  Biso   1.000  H
  H249     1.0000 0.80539  0.35339  0.83252  Biso   1.000  H
  H250     1.0000 0.82698  0.40910  0.91198  Biso   1.000  H
  H251     1.0000 0.87650  0.40678  0.70280  Biso   1.000  H
  H252     1.0000 0.95581  0.41420  0.71840  Biso   1.000  H
  H253     1.0000 0.90531  0.46149  0.77870  Biso   1.000  H
  C206     1.0000 0.17338  0.24997  0.62698  Biso   1.000  C
  O36      1.0000 0.12678  0.12955  0.72087  Biso   1.000  O
  H254     1.0000 0.20881  0.07369  0.72342  Biso   1.000  H
  H255     1.0000 0.20681  0.12839  0.81059  Biso   1.000  H
  H256     1.0000 0.91900  0.17901  0.81098  Biso   1.000  H
  C207     1.0000 0.83790  0.13480  0.88518  Biso   1.000  C
  C208     1.0000 0.91198  0.08317  0.75176  Biso   1.000  C
  H257     1.0000 0.21691  0.26910  0.64590  Biso   1.000  H
  H258     1.0000 0.21691  0.23090  0.64590  Biso   1.000  H
  H259     1.0000 0.15329  0.27637  0.57270  Biso   1.000  H
  H260     1.0000 0.15329  0.22358  0.57270  Biso   1.000  H
  H261     1.0000 0.18000  0.20450  0.60343  Biso   1.000  H
  H262     1.0000 0.18000  0.29550  0.60343  Biso   1.000  H
  H263     1.0000 0.83590  0.16741  0.93985  Biso   1.000  H
  H264     1.0000 0.80539  0.14661  0.83252  Biso   1.000  H
  H265     1.0000 0.82698  0.09090  0.91198  Biso   1.000  H
  H266     1.0000 0.87650  0.09322  0.70280  Biso   1.000  H
  H267     1.0000 0.95581  0.08580  0.71840  Biso   1.000  H
  H268     1.0000 0.90531  0.03851  0.77870  Biso   1.000  H
