data_image0
_cell_length_a       11.08
_cell_length_b       19.149
_cell_length_c       20.52
_cell_angle_alpha    66.91
_cell_angle_beta     83.08
_cell_angle_gamma    83.64

_symmetry_space_group_name_H-M    "P 1"
_symmetry_int_tables_number       1

loop_
  _symmetry_equiv_pos_as_xyz
  'x, y, z'

loop_
  _atom_site_label
  _atom_site_occupancy
  _atom_site_fract_x
  _atom_site_fract_y
  _atom_site_fract_z
  _atom_site_thermal_displace_type
  _atom_site_B_iso_or_equiv
  _atom_site_type_symbol
  C1       1.0000 0.56718  0.55584  0.55559  Biso   1.000  C
  C2       1.0000 0.59579  0.48257  0.60269  Biso   1.000  C
  H1       1.0000 0.56006  0.56628  0.50694  Biso   1.000  H
  C3       1.0000 0.54923  0.61372  0.58110  Biso   1.000  C
  C4       1.0000 0.60431  0.46967  0.67345  Biso   1.000  C
  H2       1.0000 0.60939  0.44182  0.58679  Biso   1.000  H
  N1       1.0000 0.55755  0.60212  0.64921  Biso   1.000  N
  C5       1.0000 0.52015  0.69459  0.53123  Biso   1.000  C
  C6       1.0000 0.58492  0.53093  0.69445  Biso   1.000  C
  H3       1.0000 0.62309  0.41978  0.70690  Biso   1.000  H
  O1       1.0000 0.50316  0.71044  0.46876  Biso   1.000  O
  N2       1.0000 0.51554  0.74589  0.56085  Biso   1.000  N
  C7       1.0000 0.59828  0.51928  0.77075  Biso   1.000  C
  H4       1.0000 0.53126  0.73038  0.60561  Biso   1.000  H
  C8       1.0000 0.48544  0.82636  0.52156  Biso   1.000  C
  O2       1.0000 0.60752  0.45457  0.81722  Biso   1.000  O
  N3       1.0000 0.60100  0.58296  0.78239  Biso   1.000  N
  H5       1.0000 0.53622  0.84362  0.47573  Biso   1.000  H
  H6       1.0000 0.39907  0.83389  0.51103  Biso   1.000  H
  C9       1.0000 0.50608  0.87416  0.56276  Biso   1.000  C
  C10      1.0000 0.62443  0.58241  0.85098  Biso   1.000  C
  H7       1.0000 0.58804  0.62711  0.74720  Biso   1.000  H
  H8       1.0000 0.45721  0.85511  0.60923  Biso   1.000  H
  H9       1.0000 0.47511  0.92721  0.53634  Biso   1.000  H
  N4       1.0000 0.63311  0.87442  0.57568  Biso   1.000  N
  C11      1.0000 0.54055  0.64343  0.86756  Biso   1.000  C
  H10      1.0000 0.60984  0.53178  0.88862  Biso   1.000  H
  H11      1.0000 0.71057  0.59241  0.84991  Biso   1.000  H
  C12      1.0000 0.70883  0.91305  0.50981  Biso   1.000  C
  C13      1.0000 0.64265  0.90678  0.62773  Biso   1.000  C
  N5       1.0000 0.57684  0.65906  0.92732  Biso   1.000  N
  H12      1.0000 0.45630  0.62692  0.87910  Biso   1.000  H
  H13      1.0000 0.54045  0.69119  0.82461  Biso   1.000  H
  H14      1.0000 0.67753  0.90561  0.46999  Biso   1.000  H
  H15      1.0000 0.70278  0.96841  0.49912  Biso   1.000  H
  C14      1.0000 0.84200  0.88324  0.51534  Biso   1.000  C
  C15      1.0000 0.59096  0.96859  0.63204  Biso   1.000  C
  H16      1.0000 0.73092  0.91147  0.62693  Biso   1.000  H
  H17      1.0000 0.61984  0.86629  0.67409  Biso   1.000  H
  C16      1.0000 0.59769  0.89290  0.69270  Biso   1.000  C
  H18      1.0000 0.61869  0.96148  0.60242  Biso   1.000  H
  H19      1.0000 0.73151  0.90430  0.63081  Biso   1.000  H
  C17      1.0000 0.56465  0.59173  0.99399  Biso   1.000  C
  C18      1.0000 0.49840  0.72510  0.93259  Biso   1.000  C
  H20      1.0000 0.87100  0.88638  0.55782  Biso   1.000  H
  H21      1.0000 0.89140  0.91588  0.47302  Biso   1.000  H
  N6       1.0000 0.86034  0.80514  0.52039  Biso   1.000  N
  N7       1.0000 0.63465  0.96052  0.70971  Biso   1.000  N
  H22      1.0000 0.50120  0.97009  0.63299  Biso   1.000  H
  H23      1.0000 0.62144  0.01425  0.59254  Biso   1.000  H
  H24      1.0000 0.50786  0.89161  0.69674  Biso   1.000  H
  H25      1.0000 0.63257  0.84348  0.72561  Biso   1.000  H
  H26      1.0000 0.61388  0.54830  0.98740  Biso   1.000  H
  H27      1.0000 0.47848  0.57900  0.00362  Biso   1.000  H
  C19      1.0000 0.60355  0.60056  0.05880  Biso   1.000  C
  C20      1.0000 0.54821  0.80091  0.88495  Biso   1.000  C
  H28      1.0000 0.41599  0.72339  0.91951  Biso   1.000  H
  H29      1.0000 0.49048  0.72098  0.98251  Biso   1.000  H
  H30      1.0000 0.88032  0.76889  0.56064  Biso   1.000  H
  C21      1.0000 0.84729  0.78742  0.46504  Biso   1.000  C
  C22      1.0000 0.55933  0.98506  0.75113  Biso   1.000  C
  H31      1.0000 0.70747  0.93996  0.72253  Biso   1.000  H
  H32      1.0000 0.70437  0.98120  0.69174  Biso   1.000  H
  H33      1.0000 0.59853  0.55141  0.10001  Biso   1.000  H
  H34      1.0000 0.54687  0.63861  0.07029  Biso   1.000  H
  N8       1.0000 0.72722  0.62442  0.04716  Biso   1.000  N
  N9       1.0000 0.65347  0.81780  0.91121  Biso   1.000  N
  H35      1.0000 0.48305  0.84187  0.88054  Biso   1.000  H
  H36      1.0000 0.57170  0.80067  0.83694  Biso   1.000  H
  O3       1.0000 0.82307  0.83432  0.40592  Biso   1.000  O
  C23      1.0000 0.86295  0.70331  0.47998  Biso   1.000  C
  O4       1.0000 0.44812  0.98692  0.75326  Biso   1.000  O
  C24      1.0000 0.62060  0.01050  0.79855  Biso   1.000  C
  H37      1.0000 0.77456  0.62163  0.01047  Biso   1.000  H
  C25      1.0000 0.77072  0.65035  0.09044  Biso   1.000  C
  C26      1.0000 0.64297  0.84824  0.95965  Biso   1.000  C
  H38      1.0000 0.72697  0.80730  0.89420  Biso   1.000  H
  N10      1.0000 0.87097  0.65722  0.54788  Biso   1.000  N
  C27      1.0000 0.86680  0.67783  0.42512  Biso   1.000  C
  N11      1.0000 0.74049  0.01893  0.78468  Biso   1.000  N
  C28      1.0000 0.55102  0.02535  0.85331  Biso   1.000  C
  O5       1.0000 0.71083  0.66071  0.14041  Biso   1.000  O
  C29      1.0000 0.90505  0.66251  0.07619  Biso   1.000  C
  O6       1.0000 0.54409  0.86496  0.98761  Biso   1.000  O
  C30      1.0000 0.75944  0.86524  0.97927  Biso   1.000  C
  C31      1.0000 0.88102  0.58205  0.56329  Biso   1.000  C
  H39      1.0000 0.86452  0.71269  0.37711  Biso   1.000  H
  C32      1.0000 0.87405  0.60000  0.44239  Biso   1.000  C
  C33      1.0000 0.79379  0.04502  0.82476  Biso   1.000  C
  C34      1.0000 0.60726  0.05292  0.89351  Biso   1.000  C
  H40      1.0000 0.46674  0.01665  0.86273  Biso   1.000  H
  N12      1.0000 0.96776  0.63470  0.03057  Biso   1.000  N
  C35      1.0000 0.95924  0.69648  0.11282  Biso   1.000  C
  N13      1.0000 0.86305  0.84808  0.94582  Biso   1.000  N
  C36      1.0000 0.75681  0.89797  0.02887  Biso   1.000  C
  C37      1.0000 0.87944  0.55101  0.51289  Biso   1.000  C
  C38      1.0000 0.89467  0.53220  0.63996  Biso   1.000  C
  H41      1.0000 0.87539  0.58042  0.40629  Biso   1.000  H
  C39      1.0000 0.92905  0.05310  0.80945  Biso   1.000  C
  C40      1.0000 0.73059  0.06425  0.87873  Biso   1.000  C
  H42      1.0000 0.56208  0.06413  0.93104  Biso   1.000  H
  C41      1.0000 0.08886  0.63793  0.02222  Biso   1.000  C
  H43      1.0000 0.91179  0.71670  0.14392  Biso   1.000  H
  C42      1.0000 0.08482  0.69998  0.10277  Biso   1.000  C
  C43      1.0000 0.96689  0.86378  0.96209  Biso   1.000  C
  C44      1.0000 0.86516  0.91392  0.04493  Biso   1.000  C
  H44      1.0000 0.68156  0.90921  0.05152  Biso   1.000  H
  H45      1.0000 0.88210  0.49750  0.52624  Biso   1.000  H
  O7       1.0000 0.92066  0.46294  0.65814  Biso   1.000  O
  N14      1.0000 0.87990  0.56775  0.68451  Biso   1.000  N
  O8       1.0000 0.98022  0.08879  0.83550  Biso   1.000  O
  N15      1.0000 0.98694  0.01973  0.76713  Biso   1.000  N
  H46      1.0000 0.77102  0.08463  0.90494  Biso   1.000  H
  C45      1.0000 0.15664  0.60482  0.97134  Biso   1.000  C
  C46      1.0000 0.15150  0.66877  0.05763  Biso   1.000  C
  H47      1.0000 0.12485  0.72344  0.12648  Biso   1.000  H
  C47      1.0000 0.97320  0.89648  0.01090  Biso   1.000  C
  C48      1.0000 0.08180  0.84294  0.92445  Biso   1.000  C
  H48      1.0000 0.86586  0.93645  0.07869  Biso   1.000  H
  H49      1.0000 0.85784  0.61678  0.66814  Biso   1.000  H
  C49      1.0000 0.89861  0.52887  0.75942  Biso   1.000  C
  H50      1.0000 0.94602  0.99378  0.75113  Biso   1.000  H
  C50      1.0000 0.11727  0.02583  0.74730  Biso   1.000  C
  O9       1.0000 0.26656  0.58640  0.97384  Biso   1.000  O
  N16      1.0000 0.08865  0.59793  0.92520  Biso   1.000  N
  H51      1.0000 0.23787  0.66874  0.05120  Biso   1.000  H
  H52      1.0000 0.04944  0.90676  0.02079  Biso   1.000  H
  O10      1.0000 0.18351  0.85196  0.93780  Biso   1.000  O
  N17      1.0000 0.06554  0.81465  0.87681  Biso   1.000  N
  H53      1.0000 0.86693  0.56280  0.78452  Biso   1.000  H
  H54      1.0000 0.85144  0.48300  0.77963  Biso   1.000  H
  C51      1.0000 0.03267  0.50517  0.77272  Biso   1.000  C
  C52      1.0000 0.16340  0.98932  0.69488  Biso   1.000  C
  H55      1.0000 0.13450  0.08025  0.72614  Biso   1.000  H
  H56      1.0000 0.16179  0.00114  0.79063  Biso   1.000  H
  H57      1.0000 0.01221  0.61636  0.92434  Biso   1.000  H
  C53      1.0000 0.13554  0.56134  0.87628  Biso   1.000  C
  H58      1.0000 0.99101  0.80819  0.87054  Biso   1.000  H
  C54      1.0000 0.16779  0.79404  0.83465  Biso   1.000  C
  N18      1.0000 0.10775  0.57071  0.75134  Biso   1.000  N
  H59      1.0000 0.06545  0.47300  0.74603  Biso   1.000  H
  H60      1.0000 0.03866  0.47409  0.82391  Biso   1.000  H
  N19      1.0000 0.14962  0.90658  0.72205  Biso   1.000  N
  H61      1.0000 0.25072  0.99832  0.68090  Biso   1.000  H
  H62      1.0000 0.11894  0.01457  0.65160  Biso   1.000  H
  H63      1.0000 0.22569  0.55689  0.87331  Biso   1.000  H
  H64      1.0000 0.10658  0.50948  0.89404  Biso   1.000  H
  C55      1.0000 0.09232  0.60775  0.80286  Biso   1.000  C
  C56      1.0000 0.22811  0.86343  0.78026  Biso   1.000  C
  H65      1.0000 0.22885  0.76069  0.86671  Biso   1.000  H
  H66      1.0000 0.13875  0.76499  0.80972  Biso   1.000  H
  C57      1.0000 0.23662  0.54982  0.73491  Biso   1.000  C
  C58      1.0000 0.18012  0.87793  0.66495  Biso   1.000  C
  H67      1.0000 0.13632  0.65489  0.78202  Biso   1.000  H
  H68      1.0000 0.00475  0.62307  0.80881  Biso   1.000  H
  H69      1.0000 0.30666  0.84687  0.76033  Biso   1.000  H
  H70      1.0000 0.24546  0.89690  0.80403  Biso   1.000  H
  H71      1.0000 0.28771  0.58931  0.73460  Biso   1.000  H
  H72      1.0000 0.26220  0.50096  0.77261  Biso   1.000  H
  C59      1.0000 0.25796  0.54210  0.66330  Biso   1.000  C
  C60      1.0000 0.09434  0.90607  0.60620  Biso   1.000  C
  H73      1.0000 0.26318  0.89218  0.64331  Biso   1.000  H
  H74      1.0000 0.18239  0.82170  0.68643  Biso   1.000  H
  H75      1.0000 0.20441  0.50430  0.66271  Biso   1.000  H
  H76      1.0000 0.34356  0.52331  0.65660  Biso   1.000  H
  N20      1.0000 0.23318  0.61425  0.60524  Biso   1.000  N
  N21      1.0000 0.11999  0.85960  0.56430  Biso   1.000  N
  H77      1.0000 0.10641  0.96002  0.57579  Biso   1.000  H
  H78      1.0000 0.00874  0.90228  0.62704  Biso   1.000  H
  H79      1.0000 0.21858  0.65577  0.61444  Biso   1.000  H
  C61      1.0000 0.23200  0.61967  0.53836  Biso   1.000  C
  C62      1.0000 0.14333  0.88666  0.49349  Biso   1.000  C
  H80      1.0000 0.12010  0.80991  0.58701  Biso   1.000  H
  O11      1.0000 0.25448  0.56494  0.52055  Biso   1.000  O
  C63      1.0000 0.19979  0.69854  0.48519  Biso   1.000  C
  O12      1.0000 0.14889  0.95436  0.45457  Biso   1.000  O
  C64      1.0000 0.16110  0.82537  0.46361  Biso   1.000  C
  N22      1.0000 0.18733  0.75433  0.50976  Biso   1.000  N
  C65      1.0000 0.18395  0.71059  0.41560  Biso   1.000  C
  C66      1.0000 0.14724  0.84305  0.39247  Biso   1.000  C
  H81      1.0000 0.19155  0.66928  0.40039  Biso   1.000  H
  C67      1.0000 0.15677  0.78436  0.36855  Biso   1.000  C
  H82      1.0000 0.13174  0.89433  0.36089  Biso   1.000  H
  H83      1.0000 0.14482  0.79440  0.32048  Biso   1.000  H
  C68      1.0000 0.43277  0.44416  0.44441  Biso   1.000  C
  C69      1.0000 0.45072  0.38629  0.41890  Biso   1.000  C
  C70      1.0000 0.40416  0.51741  0.39736  Biso   1.000  C
  H84      1.0000 0.43988  0.43371  0.49311  Biso   1.000  H
  C71      1.0000 0.47980  0.30542  0.46876  Biso   1.000  C
  N23      1.0000 0.44240  0.39783  0.35079  Biso   1.000  N
  C72      1.0000 0.39564  0.53033  0.32655  Biso   1.000  C
  H85      1.0000 0.39056  0.55819  0.41321  Biso   1.000  H
  N24      1.0000 0.48441  0.25411  0.43915  Biso   1.000  N
  O13      1.0000 0.49678  0.28955  0.53129  Biso   1.000  O
  C73      1.0000 0.41495  0.46900  0.30560  Biso   1.000  C
  H86      1.0000 0.37685  0.58023  0.29310  Biso   1.000  H
  C74      1.0000 0.51442  0.17365  0.47844  Biso   1.000  C
  H87      1.0000 0.46868  0.26962  0.39439  Biso   1.000  H
  C75      1.0000 0.40167  0.48073  0.22925  Biso   1.000  C
  C76      1.0000 0.49387  0.12585  0.43724  Biso   1.000  C
  H88      1.0000 0.46363  0.15637  0.52432  Biso   1.000  H
  H89      1.0000 0.60087  0.16610  0.48902  Biso   1.000  H
  O14      1.0000 0.39243  0.54536  0.18284  Biso   1.000  O
  N25      1.0000 0.39895  0.41697  0.21766  Biso   1.000  N
  N26      1.0000 0.36684  0.12551  0.42437  Biso   1.000  N
  H90      1.0000 0.54264  0.14487  0.39082  Biso   1.000  H
  H91      1.0000 0.52475  0.07277  0.46371  Biso   1.000  H
  C77      1.0000 0.37551  0.41758  0.14908  Biso   1.000  C
  H92      1.0000 0.41191  0.37290  0.25280  Biso   1.000  H
  C78      1.0000 0.35729  0.09321  0.37232  Biso   1.000  C
  C79      1.0000 0.29103  0.08688  0.49024  Biso   1.000  C
  C80      1.0000 0.45941  0.35651  0.13249  Biso   1.000  C
  H93      1.0000 0.39011  0.46822  0.11138  Biso   1.000  H
  H94      1.0000 0.28938  0.40760  0.15009  Biso   1.000  H
  C81      1.0000 0.40226  0.10711  0.30730  Biso   1.000  C
  C82      1.0000 0.40898  0.03140  0.36802  Biso   1.000  C
  H95      1.0000 0.38012  0.13367  0.32591  Biso   1.000  H
  H96      1.0000 0.38126  0.03846  0.39763  Biso   1.000  H
  H97      1.0000 0.26894  0.08846  0.37312  Biso   1.000  H
  H98      1.0000 0.26834  0.09570  0.36918  Biso   1.000  H
  H99      1.0000 0.32233  0.09439  0.53001  Biso   1.000  H
  H100     1.0000 0.29716  0.03157  0.50093  Biso   1.000  H
  C83      1.0000 0.15795  0.11676  0.48466  Biso   1.000  C
  N27      1.0000 0.42311  0.34094  0.07268  Biso   1.000  N
  H101     1.0000 0.54356  0.37309  0.12090  Biso   1.000  H
  H102     1.0000 0.45950  0.30882  0.17539  Biso   1.000  H
  N28      1.0000 0.36530  0.03949  0.29029  Biso   1.000  N
  H103     1.0000 0.49208  0.10838  0.30331  Biso   1.000  H
  H104     1.0000 0.36738  0.15652  0.27439  Biso   1.000  H
  H105     1.0000 0.49876  0.02987  0.36701  Biso   1.000  H
  H106     1.0000 0.37850  0.98573  0.40752  Biso   1.000  H
  H107     1.0000 0.12894  0.11360  0.44224  Biso   1.000  H
  H108     1.0000 0.10855  0.08406  0.52703  Biso   1.000  H
  N29      1.0000 0.13960  0.19485  0.47966  Biso   1.000  N
  C84      1.0000 0.43530  0.40828  0.00601  Biso   1.000  C
  C85      1.0000 0.50154  0.27488  0.06747  Biso   1.000  C
  C86      1.0000 0.44061  0.01492  0.24892  Biso   1.000  C
  H109     1.0000 0.29248  0.05997  0.27753  Biso   1.000  H
  H110     1.0000 0.29557  0.01878  0.30831  Biso   1.000  H
  H111     1.0000 0.11953  0.23109  0.43942  Biso   1.000  H
  C87      1.0000 0.15266  0.21258  0.53496  Biso   1.000  C
  H112     1.0000 0.38598  0.45170  0.01260  Biso   1.000  H
  H113     1.0000 0.52147  0.42093  0.99644  Biso   1.000  H
  C88      1.0000 0.39639  0.39942  0.94125  Biso   1.000  C
  C89      1.0000 0.45173  0.19910  0.11505  Biso   1.000  C
  H114     1.0000 0.58386  0.27662  0.08049  Biso   1.000  H
  H115     1.0000 0.50938  0.27903  0.01749  Biso   1.000  H
  O15      1.0000 0.55183  0.01303  0.24674  Biso   1.000  O
  C90      1.0000 0.37926  0.98951  0.20145  Biso   1.000  C
  O16      1.0000 0.17688  0.16569  0.59408  Biso   1.000  O
  C91      1.0000 0.13699  0.29668  0.52007  Biso   1.000  C
  H116     1.0000 0.40132  0.44857  0.90005  Biso   1.000  H
  H117     1.0000 0.45309  0.36134  0.92971  Biso   1.000  H
  N30      1.0000 0.27273  0.37557  0.95289  Biso   1.000  N
  N31      1.0000 0.34639  0.18220  0.08879  Biso   1.000  N
  H118     1.0000 0.51689  0.15812  0.11952  Biso   1.000  H
  H119     1.0000 0.42815  0.19931  0.16311  Biso   1.000  H
  N32      1.0000 0.25945  0.98105  0.21538  Biso   1.000  N
  C92      1.0000 0.44893  0.97466  0.14669  Biso   1.000  C
  N33      1.0000 0.12899  0.34273  0.45212  Biso   1.000  N
  C93      1.0000 0.13315  0.32218  0.57488  Biso   1.000  C
  H120     1.0000 0.22530  0.37838  0.98953  Biso   1.000  H
  C94      1.0000 0.22922  0.34963  0.90962  Biso   1.000  C
  C95      1.0000 0.35688  0.15175  0.04041  Biso   1.000  C
  H121     1.0000 0.27298  0.19271  0.10580  Biso   1.000  H
  C96      1.0000 0.20606  0.95497  0.17529  Biso   1.000  C
  C97      1.0000 0.39260  0.94702  0.10654  Biso   1.000  C
  H122     1.0000 0.53320  0.98334  0.13733  Biso   1.000  H
  C98      1.0000 0.11894  0.41790  0.43671  Biso   1.000  C
  H123     1.0000 0.13543  0.28731  0.62289  Biso   1.000  H
  C99      1.0000 0.12590  0.40001  0.55761  Biso   1.000  C
  O17      1.0000 0.28911  0.33928  0.85964  Biso   1.000  O
  C100     1.0000 0.09490  0.33749  0.92381  Biso   1.000  C
  C101     1.0000 0.24051  0.13477  0.02073  Biso   1.000  C
  O18      1.0000 0.45585  0.13503  0.01244  Biso   1.000  O
  C102     1.0000 0.07091  0.94686  0.19055  Biso   1.000  C
  C103     1.0000 0.26935  0.93576  0.12127  Biso   1.000  C
  H124     1.0000 0.43787  0.93580  0.06901  Biso   1.000  H
  C104     1.0000 0.12041  0.44898  0.48716  Biso   1.000  C
  C105     1.0000 0.10519  0.46778  0.36009  Biso   1.000  C
  H125     1.0000 0.12456  0.41959  0.59371  Biso   1.000  H
  N34      1.0000 0.03220  0.36525  0.96943  Biso   1.000  N
  C106     1.0000 0.04061  0.30350  0.88723  Biso   1.000  C
  N35      1.0000 0.13680  0.15192  0.05418  Biso   1.000  N
  C107     1.0000 0.24313  0.10201  0.97118  Biso   1.000  C
  O19      1.0000 0.01964  0.91120  0.16455  Biso   1.000  O
  N36      1.0000 0.01301  0.98027  0.23287  Biso   1.000  N
  H126     1.0000 0.22893  0.91530  0.09511  Biso   1.000  H
  H127     1.0000 0.11784  0.50249  0.47382  Biso   1.000  H
  O20      1.0000 0.07929  0.53705  0.34191  Biso   1.000  O
  N37      1.0000 0.12004  0.43226  0.31549  Biso   1.000  N
  C108     1.0000 0.91109  0.36208  0.97778  Biso   1.000  C
  C109     1.0000 0.91504  0.30003  0.89723  Biso   1.000  C
  H128     1.0000 0.08817  0.28324  0.85613  Biso   1.000  H
  C110     1.0000 0.03297  0.13622  0.03791  Biso   1.000  C
  C111     1.0000 0.13478  0.08607  0.95513  Biso   1.000  C
  H129     1.0000 0.31839  0.09072  0.94854  Biso   1.000  H
  H130     1.0000 0.05383  0.00620  0.24892  Biso   1.000  H
  C112     1.0000 0.88258  0.97417  0.25270  Biso   1.000  C
  H131     1.0000 0.14211  0.38321  0.33192  Biso   1.000  H
  C113     1.0000 0.10133  0.47112  0.24063  Biso   1.000  C
  C114     1.0000 0.84322  0.39519  0.02866  Biso   1.000  C
  C115     1.0000 0.84846  0.33116  0.94242  Biso   1.000  C
  H132     1.0000 0.87509  0.27656  0.87352  Biso   1.000  H
  C116     1.0000 0.91815  0.15706  0.07555  Biso   1.000  C
  C117     1.0000 0.02674  0.10351  0.98915  Biso   1.000  C
  H133     1.0000 0.13409  0.06355  0.92131  Biso   1.000  H
  H134     1.0000 0.86544  0.91974  0.27391  Biso   1.000  H
  H135     1.0000 0.83816  0.99879  0.20942  Biso   1.000  H
  C118     1.0000 0.83645  0.01067  0.30517  Biso   1.000  C
  H136     1.0000 0.13302  0.43721  0.21548  Biso   1.000  H
  H137     1.0000 0.14850  0.51699  0.22043  Biso   1.000  H
  C119     1.0000 0.96728  0.49483  0.22728  Biso   1.000  C
  N38      1.0000 0.91131  0.40202  0.07480  Biso   1.000  N
  O21      1.0000 0.73330  0.41361  0.02616  Biso   1.000  O
  H138     1.0000 0.76208  0.33127  0.94880  Biso   1.000  H
  N39      1.0000 0.93431  0.18533  0.12324  Biso   1.000  N
  O22      1.0000 0.81644  0.14797  0.06226  Biso   1.000  O
  H139     1.0000 0.95051  0.09325  0.97921  Biso   1.000  H
  H140     1.0000 0.88100  0.98544  0.34840  Biso   1.000  H
  N40      1.0000 0.85033  0.09342  0.27795  Biso   1.000  N
  H141     1.0000 0.74914  0.00168  0.31910  Biso   1.000  H
  N41      1.0000 0.89220  0.42930  0.24866  Biso   1.000  N
  H142     1.0000 0.93449  0.52698  0.25403  Biso   1.000  H
  H143     1.0000 0.96129  0.52591  0.17609  Biso   1.000  H
  C120     1.0000 0.86441  0.43867  0.12372  Biso   1.000  C
  H144     1.0000 0.98773  0.38363  0.07571  Biso   1.000  H
  C121     1.0000 0.83206  0.20594  0.16540  Biso   1.000  C
  H145     1.0000 0.00893  0.19179  0.12951  Biso   1.000  H
  C122     1.0000 0.81975  0.12203  0.33505  Biso   1.000  C
  C123     1.0000 0.77175  0.13658  0.21974  Biso   1.000  C
  C124     1.0000 0.90763  0.39225  0.19714  Biso   1.000  C
  C125     1.0000 0.76324  0.45011  0.26514  Biso   1.000  C
  H146     1.0000 0.77417  0.44312  0.12669  Biso   1.000  H
  H147     1.0000 0.89327  0.49050  0.10601  Biso   1.000  H
  H148     1.0000 0.77110  0.23932  0.13329  Biso   1.000  H
  H149     1.0000 0.86119  0.23502  0.19028  Biso   1.000  H
  C126     1.0000 0.90561  0.09394  0.39380  Biso   1.000  C
  H150     1.0000 0.73678  0.10777  0.35669  Biso   1.000  H
  H151     1.0000 0.81746  0.17828  0.31363  Biso   1.000  H
  H152     1.0000 0.69329  0.15306  0.23973  Biso   1.000  H
  H153     1.0000 0.75449  0.10308  0.19602  Biso   1.000  H
  H154     1.0000 0.86363  0.34512  0.21798  Biso   1.000  H
  H155     1.0000 0.99520  0.37689  0.19119  Biso   1.000  H
  H156     1.0000 0.71215  0.41070  0.26540  Biso   1.000  H
  H157     1.0000 0.73767  0.49899  0.22739  Biso   1.000  H
  C127     1.0000 0.74198  0.45788  0.33675  Biso   1.000  C
  N42      1.0000 0.87996  0.14041  0.43570  Biso   1.000  N
  H158     1.0000 0.89345  0.03998  0.42421  Biso   1.000  H
  H159     1.0000 0.99120  0.09770  0.37301  Biso   1.000  H
  H160     1.0000 0.79545  0.49571  0.33729  Biso   1.000  H
  H161     1.0000 0.65639  0.47669  0.34340  Biso   1.000  H
  N43      1.0000 0.76668  0.38575  0.39476  Biso   1.000  N
  C128     1.0000 0.85653  0.11330  0.50651  Biso   1.000  C
  H162     1.0000 0.87976  0.19009  0.41299  Biso   1.000  H
  C129     1.0000 0.76794  0.38031  0.46169  Biso   1.000  C
  H163     1.0000 0.78136  0.34422  0.38561  Biso   1.000  H
  O23      1.0000 0.85096  0.04565  0.54543  Biso   1.000  O
  C130     1.0000 0.83885  0.17463  0.53639  Biso   1.000  C
  C131     1.0000 0.80016  0.30147  0.51481  Biso   1.000  C
  O24      1.0000 0.74537  0.43505  0.47950  Biso   1.000  O
  N44      1.0000 0.81263  0.24562  0.49024  Biso   1.000  N
  C132     1.0000 0.85270  0.15694  0.60758  Biso   1.000  C
  C133     1.0000 0.81599  0.28940  0.58445  Biso   1.000  C
  C134     1.0000 0.84319  0.21559  0.63145  Biso   1.000  C
  H164     1.0000 0.86812  0.10567  0.63911  Biso   1.000  H
  H165     1.0000 0.80841  0.33067  0.59961  Biso   1.000  H
  H166     1.0000 0.85514  0.20556  0.67952  Biso   1.000  H
  Ne1      1.0000 0.13825  0.24543  0.25570  Biso   1.000  Ne
  He1      1.0000 0.10099  0.09321  0.28088  Biso   1.000  He
  He2      1.0000 0.85416  0.28571  0.32474  Biso   1.000  He
  He3      1.0000 0.27420  0.27345  0.32584  Biso   1.000  He
  He4      1.0000 0.17056  0.31003  0.13765  Biso   1.000  He
  Ar1      1.0000 0.14125  0.24243  0.25722  Biso   1.000  Ar
  Ne2      1.0000 0.86168  0.75455  0.74432  Biso   1.000  Ne
  He5      1.0000 0.82981  0.70159  0.85186  Biso   1.000  He
  He6      1.0000 0.45662  0.74308  0.71348  Biso   1.000  He
  He7      1.0000 0.11862  0.70992  0.67209  Biso   1.000  He
  He8      1.0000 0.90050  0.90089  0.72387  Biso   1.000  He
  Ar2      1.0000 0.88097  0.77105  0.72922  Biso   1.000  Ar
