data_image0
_cell_length_a       10.972
_cell_length_b       26.511
_cell_length_c       21.676
_cell_angle_alpha    90
_cell_angle_beta     103.9
_cell_angle_gamma    90

_symmetry_space_group_name_H-M    "P 1"
_symmetry_int_tables_number       1

loop_
  _symmetry_equiv_pos_as_xyz
  'x, y, z'

loop_
  _atom_site_label
  _atom_site_occupancy
  _atom_site_fract_x
  _atom_site_fract_y
  _atom_site_fract_z
  _atom_site_thermal_displace_type
  _atom_site_B_iso_or_equiv
  _atom_site_type_symbol
  C1       1.0000 0.60441  0.52627  0.44161  Biso   1.000  C
  O1       1.0000 0.70803  0.56011  0.46062  Biso   1.000  O
  C2       1.0000 0.48543  0.55637  0.42174  Biso   1.000  C
  H1       1.0000 0.61549  0.50560  0.40639  Biso   1.000  H
  H2       1.0000 0.59977  0.50421  0.47659  Biso   1.000  H
  C3       1.0000 0.82517  0.53438  0.47488  Biso   1.000  C
  O2       1.0000 0.46551  0.58455  0.47388  Biso   1.000  O
  H3       1.0000 0.41498  0.53382  0.40639  Biso   1.000  H
  H4       1.0000 0.49122  0.57912  0.38748  Biso   1.000  H
  C4       1.0000 0.92954  0.57176  0.49641  Biso   1.000  C
  H5       1.0000 0.82676  0.50971  0.50800  Biso   1.000  H
  H6       1.0000 0.83636  0.51680  0.43738  Biso   1.000  H
  C5       1.0000 0.34945  0.61095  0.45710  Biso   1.000  C
  O3       1.0000 0.92530  0.59119  0.55700  Biso   1.000  O
  H7       1.0000 0.92066  0.59911  0.46599  Biso   1.000  H
  H8       1.0000 0.00971  0.55551  0.49902  Biso   1.000  H
  C6       1.0000 0.34300  0.64758  0.50957  Biso   1.000  C
  H9       1.0000 0.34311  0.62910  0.41761  Biso   1.000  H
  H10      1.0000 0.28022  0.58730  0.45102  Biso   1.000  H
  C7       1.0000 0.03953  0.61590  0.58780  Biso   1.000  C
  O4       1.0000 0.34296  0.61895  0.56556  Biso   1.000  O
  H11      1.0000 0.26723  0.66769  0.49759  Biso   1.000  H
  H12      1.0000 0.41481  0.67010  0.51741  Biso   1.000  H
  C8       1.0000 0.03063  0.63766  0.64892  Biso   1.000  C
  H13      1.0000 0.10806  0.59179  0.59488  Biso   1.000  H
  H14      1.0000 0.05758  0.64241  0.56052  Biso   1.000  H
  C9       1.0000 0.35331  0.64502  0.62135  Biso   1.000  C
  H15      1.0000 0.96091  0.66120  0.64240  Biso   1.000  H
  O5       1.0000 0.01181  0.59737  0.69012  Biso   1.000  O
  H16      1.0000 0.10714  0.65580  0.66802  Biso   1.000  H
  C10      1.0000 0.36283  0.61473  0.67425  Biso   1.000  C
  C11      1.0000 0.35380  0.69733  0.62682  Biso   1.000  C
  C12      1.0000 0.01985  0.60809  0.75276  Biso   1.000  C
  C13      1.0000 0.37382  0.63694  0.73313  Biso   1.000  C
  H17      1.0000 0.36177  0.57980  0.67030  Biso   1.000  H
  C14      1.0000 0.36787  0.71940  0.68622  Biso   1.000  C
  H18      1.0000 0.34473  0.71740  0.59079  Biso   1.000  H
  C15      1.0000 0.99229  0.56709  0.78802  Biso   1.000  C
  C16      1.0000 0.05430  0.65452  0.78118  Biso   1.000  C
  O6       1.0000 0.37734  0.60371  0.78223  Biso   1.000  O
  C17      1.0000 0.37862  0.68922  0.74036  Biso   1.000  C
  C18      1.0000 0.37504  0.77636  0.69231  Biso   1.000  C
  H19      1.0000 0.96848  0.53619  0.76840  Biso   1.000  H
  C19      1.0000 0.00084  0.57312  0.85233  Biso   1.000  C
  C20      1.0000 0.06180  0.66029  0.84653  Biso   1.000  C
  H20      1.0000 0.07218  0.68149  0.75742  Biso   1.000  H
  C21      1.0000 0.38977  0.62295  0.84510  Biso   1.000  C
  H21      1.0000 0.38863  0.70378  0.78028  Biso   1.000  H
  C22      1.0000 0.32440  0.79812  0.74653  Biso   1.000  C
  H22      1.0000 0.46196  0.78662  0.69839  Biso   1.000  H
  H23      1.0000 0.32827  0.79111  0.65272  Biso   1.000  H
  O7       1.0000 0.97627  0.53600  0.89120  Biso   1.000  O
  C23      1.0000 0.03581  0.62001  0.88184  Biso   1.000  C
  C24      1.0000 0.10034  0.71087  0.87742  Biso   1.000  C
  H24      1.0000 0.47611  0.63272  0.86340  Biso   1.000  H
  H25      1.0000 0.33657  0.65230  0.84420  Biso   1.000  H
  C25      1.0000 0.35122  0.58180  0.88350  Biso   1.000  C
  C26      1.0000 0.33408  0.85557  0.75176  Biso   1.000  C
  H26      1.0000 0.23714  0.78839  0.74031  Biso   1.000  H
  H27      1.0000 0.37062  0.78341  0.78631  Biso   1.000  H
  C27      1.0000 0.97663  0.48478  0.86872  Biso   1.000  C
  H28      1.0000 0.04139  0.62389  0.92509  Biso   1.000  H
  C28      1.0000 0.99930  0.75090  0.85408  Biso   1.000  C
  H29      1.0000 0.11508  0.70752  0.92309  Biso   1.000  H
  H30      1.0000 0.17810  0.72159  0.86768  Biso   1.000  H
  O8       1.0000 0.42652  0.53797  0.88393  Biso   1.000  O
  H31      1.0000 0.26372  0.57338  0.86582  Biso   1.000  H
  H32      1.0000 0.35946  0.59341  0.92680  Biso   1.000  H
  N1       1.0000 0.46493  0.87202  0.76668  Biso   1.000  N
  H33      1.0000 0.29462  0.86700  0.78479  Biso   1.000  H
  H34      1.0000 0.28955  0.87058  0.71189  Biso   1.000  H
  H35      1.0000 0.91467  0.48108  0.82861  Biso   1.000  H
  C29      1.0000 0.94650  0.45000  0.91701  Biso   1.000  C
  H36      1.0000 0.05851  0.47659  0.86169  Biso   1.000  H
  H37      1.0000 0.92303  0.74090  0.86601  Biso   1.000  H
  H38      1.0000 0.98075  0.75252  0.80808  Biso   1.000  H
  C30      1.0000 0.03759  0.80272  0.88079  Biso   1.000  C
  C31      1.0000 0.37996  0.49700  0.91430  Biso   1.000  C
  H39      1.0000 0.52424  0.85010  0.77662  Biso   1.000  H
  C32      1.0000 0.49295  0.92113  0.76502  Biso   1.000  C
  O9       1.0000 0.81450  0.44861  0.90850  Biso   1.000  O
  H40      1.0000 0.98613  0.46181  0.95940  Biso   1.000  H
  H41      1.0000 0.97802  0.41639  0.91178  Biso   1.000  H
  N2       1.0000 0.93782  0.83924  0.85703  Biso   1.000  N
  H42      1.0000 0.11339  0.81321  0.86882  Biso   1.000  H
  H43      1.0000 0.05537  0.80152  0.92689  Biso   1.000  H
  H44      1.0000 0.39571  0.50349  0.95959  Biso   1.000  H
  H45      1.0000 0.28997  0.49391  0.89752  Biso   1.000  H
  C33      1.0000 0.44356  0.44868  0.90313  Biso   1.000  C
  O10      1.0000 0.40974  0.95323  0.75043  Biso   1.000  O
  C34      1.0000 0.62897  0.93667  0.77971  Biso   1.000  C
  C35      1.0000 0.77443  0.41372  0.94928  Biso   1.000  C
  H46      1.0000 0.86095  0.82939  0.84928  Biso   1.000  H
  C36      1.0000 0.96177  0.88725  0.84681  Biso   1.000  C
  O11      1.0000 0.57414  0.45193  0.93264  Biso   1.000  O
  H47      1.0000 0.43175  0.44310  0.85789  Biso   1.000  H
  H48      1.0000 0.40679  0.42050  0.92072  Biso   1.000  H
  C37      1.0000 0.72676  0.90476  0.80832  Biso   1.000  C
  C38      1.0000 0.65582  0.98582  0.76407  Biso   1.000  C
  H49      1.0000 0.81829  0.38192  0.94971  Biso   1.000  H
  H50      1.0000 0.79238  0.42680  0.99229  Biso   1.000  H
  C39      1.0000 0.63627  0.40591  0.92509  Biso   1.000  C
  C40      1.0000 0.85148  0.92101  0.81953  Biso   1.000  C
  O12      1.0000 0.07005  0.90385  0.85874  Biso   1.000  O
  H51      1.0000 0.70921  0.87232  0.82010  Biso   1.000  H
  C41      1.0000 0.77898  0.00223  0.77605  Biso   1.000  C
  H52      1.0000 0.59077  0.00758  0.74549  Biso   1.000  H
  H53      1.0000 0.60792  0.37909  0.94871  Biso   1.000  H
  H54      1.0000 0.61743  0.39640  0.88060  Biso   1.000  H
  C42      1.0000 0.87621  0.97047  0.80385  Biso   1.000  C
  H55      1.0000 0.79640  0.03500  0.76531  Biso   1.000  H
  H56      1.0000 0.95856  0.98201  0.81221  Biso   1.000  H
  C43      1.0000 0.39561  0.47373  0.55838  Biso   1.000  C
  O13      1.0000 0.29198  0.43989  0.53937  Biso   1.000  O
  C44      1.0000 0.51459  0.44363  0.57825  Biso   1.000  C
  H57      1.0000 0.38452  0.49440  0.59360  Biso   1.000  H
  H58      1.0000 0.40024  0.49579  0.52340  Biso   1.000  H
  C45      1.0000 0.17484  0.46562  0.52511  Biso   1.000  C
  O14      1.0000 0.53450  0.41545  0.52611  Biso   1.000  O
  H59      1.0000 0.58503  0.46618  0.59360  Biso   1.000  H
  H60      1.0000 0.50879  0.42088  0.61251  Biso   1.000  H
  C46      1.0000 0.07047  0.42824  0.50358  Biso   1.000  C
  H61      1.0000 0.17316  0.49029  0.49199  Biso   1.000  H
  H62      1.0000 0.16356  0.48320  0.56261  Biso   1.000  H
  C47      1.0000 0.65058  0.38905  0.54293  Biso   1.000  C
  O15      1.0000 0.07471  0.40881  0.44299  Biso   1.000  O
  H63      1.0000 0.07926  0.40089  0.53400  Biso   1.000  H
  H64      1.0000 0.99033  0.44449  0.50102  Biso   1.000  H
  C48      1.0000 0.65701  0.35242  0.49042  Biso   1.000  C
  H65      1.0000 0.65690  0.37090  0.58238  Biso   1.000  H
  H66      1.0000 0.71982  0.41270  0.54902  Biso   1.000  H
  C49      1.0000 0.96048  0.38410  0.41219  Biso   1.000  C
  O16      1.0000 0.65696  0.38105  0.43443  Biso   1.000  O
  H67      1.0000 0.73278  0.33231  0.50239  Biso   1.000  H
  H68      1.0000 0.58523  0.32990  0.48262  Biso   1.000  H
  C50      1.0000 0.96941  0.36234  0.35112  Biso   1.000  C
  H69      1.0000 0.89186  0.40821  0.40511  Biso   1.000  H
  H70      1.0000 0.94237  0.35759  0.43952  Biso   1.000  H
  C51      1.0000 0.64670  0.35498  0.37864  Biso   1.000  C
  O17      1.0000 0.98820  0.40263  0.30987  Biso   1.000  O
  H71      1.0000 0.03910  0.33880  0.35758  Biso   1.000  H
  H72      1.0000 0.89290  0.34420  0.33201  Biso   1.000  H
  C52      1.0000 0.64621  0.30267  0.37317  Biso   1.000  C
  C53      1.0000 0.63718  0.38527  0.32574  Biso   1.000  C
  C54      1.0000 0.98019  0.39191  0.24728  Biso   1.000  C
  C55      1.0000 0.63207  0.28060  0.31381  Biso   1.000  C
  H73      1.0000 0.65528  0.28260  0.40920  Biso   1.000  H
  C56      1.0000 0.62621  0.36306  0.26690  Biso   1.000  C
  H74      1.0000 0.63824  0.42020  0.32969  Biso   1.000  H
  C57      1.0000 0.94571  0.34548  0.21881  Biso   1.000  C
  C58      1.0000 0.00775  0.43291  0.21201  Biso   1.000  C
  C59      1.0000 0.62497  0.22364  0.30768  Biso   1.000  C
  C60      1.0000 0.62140  0.31078  0.25963  Biso   1.000  C
  O18      1.0000 0.62267  0.39629  0.21776  Biso   1.000  O
  C61      1.0000 0.93824  0.33971  0.15351  Biso   1.000  C
  H75      1.0000 0.92785  0.31851  0.24262  Biso   1.000  H
  C62      1.0000 0.99917  0.42688  0.14766  Biso   1.000  C
  H76      1.0000 0.03153  0.46381  0.23159  Biso   1.000  H
  C63      1.0000 0.67563  0.20188  0.25350  Biso   1.000  C
  H77      1.0000 0.53796  0.21338  0.30160  Biso   1.000  H
  H78      1.0000 0.67167  0.20889  0.34732  Biso   1.000  H
  H79      1.0000 0.61138  0.29622  0.21971  Biso   1.000  H
  C64      1.0000 0.61017  0.37705  0.15493  Biso   1.000  C
  C65      1.0000 0.89970  0.28913  0.12262  Biso   1.000  C
  C66      1.0000 0.96420  0.37999  0.11815  Biso   1.000  C
  O19      1.0000 0.02365  0.46400  0.10879  Biso   1.000  O
  C67      1.0000 0.66593  0.14443  0.24823  Biso   1.000  C
  H80      1.0000 0.76287  0.21161  0.25968  Biso   1.000  H
  H81      1.0000 0.62941  0.21659  0.21372  Biso   1.000  H
  C68      1.0000 0.64879  0.41820  0.11649  Biso   1.000  C
  H82      1.0000 0.52390  0.36728  0.13659  Biso   1.000  H
  H83      1.0000 0.66344  0.34770  0.15579  Biso   1.000  H
  C69      1.0000 0.00071  0.24910  0.14590  Biso   1.000  C
  H84      1.0000 0.88493  0.29248  0.07690  Biso   1.000  H
  H85      1.0000 0.82191  0.27841  0.13231  Biso   1.000  H
  H86      1.0000 0.95862  0.37611  0.07490  Biso   1.000  H
  C70      1.0000 0.02340  0.51522  0.13131  Biso   1.000  C
  N3       1.0000 0.53508  0.12798  0.23330  Biso   1.000  N
  H87      1.0000 0.70539  0.13300  0.21520  Biso   1.000  H
  H88      1.0000 0.71037  0.12942  0.28810  Biso   1.000  H
  O20      1.0000 0.57349  0.46203  0.11606  Biso   1.000  O
  H89      1.0000 0.73632  0.42662  0.13421  Biso   1.000  H
  H90      1.0000 0.64046  0.40659  0.07319  Biso   1.000  H
  H91      1.0000 0.07700  0.25910  0.13402  Biso   1.000  H
  H92      1.0000 0.01917  0.24748  0.19191  Biso   1.000  H
  C71      1.0000 0.96242  0.19728  0.11919  Biso   1.000  C
  H93      1.0000 0.08525  0.51892  0.17138  Biso   1.000  H
  C72      1.0000 0.05351  0.55000  0.08298  Biso   1.000  C
  H94      1.0000 0.94150  0.52341  0.13830  Biso   1.000  H
  C73      1.0000 0.50706  0.07887  0.23497  Biso   1.000  C
  H95      1.0000 0.47579  0.14990  0.22342  Biso   1.000  H
  C74      1.0000 0.61996  0.50300  0.08569  Biso   1.000  C
  N4       1.0000 0.06220  0.16076  0.14296  Biso   1.000  N
  H96      1.0000 0.88665  0.18679  0.13122  Biso   1.000  H
  H97      1.0000 0.94464  0.19848  0.07309  Biso   1.000  H
  O21      1.0000 0.18551  0.55139  0.09149  Biso   1.000  O
  H98      1.0000 0.01388  0.53819  0.04059  Biso   1.000  H
  H99      1.0000 0.02199  0.58361  0.08821  Biso   1.000  H
  C75      1.0000 0.37104  0.06333  0.22028  Biso   1.000  C
  O22      1.0000 0.59027  0.04677  0.24956  Biso   1.000  O
  C76      1.0000 0.55636  0.55132  0.09686  Biso   1.000  C
  H100     1.0000 0.60430  0.49651  0.04040  Biso   1.000  H
  H101     1.0000 0.70997  0.50609  0.10251  Biso   1.000  H
  H102     1.0000 0.13897  0.17061  0.15070  Biso   1.000  H
  C77      1.0000 0.03824  0.11275  0.15318  Biso   1.000  C
  C78      1.0000 0.22558  0.58628  0.05071  Biso   1.000  C
  C79      1.0000 0.27318  0.09524  0.19172  Biso   1.000  C
  C80      1.0000 0.34421  0.01418  0.23597  Biso   1.000  C
  O23      1.0000 0.42589  0.54807  0.06739  Biso   1.000  O
  H103     1.0000 0.56817  0.55690  0.14210  Biso   1.000  H
  H104     1.0000 0.59324  0.57950  0.07932  Biso   1.000  H
  C81      1.0000 0.14846  0.07899  0.18050  Biso   1.000  C
  O24      1.0000 0.92987  0.09615  0.14125  Biso   1.000  O
  H105     1.0000 0.18172  0.61808  0.05028  Biso   1.000  H
  H106     1.0000 0.20763  0.57320  0.00770  Biso   1.000  H
  C82      1.0000 0.36365  0.59409  0.07490  Biso   1.000  C
  H107     1.0000 0.29080  0.12768  0.17988  Biso   1.000  H
  C83      1.0000 0.22103  0.99777  0.22394  Biso   1.000  C
  H108     1.0000 0.40924  0.99242  0.25450  Biso   1.000  H
  C84      1.0000 0.12382  0.02953  0.19619  Biso   1.000  C
  H109     1.0000 0.39209  0.62091  0.05128  Biso   1.000  H
  H110     1.0000 0.38258  0.60360  0.11938  Biso   1.000  H
  H111     1.0000 0.20361  0.96500  0.23468  Biso   1.000  H
  H112     1.0000 0.04138  0.01799  0.18782  Biso   1.000  H
  O25      1.0000 0.40967  0.54679  0.25041  Biso   1.000  O
  C85      1.0000 0.49288  0.57889  0.26500  Biso   1.000  C
  N5       1.0000 0.46487  0.62800  0.26667  Biso   1.000  N
  C86      1.0000 0.62900  0.56331  0.27969  Biso   1.000  C
  H113     1.0000 0.52418  0.64988  0.27660  Biso   1.000  H
  C87      1.0000 0.33413  0.64445  0.25179  Biso   1.000  C
  C88      1.0000 0.72679  0.59526  0.30830  Biso   1.000  C
  C89      1.0000 0.65576  0.51420  0.26405  Biso   1.000  C
  H114     1.0000 0.29458  0.63298  0.28482  Biso   1.000  H
  H115     1.0000 0.28960  0.62940  0.21192  Biso   1.000  H
  C90      1.0000 0.32443  0.70190  0.24652  Biso   1.000  C
  H116     1.0000 0.70924  0.62770  0.32009  Biso   1.000  H
  C91      1.0000 0.85151  0.57897  0.31952  Biso   1.000  C
  C92      1.0000 0.77901  0.49776  0.27603  Biso   1.000  C
  H117     1.0000 0.59082  0.49240  0.24552  Biso   1.000  H
  H118     1.0000 0.23708  0.71159  0.24029  Biso   1.000  H
  H119     1.0000 0.37056  0.71661  0.28629  Biso   1.000  H
  C93      1.0000 0.37498  0.72362  0.19229  Biso   1.000  C
  C94      1.0000 0.87624  0.52955  0.30383  Biso   1.000  C
  C95      1.0000 0.96182  0.61276  0.34684  Biso   1.000  C
  H120     1.0000 0.79643  0.46501  0.26529  Biso   1.000  H
  C96      1.0000 0.36790  0.78058  0.18621  Biso   1.000  C
  H121     1.0000 0.46201  0.71340  0.19842  Biso   1.000  H
  H122     1.0000 0.32830  0.70891  0.15270  Biso   1.000  H
  H123     1.0000 0.95859  0.51801  0.31220  Biso   1.000  H
  N6       1.0000 0.93775  0.66074  0.35701  Biso   1.000  N
  O26      1.0000 0.07010  0.59613  0.35877  Biso   1.000  O
  C97      1.0000 0.37855  0.81080  0.24034  Biso   1.000  C
  C98      1.0000 0.35383  0.80265  0.12680  Biso   1.000  C
  H124     1.0000 0.86100  0.67059  0.34931  Biso   1.000  H
  C99      1.0000 0.03764  0.69730  0.38082  Biso   1.000  C
  C100     1.0000 0.37376  0.86308  0.23311  Biso   1.000  C
  H125     1.0000 0.38859  0.79620  0.28031  Biso   1.000  H
  C101     1.0000 0.35334  0.85497  0.12133  Biso   1.000  C
  H126     1.0000 0.34469  0.78262  0.09082  Biso   1.000  H
  C102     1.0000 0.99927  0.74909  0.35411  Biso   1.000  C
  H127     1.0000 0.11342  0.68681  0.36880  Biso   1.000  H
  H128     1.0000 0.05542  0.69850  0.42692  Biso   1.000  H
  O27      1.0000 0.37728  0.89627  0.28221  Biso   1.000  O
  C103     1.0000 0.36279  0.88526  0.17428  Biso   1.000  C
  O28      1.0000 0.34301  0.88103  0.06559  Biso   1.000  O
  H129     1.0000 0.92297  0.75912  0.36600  Biso   1.000  H
  H130     1.0000 0.98080  0.74750  0.30811  Biso   1.000  H
  C104     1.0000 0.10027  0.78911  0.37740  Biso   1.000  C
  C105     1.0000 0.38980  0.87707  0.34508  Biso   1.000  C
  H131     1.0000 0.36180  0.92018  0.17028  Biso   1.000  H
  C106     1.0000 0.34296  0.85244  0.00960  Biso   1.000  C
  C107     1.0000 0.06182  0.83973  0.34651  Biso   1.000  C
  H132     1.0000 0.11514  0.79250  0.42312  Biso   1.000  H
  H133     1.0000 0.17806  0.77839  0.36771  Biso   1.000  H
  H134     1.0000 0.47605  0.86730  0.36338  Biso   1.000  H
  H135     1.0000 0.33660  0.84769  0.34418  Biso   1.000  H
  C108     1.0000 0.35118  0.91822  0.38353  Biso   1.000  C
  H136     1.0000 0.41484  0.82988  0.01739  Biso   1.000  H
  H137     1.0000 0.26719  0.83230  0.99762  Biso   1.000  H
  C109     1.0000 0.34939  0.88903  0.95708  Biso   1.000  C
  C110     1.0000 0.05435  0.84550  0.28121  Biso   1.000  C
  C111     1.0000 0.03577  0.87997  0.38187  Biso   1.000  C
  O29      1.0000 0.42648  0.96202  0.38396  Biso   1.000  O
  H138     1.0000 0.26375  0.92660  0.36581  Biso   1.000  H
  H139     1.0000 0.35949  0.90660  0.42678  Biso   1.000  H
  O30      1.0000 0.46547  0.91543  0.97391  Biso   1.000  O
  H140     1.0000 0.34304  0.87088  0.91759  Biso   1.000  H
  H141     1.0000 0.28015  0.91272  0.95100  Biso   1.000  H
  C112     1.0000 0.01978  0.89193  0.25274  Biso   1.000  C
  H142     1.0000 0.07221  0.81849  0.25740  Biso   1.000  H
  C113     1.0000 0.00078  0.92686  0.35231  Biso   1.000  C
  H143     1.0000 0.04144  0.87609  0.42512  Biso   1.000  H
  C114     1.0000 0.38001  0.00302  0.41433  Biso   1.000  C
  C115     1.0000 0.48539  0.94361  0.92177  Biso   1.000  C
  C116     1.0000 0.99232  0.93290  0.28801  Biso   1.000  C
  O31      1.0000 0.01177  0.90264  0.19015  Biso   1.000  O
  O32      1.0000 0.97630  0.96401  0.39118  Biso   1.000  O
  H144     1.0000 0.39567  0.99649  0.45962  Biso   1.000  H
  H145     1.0000 0.29000  0.00611  0.39750  Biso   1.000  H
  C117     1.0000 0.44359  0.05134  0.40311  Biso   1.000  C
  H146     1.0000 0.41503  0.96620  0.90642  Biso   1.000  H
  H147     1.0000 0.49118  0.92090  0.88751  Biso   1.000  H
  C118     1.0000 0.60434  0.97371  0.94159  Biso   1.000  C
  H148     1.0000 0.96851  0.96379  0.26838  Biso   1.000  H
  C119     1.0000 0.03056  0.86236  0.14890  Biso   1.000  C
  C120     1.0000 0.97657  0.01520  0.36870  Biso   1.000  C
  O33      1.0000 0.57408  0.04806  0.43263  Biso   1.000  O
  H149     1.0000 0.43180  0.05688  0.35792  Biso   1.000  H
  H150     1.0000 0.40682  0.07951  0.42070  Biso   1.000  H
  O34      1.0000 0.70799  0.93991  0.96065  Biso   1.000  O
  H151     1.0000 0.61545  0.99442  0.90642  Biso   1.000  H
  H152     1.0000 0.59982  0.99581  0.97662  Biso   1.000  H
  H153     1.0000 0.96085  0.83878  0.14239  Biso   1.000  H
  H154     1.0000 0.10707  0.84422  0.16800  Biso   1.000  H
  C121     1.0000 0.03947  0.88412  0.08778  Biso   1.000  C
  H155     1.0000 0.91470  0.01890  0.32859  Biso   1.000  H
  C122     1.0000 0.94653  0.05002  0.41699  Biso   1.000  C
  H156     1.0000 0.05847  0.02339  0.36172  Biso   1.000  H
  C123     1.0000 0.63632  0.09407  0.42512  Biso   1.000  C
  C124     1.0000 0.82522  0.96560  0.97491  Biso   1.000  C
  O35      1.0000 0.92533  0.90879  0.05698  Biso   1.000  O
  H157     1.0000 0.10811  0.90819  0.09491  Biso   1.000  H
  H158     1.0000 0.05760  0.85761  0.06050  Biso   1.000  H
  O36      1.0000 0.81453  0.05141  0.40848  Biso   1.000  O
  H159     1.0000 0.98606  0.03821  0.45938  Biso   1.000  H
  H160     1.0000 0.97798  0.08359  0.41181  Biso   1.000  H
  C125     1.0000 0.77439  0.08630  0.44931  Biso   1.000  C
  H161     1.0000 0.60786  0.12089  0.44869  Biso   1.000  H
  H162     1.0000 0.61737  0.10362  0.38059  Biso   1.000  H
  H163     1.0000 0.82679  0.99031  0.00798  Biso   1.000  H
  C126     1.0000 0.92950  0.92822  0.99644  Biso   1.000  C
  H164     1.0000 0.83641  0.98321  0.93741  Biso   1.000  H
  H165     1.0000 0.81832  0.11810  0.44969  Biso   1.000  H
  H166     1.0000 0.79243  0.07321  0.49232  Biso   1.000  H
  H167     1.0000 0.92071  0.90091  0.96602  Biso   1.000  H
  H168     1.0000 0.00964  0.94451  0.99900  Biso   1.000  H
  O37      1.0000 0.59034  0.45321  0.74958  Biso   1.000  O
  C127     1.0000 0.50713  0.42111  0.73498  Biso   1.000  C
  N7       1.0000 0.53514  0.37200  0.73332  Biso   1.000  N
  C128     1.0000 0.37101  0.43669  0.72030  Biso   1.000  C
  C129     1.0000 0.66590  0.35555  0.74824  Biso   1.000  C
  H169     1.0000 0.47583  0.35012  0.72339  Biso   1.000  H
  C130     1.0000 0.27322  0.40474  0.69169  Biso   1.000  C
  C131     1.0000 0.34416  0.48580  0.73594  Biso   1.000  C
  C132     1.0000 0.67558  0.29810  0.75347  Biso   1.000  C
  H170     1.0000 0.70536  0.36702  0.71521  Biso   1.000  H
  H171     1.0000 0.71043  0.37060  0.78812  Biso   1.000  H
  H172     1.0000 0.29077  0.37230  0.67990  Biso   1.000  H
  C133     1.0000 0.14850  0.42103  0.68047  Biso   1.000  C
  C134     1.0000 0.22100  0.50224  0.72396  Biso   1.000  C
  H173     1.0000 0.40922  0.50760  0.75452  Biso   1.000  H
  C135     1.0000 0.62503  0.27638  0.80770  Biso   1.000  C
  H174     1.0000 0.76293  0.28841  0.75970  Biso   1.000  H
  H175     1.0000 0.62936  0.28339  0.71369  Biso   1.000  H
  C136     1.0000 0.12377  0.47045  0.69616  Biso   1.000  C
  C137     1.0000 0.03822  0.38724  0.65319  Biso   1.000  C
  H176     1.0000 0.20358  0.53499  0.73470  Biso   1.000  H
  C138     1.0000 0.63211  0.21942  0.81378  Biso   1.000  C
  H177     1.0000 0.53802  0.28660  0.80162  Biso   1.000  H
  H178     1.0000 0.67171  0.29109  0.84729  Biso   1.000  H
  H179     1.0000 0.04142  0.48199  0.68779  Biso   1.000  H
  N8       1.0000 0.06217  0.33926  0.64298  Biso   1.000  N
  O38      1.0000 0.92991  0.40387  0.64122  Biso   1.000  O
  C139     1.0000 0.62137  0.18920  0.75965  Biso   1.000  C
  C140     1.0000 0.64618  0.19735  0.87319  Biso   1.000  C
  C141     1.0000 0.96239  0.30270  0.61921  Biso   1.000  C
  H180     1.0000 0.13903  0.32941  0.65072  Biso   1.000  H
  C142     1.0000 0.62616  0.13692  0.76687  Biso   1.000  C
  H181     1.0000 0.61142  0.20380  0.71968  Biso   1.000  H
  C143     1.0000 0.64667  0.14503  0.87866  Biso   1.000  C
  H182     1.0000 0.65534  0.21738  0.90921  Biso   1.000  H
  C144     1.0000 0.00068  0.25091  0.64592  Biso   1.000  C
  H183     1.0000 0.88659  0.31319  0.63119  Biso   1.000  H
  H184     1.0000 0.94461  0.30150  0.57311  Biso   1.000  H
  O39      1.0000 0.62273  0.10373  0.71778  Biso   1.000  O
  C145     1.0000 0.63725  0.11474  0.82576  Biso   1.000  C
  O40      1.0000 0.65702  0.11897  0.93445  Biso   1.000  O
  C146     1.0000 0.89974  0.21089  0.62259  Biso   1.000  C
  H185     1.0000 0.07695  0.24088  0.63399  Biso   1.000  H
  H186     1.0000 0.01921  0.25250  0.69188  Biso   1.000  H
  C147     1.0000 0.61021  0.12293  0.65490  Biso   1.000  C
  H187     1.0000 0.63821  0.07982  0.82970  Biso   1.000  H
  C148     1.0000 0.65696  0.14756  0.99039  Biso   1.000  C
  C149     1.0000 0.93819  0.16027  0.65348  Biso   1.000  C
  H188     1.0000 0.88490  0.20750  0.57691  Biso   1.000  H
  H189     1.0000 0.82186  0.22161  0.63228  Biso   1.000  H
  C150     1.0000 0.64886  0.08178  0.61650  Biso   1.000  C
  H190     1.0000 0.52387  0.13270  0.63661  Biso   1.000  H
  H191     1.0000 0.66341  0.15231  0.65581  Biso   1.000  H
  H192     1.0000 0.58518  0.17012  0.98259  Biso   1.000  H
  H193     1.0000 0.73282  0.16770  0.00236  Biso   1.000  H
  C151     1.0000 0.65062  0.11097  0.04290  Biso   1.000  C
  C152     1.0000 0.96417  0.12003  0.61817  Biso   1.000  C
  C153     1.0000 0.94566  0.15450  0.71878  Biso   1.000  C
  O41      1.0000 0.57353  0.03798  0.61603  Biso   1.000  O
  H194     1.0000 0.73627  0.07340  0.63418  Biso   1.000  H
  H195     1.0000 0.64052  0.09340  0.57321  Biso   1.000  H
  O42      1.0000 0.53454  0.08457  0.02608  Biso   1.000  O
  H196     1.0000 0.65688  0.12912  0.08240  Biso   1.000  H
  H197     1.0000 0.71977  0.08728  0.04899  Biso   1.000  H
  C154     1.0000 0.99923  0.07314  0.64768  Biso   1.000  C
  H198     1.0000 0.95860  0.12391  0.57492  Biso   1.000  H
  C155     1.0000 0.98023  0.10807  0.74725  Biso   1.000  C
  H199     1.0000 0.92780  0.18151  0.74259  Biso   1.000  H
  C156     1.0000 0.62002  0.99698  0.58571  Biso   1.000  C
  C157     1.0000 0.51462  0.05639  0.07822  Biso   1.000  C
  O43      1.0000 0.02371  0.03599  0.60880  Biso   1.000  O
  C158     1.0000 0.00769  0.06710  0.71198  Biso   1.000  C
  O44      1.0000 0.98817  0.09736  0.80989  Biso   1.000  O
  H200     1.0000 0.60427  0.00351  0.54041  Biso   1.000  H
  H201     1.0000 0.71001  0.99389  0.60248  Biso   1.000  H
  C159     1.0000 0.55642  0.94866  0.59688  Biso   1.000  C
  H202     1.0000 0.58498  0.03380  0.09357  Biso   1.000  H
  H203     1.0000 0.50883  0.07910  0.11248  Biso   1.000  H
  C160     1.0000 0.39558  0.02629  0.05840  Biso   1.000  C
  C161     1.0000 0.02335  0.98480  0.63128  Biso   1.000  C
  H204     1.0000 0.03150  0.03621  0.73161  Biso   1.000  H
  C162     1.0000 0.96936  0.13764  0.85109  Biso   1.000  C
  O45      1.0000 0.42593  0.95194  0.56736  Biso   1.000  O
  H205     1.0000 0.56823  0.94312  0.64212  Biso   1.000  H
  H206     1.0000 0.59319  0.92049  0.57929  Biso   1.000  H
  O46      1.0000 0.29204  0.06009  0.03939  Biso   1.000  O
  H207     1.0000 0.38447  0.00558  0.09357  Biso   1.000  H
  H208     1.0000 0.40019  0.00419  0.02337  Biso   1.000  H
  C163     1.0000 0.05348  0.94998  0.58300  Biso   1.000  C
  H209     1.0000 0.94147  0.97661  0.63832  Biso   1.000  H
  H210     1.0000 0.08532  0.98110  0.67140  Biso   1.000  H
  H211     1.0000 0.03907  0.16122  0.85760  Biso   1.000  H
  H212     1.0000 0.89294  0.15578  0.83198  Biso   1.000  H
  C164     1.0000 0.96054  0.11588  0.91221  Biso   1.000  C
  C165     1.0000 0.36372  0.90593  0.57492  Biso   1.000  C
  C166     1.0000 0.17479  0.03440  0.02508  Biso   1.000  C
  O47      1.0000 0.18548  0.94859  0.59150  Biso   1.000  O
  H213     1.0000 0.01395  0.96179  0.54060  Biso   1.000  H
  H214     1.0000 0.02203  0.91641  0.58818  Biso   1.000  H
  O48      1.0000 0.07468  0.09121  0.94300  Biso   1.000  O
  H215     1.0000 0.89190  0.09181  0.90508  Biso   1.000  H
  H216     1.0000 0.94241  0.14239  0.93949  Biso   1.000  H
  C167     1.0000 0.22562  0.91370  0.55068  Biso   1.000  C
  H217     1.0000 0.39206  0.87911  0.55130  Biso   1.000  H
  H218     1.0000 0.38264  0.89638  0.61940  Biso   1.000  H
  H219     1.0000 0.17322  0.00969  0.99200  Biso   1.000  H
  C168     1.0000 0.07054  0.07178  0.00360  Biso   1.000  C
  H220     1.0000 0.16360  0.01679  0.06258  Biso   1.000  H
  H221     1.0000 0.18169  0.88190  0.55030  Biso   1.000  H
  H222     1.0000 0.20760  0.92679  0.50772  Biso   1.000  H
  H223     1.0000 0.99028  0.05549  0.00099  Biso   1.000  H
  H224     1.0000 0.07930  0.09909  0.03397  Biso   1.000  H
