data_image0
_cell_length_a       12.871
_cell_length_b       16.878
_cell_length_c       20.349
_cell_angle_alpha    111.18
_cell_angle_beta     95.31
_cell_angle_gamma    99.32

_symmetry_space_group_name_H-M    "P 1"
_symmetry_int_tables_number       1

loop_
  _symmetry_equiv_pos_as_xyz
  'x, y, z'

loop_
  _atom_site_label
  _atom_site_occupancy
  _atom_site_fract_x
  _atom_site_fract_y
  _atom_site_fract_z
  _atom_site_thermal_displace_type
  _atom_site_B_iso_or_equiv
  _atom_site_type_symbol
  C1       1.0000 0.68933  0.54078  0.59486  Biso   1.000  C
  C2       1.0000 0.64575  0.45200  0.59310  Biso   1.000  C
  O1       1.0000 0.80469  0.56192  0.60389  Biso   1.000  O
  H1       1.0000 0.65932  0.54469  0.54977  Biso   1.000  H
  H2       1.0000 0.66543  0.58448  0.63466  Biso   1.000  H
  O2       1.0000 0.68200  0.38667  0.53689  Biso   1.000  O
  H3       1.0000 0.66972  0.44932  0.63979  Biso   1.000  H
  H4       1.0000 0.56680  0.44049  0.58476  Biso   1.000  H
  C3       1.0000 0.85678  0.55977  0.66565  Biso   1.000  C
  C4       1.0000 0.71493  0.32390  0.55837  Biso   1.000  C
  C5       1.0000 0.90550  0.49067  0.66245  Biso   1.000  C
  C6       1.0000 0.86361  0.63010  0.73078  Biso   1.000  C
  C7       1.0000 0.64068  0.24976  0.54987  Biso   1.000  C
  C8       1.0000 0.82248  0.33456  0.58498  Biso   1.000  C
  C9       1.0000 0.90164  0.41681  0.59037  Biso   1.000  C
  C10      1.0000 0.96391  0.49367  0.72597  Biso   1.000  C
  C11      1.0000 0.92355  0.63167  0.79356  Biso   1.000  C
  C12      1.0000 0.81679  0.70196  0.73399  Biso   1.000  C
  C13      1.0000 0.52810  0.24080  0.52305  Biso   1.000  C
  C14      1.0000 0.67440  0.18499  0.56847  Biso   1.000  C
  C15      1.0000 0.85300  0.26867  0.60298  Biso   1.000  C
  H5       1.0000 0.87183  0.43559  0.55260  Biso   1.000  H
  C16      1.0000 0.01248  0.40125  0.57605  Biso   1.000  C
  C17      1.0000 0.97511  0.56328  0.79174  Biso   1.000  C
  H6       1.0000 0.99677  0.44666  0.72405  Biso   1.000  H
  O3       1.0000 0.93789  0.70415  0.85596  Biso   1.000  O
  C18      1.0000 0.77870  0.76316  0.74008  Biso   1.000  C
  C19      1.0000 0.44236  0.23639  0.50366  Biso   1.000  C
  O4       1.0000 0.60144  0.10891  0.55570  Biso   1.000  O
  C20      1.0000 0.78248  0.19357  0.59539  Biso   1.000  C
  H7       1.0000 0.92589  0.27550  0.62136  Biso   1.000  H
  H8       1.0000 0.05801  0.45709  0.58108  Biso   1.000  H
  H9       1.0000 0.04418  0.38329  0.61329  Biso   1.000  H
  C21      1.0000 0.01620  0.33417  0.50398  Biso   1.000  C
  C22      1.0000 0.03764  0.56366  0.85906  Biso   1.000  C
  C23      1.0000 0.84809  0.71310  0.89347  Biso   1.000  C
  I1       1.0000 0.70875  0.86541  0.75605  Biso   1.000  I
  I2       1.0000 0.28912  0.23627  0.46487  Biso   1.000  I
  C24      1.0000 0.54310  0.10858  0.61196  Biso   1.000  C
  C25      1.0000 0.81543  0.12146  0.61356  Biso   1.000  C
  H10      1.0000 0.98785  0.27590  0.50366  Biso   1.000  H
  C26      1.0000 0.95426  0.34378  0.44110  Biso   1.000  C
  H11      1.0000 0.09169  0.33689  0.49720  Biso   1.000  H
  C27      1.0000 0.97320  0.50188  0.88588  Biso   1.000  C
  H12      1.0000 0.04583  0.62329  0.89646  Biso   1.000  H
  C28      1.0000 0.14947  0.54929  0.84987  Biso   1.000  C
  C29      1.0000 0.80707  0.63375  0.90885  Biso   1.000  C
  H13      1.0000 0.78976  0.72366  0.86446  Biso   1.000  H
  H14      1.0000 0.86945  0.76428  0.93915  Biso   1.000  H
  H15      1.0000 0.46951  0.11510  0.59978  Biso   1.000  H
  H16      1.0000 0.57773  0.15818  0.65668  Biso   1.000  H
  C30      1.0000 0.53979  0.02395  0.62296  Biso   1.000  C
  H17      1.0000 0.76700  0.06610  0.58006  Biso   1.000  H
  C31      1.0000 0.92840  0.11241  0.60277  Biso   1.000  C
  C32      1.0000 0.79737  0.13147  0.68905  Biso   1.000  C
  H18      1.0000 0.98092  0.40236  0.44158  Biso   1.000  H
  H19      1.0000 0.87801  0.33879  0.44649  Biso   1.000  H
  C33      1.0000 0.96333  0.27546  0.36908  Biso   1.000  C
  C34      1.0000 0.89866  0.53216  0.92985  Biso   1.000  C
  C35      1.0000 0.98278  0.41751  0.87039  Biso   1.000  C
  H20      1.0000 0.14493  0.49376  0.80916  Biso   1.000  H
  H21      1.0000 0.18364  0.54409  0.89336  Biso   1.000  H
  C36      1.0000 0.21916  0.62240  0.83667  Biso   1.000  C
  O5       1.0000 0.89162  0.61915  0.95085  Biso   1.000  O
  H22      1.0000 0.74627  0.64287  0.93514  Biso   1.000  H
  H23      1.0000 0.78203  0.58256  0.86355  Biso   1.000  H
  O6       1.0000 0.64579  0.01220  0.64337  Biso   1.000  O
  H24      1.0000 0.49663  0.02339  0.66068  Biso   1.000  H
  H25      1.0000 0.50439  0.97481  0.57819  Biso   1.000  H
  H26      1.0000 0.97811  0.16555  0.63707  Biso   1.000  H
  H27      1.0000 0.93671  0.10936  0.55410  Biso   1.000  H
  C37      1.0000 0.96201  0.03328  0.61180  Biso   1.000  C
  C38      1.0000 0.71070  0.07831  0.70059  Biso   1.000  C
  C39      1.0000 0.86606  0.19287  0.74868  Biso   1.000  C
  H28      1.0000 0.94605  0.21717  0.37116  Biso   1.000  H
  C40      1.0000 0.89076  0.27648  0.30657  Biso   1.000  C
  H29      1.0000 0.03812  0.28563  0.36101  Biso   1.000  H
  C41      1.0000 0.83717  0.48081  0.95688  Biso   1.000  C
  C42      1.0000 0.92267  0.36168  0.89694  Biso   1.000  C
  H30      1.0000 0.03218  0.39550  0.84015  Biso   1.000  H
  H31      1.0000 0.20011  0.61467  0.78618  Biso   1.000  H
  H32      1.0000 0.20368  0.67860  0.86697  Biso   1.000  H
  C43      1.0000 0.33790  0.62586  0.85249  Biso   1.000  C
  H33      1.0000 0.95232  0.03489  0.65999  Biso   1.000  H
  H34      1.0000 0.91465  0.97969  0.57616  Biso   1.000  H
  C44      1.0000 0.07614  0.02997  0.60277  Biso   1.000  C
  C45      1.0000 0.69319  0.08988  0.77016  Biso   1.000  C
  C46      1.0000 0.85386  0.20450  0.81835  Biso   1.000  C
  H35      1.0000 0.92482  0.22909  0.74136  Biso   1.000  H
  H36      1.0000 0.91263  0.33261  0.30128  Biso   1.000  H
  H37      1.0000 0.81670  0.27203  0.31661  Biso   1.000  H
  C47      1.0000 0.89376  0.20266  0.23716  Biso   1.000  C
  C48      1.0000 0.84964  0.39386  0.93947  Biso   1.000  C
  C49      1.0000 0.75923  0.51227  0.00032  Biso   1.000  C
  C50      1.0000 0.93699  0.26891  0.88198  Biso   1.000  C
  H38      1.0000 0.35654  0.63069  0.90228  Biso   1.000  H
  H39      1.0000 0.35436  0.57117  0.82027  Biso   1.000  H
  C51      1.0000 0.40498  0.70199  0.84255  Biso   1.000  C
  C52      1.0000 0.11353  0.95220  0.61009  Biso   1.000  C
  H40      1.0000 0.12272  0.08368  0.63867  Biso   1.000  H
  H41      1.0000 0.08542  0.02979  0.55495  Biso   1.000  H
  C53      1.0000 0.76545  0.15116  0.82887  Biso   1.000  C
  C54      1.0000 0.60982  0.03486  0.78415  Biso   1.000  C
  H42      1.0000 0.84596  0.20597  0.19827  Biso   1.000  H
  H43      1.0000 0.87050  0.14697  0.24187  Biso   1.000  H
  H44      1.0000 0.96675  0.20750  0.22669  Biso   1.000  H
  O7       1.0000 0.79105  0.34189  0.96917  Biso   1.000  O
  C55      1.0000 0.69275  0.53884  0.03467  Biso   1.000  C
  H45      1.0000 0.92095  0.25590  0.92456  Biso   1.000  H
  C56      1.0000 0.05076  0.25569  0.87268  Biso   1.000  C
  H46      1.0000 0.37931  0.75510  0.86878  Biso   1.000  H
  H47      1.0000 0.39279  0.69209  0.79115  Biso   1.000  H
  C57      1.0000 0.52425  0.71868  0.86729  Biso   1.000  C
  H48      1.0000 0.10495  0.95206  0.65785  Biso   1.000  H
  H49      1.0000 0.06765  0.89821  0.57397  Biso   1.000  H
  C58      1.0000 0.22870  0.95192  0.60058  Biso   1.000  C
  O8       1.0000 0.75375  0.15820  0.89747  Biso   1.000  O
  C59      1.0000 0.53984  0.99170  0.80285  Biso   1.000  C
  C60      1.0000 0.69005  0.29330  0.92867  Biso   1.000  C
  I3       1.0000 0.58993  0.58634  0.09938  Biso   1.000  I
  H50      1.0000 0.10275  0.30315  0.91115  Biso   1.000  H
  H51      1.0000 0.06565  0.25718  0.82625  Biso   1.000  H
  C61      1.0000 0.06243  0.16745  0.87557  Biso   1.000  C
  H52      1.0000 0.56039  0.76548  0.85356  Biso   1.000  H
  H53      1.0000 0.55025  0.66546  0.84186  Biso   1.000  H
  C62      1.0000 0.55652  0.74499  0.94876  Biso   1.000  C
  H54      1.0000 0.23626  0.94841  0.55169  Biso   1.000  H
  C63      1.0000 0.26903  0.87747  0.61206  Biso   1.000  C
  H55      1.0000 0.27408  0.00749  0.63466  Biso   1.000  H
  C64      1.0000 0.67497  0.20229  0.92857  Biso   1.000  C
  I4       1.0000 0.43336  0.93480  0.84645  Biso   1.000  I
  I5       1.0000 0.40254  0.90890  0.79447  Biso   1.000  I
  H56      1.0000 0.68618  0.29065  0.87904  Biso   1.000  H
  H57      1.0000 0.63289  0.32158  0.94994  Biso   1.000  H
  H58      1.0000 0.02411  0.12001  0.83069  Biso   1.000  H
  H59      1.0000 0.02987  0.15994  0.91564  Biso   1.000  H
  C65      1.0000 0.18319  0.16200  0.88577  Biso   1.000  C
  H60      1.0000 0.63446  0.76226  0.96148  Biso   1.000  H
  H61      1.0000 0.53082  0.69557  0.96164  Biso   1.000  H
  H62      1.0000 0.52476  0.79388  0.97457  Biso   1.000  H
  H63      1.0000 0.22711  0.82210  0.57686  Biso   1.000  H
  H64      1.0000 0.26178  0.88028  0.66036  Biso   1.000  H
  H65      1.0000 0.34430  0.88204  0.60640  Biso   1.000  H
  H66      1.0000 0.67768  0.20569  0.97826  Biso   1.000  H
  H67      1.0000 0.60358  0.16859  0.90159  Biso   1.000  H
  H68      1.0000 0.22187  0.21256  0.92857  Biso   1.000  H
  H69      1.0000 0.18824  0.10889  0.89486  Biso   1.000  H
  C66      1.0000 0.23427  0.16041  0.82668  Biso   1.000  C
  H70      1.0000 0.22961  0.21288  0.81637  Biso   1.000  H
  H71      1.0000 0.19900  0.10849  0.78367  Biso   1.000  H
  C67      1.0000 0.35327  0.15758  0.84549  Biso   1.000  C
  H72      1.0000 0.38904  0.21076  0.88695  Biso   1.000  H
  H73      1.0000 0.35756  0.10679  0.85826  Biso   1.000  H
  C68      1.0000 0.40789  0.15120  0.78309  Biso   1.000  C
  H74      1.0000 0.35816  0.11504  0.73885  Biso   1.000  H
  H75      1.0000 0.46977  0.12487  0.78597  Biso   1.000  H
  H76      1.0000 0.43155  0.20946  0.78325  Biso   1.000  H
  C69      1.0000 0.31055  0.45921  0.40509  Biso   1.000  C
  O9       1.0000 0.19511  0.43807  0.39606  Biso   1.000  O
  H77      1.0000 0.34055  0.45530  0.45018  Biso   1.000  H
  H78      1.0000 0.33444  0.41551  0.36528  Biso   1.000  H
  C70      1.0000 0.35415  0.54802  0.40690  Biso   1.000  C
  C71      1.0000 0.14302  0.44022  0.33430  Biso   1.000  C
  O10      1.0000 0.31779  0.61327  0.46306  Biso   1.000  O
  H79      1.0000 0.33017  0.55070  0.36021  Biso   1.000  H
  H80      1.0000 0.43300  0.55950  0.41518  Biso   1.000  H
  C72      1.0000 0.13627  0.36989  0.26917  Biso   1.000  C
  C73      1.0000 0.09438  0.50932  0.33750  Biso   1.000  C
  C74      1.0000 0.28495  0.67609  0.44158  Biso   1.000  C
  C75      1.0000 0.18308  0.29799  0.26601  Biso   1.000  C
  C76      1.0000 0.07625  0.36832  0.20639  Biso   1.000  C
  C77      1.0000 0.03595  0.50626  0.27398  Biso   1.000  C
  C78      1.0000 0.09823  0.58319  0.40957  Biso   1.000  C
  C79      1.0000 0.17731  0.66538  0.41497  Biso   1.000  C
  C80      1.0000 0.35911  0.75018  0.45007  Biso   1.000  C
  C81      1.0000 0.22116  0.23677  0.25987  Biso   1.000  C
  O11      1.0000 0.06197  0.29578  0.14399  Biso   1.000  O
  C82      1.0000 0.02477  0.43672  0.20821  Biso   1.000  C
  H81      1.0000 0.00303  0.55333  0.27590  Biso   1.000  H
  H82      1.0000 0.12806  0.56442  0.44740  Biso   1.000  H
  C83      1.0000 0.98731  0.59868  0.42389  Biso   1.000  C
  C84      1.0000 0.14679  0.73126  0.39697  Biso   1.000  C
  C85      1.0000 0.32540  0.81500  0.43148  Biso   1.000  C
  C86      1.0000 0.47170  0.75919  0.47689  Biso   1.000  C
  I6       1.0000 0.29115  0.13461  0.24395  Biso   1.000  I
  C87      1.0000 0.15179  0.28689  0.10648  Biso   1.000  C
  C88      1.0000 0.96215  0.43627  0.14089  Biso   1.000  C
  H83      1.0000 0.94187  0.54291  0.41887  Biso   1.000  H
  H84      1.0000 0.95563  0.61672  0.38671  Biso   1.000  H
  C89      1.0000 0.98359  0.66576  0.49597  Biso   1.000  C
  C90      1.0000 0.21732  0.80639  0.40461  Biso   1.000  C
  H85      1.0000 0.07391  0.72450  0.37859  Biso   1.000  H
  O12      1.0000 0.39845  0.89111  0.44430  Biso   1.000  O
  C91      1.0000 0.55752  0.76360  0.49629  Biso   1.000  C
  C92      1.0000 0.19279  0.36618  0.09109  Biso   1.000  C
  H86      1.0000 0.21011  0.27627  0.13549  Biso   1.000  H
  H87      1.0000 0.13035  0.23571  0.06080  Biso   1.000  H
  C93      1.0000 0.02669  0.49813  0.11412  Biso   1.000  C
  H88      1.0000 0.95397  0.37670  0.10349  Biso   1.000  H
  C94      1.0000 0.85040  0.45070  0.15008  Biso   1.000  C
  H89      1.0000 0.01203  0.72409  0.49629  Biso   1.000  H
  C95      1.0000 0.04560  0.65616  0.55885  Biso   1.000  C
  H90      1.0000 0.90812  0.66313  0.50281  Biso   1.000  H
  C96      1.0000 0.18443  0.87847  0.38639  Biso   1.000  C
  C97      1.0000 0.45670  0.89141  0.38799  Biso   1.000  C
  I7       1.0000 0.71076  0.76372  0.53508  Biso   1.000  I
  O13      1.0000 0.10817  0.38078  0.04910  Biso   1.000  O
  H91      1.0000 0.25361  0.35712  0.06481  Biso   1.000  H
  H92      1.0000 0.21777  0.41743  0.13640  Biso   1.000  H
  C98      1.0000 0.10120  0.46778  0.07010  Biso   1.000  C
  C99      1.0000 0.01704  0.58251  0.12961  Biso   1.000  C
  H93      1.0000 0.85486  0.50617  0.19079  Biso   1.000  H
  H94      1.0000 0.81616  0.45590  0.10659  Biso   1.000  H
  C100     1.0000 0.78071  0.37760  0.16327  Biso   1.000  C
  H95      1.0000 0.01887  0.59757  0.55837  Biso   1.000  H
  H96      1.0000 0.12179  0.66121  0.55345  Biso   1.000  H
  C101     1.0000 0.03646  0.72447  0.63087  Biso   1.000  C
  H97      1.0000 0.23280  0.93389  0.41989  Biso   1.000  H
  C102     1.0000 0.07141  0.88759  0.39718  Biso   1.000  C
  C103     1.0000 0.20243  0.86852  0.31089  Biso   1.000  C
  H98      1.0000 0.53037  0.88490  0.40017  Biso   1.000  H
  H99      1.0000 0.42215  0.84182  0.34327  Biso   1.000  H
  C104     1.0000 0.46000  0.97598  0.37698  Biso   1.000  C
  C105     1.0000 0.16272  0.51921  0.04312  Biso   1.000  C
  C106     1.0000 0.07721  0.63832  0.10301  Biso   1.000  C
  H100     1.0000 0.96770  0.60449  0.15980  Biso   1.000  H
  H101     1.0000 0.79977  0.38529  0.21382  Biso   1.000  H
  H102     1.0000 0.79620  0.32139  0.13298  Biso   1.000  H
  C107     1.0000 0.66198  0.37409  0.14751  Biso   1.000  C
  H103     1.0000 0.05383  0.78282  0.62879  Biso   1.000  H
  C108     1.0000 0.10911  0.72351  0.69338  Biso   1.000  C
  H104     1.0000 0.96170  0.71439  0.63899  Biso   1.000  H
  H105     1.0000 0.02176  0.83438  0.36288  Biso   1.000  H
  H106     1.0000 0.06309  0.89059  0.44590  Biso   1.000  H
  C109     1.0000 0.03779  0.96668  0.38820  Biso   1.000  C
  C110     1.0000 0.13374  0.80712  0.25127  Biso   1.000  C
  C111     1.0000 0.28912  0.92171  0.29941  Biso   1.000  C
  O14      1.0000 0.35401  0.98779  0.35657  Biso   1.000  O
  H107     1.0000 0.50325  0.97660  0.33926  Biso   1.000  H
  H108     1.0000 0.49549  0.02518  0.42176  Biso   1.000  H
  C112     1.0000 0.15015  0.60607  0.06048  Biso   1.000  C
  C113     1.0000 0.24066  0.48775  0.99968  Biso   1.000  C
  C114     1.0000 0.06290  0.73111  0.11802  Biso   1.000  C
  H109     1.0000 0.64327  0.36933  0.09772  Biso   1.000  H
  H110     1.0000 0.64543  0.42877  0.17968  Biso   1.000  H
  C115     1.0000 0.59490  0.29800  0.15740  Biso   1.000  C
  H111     1.0000 0.08717  0.66738  0.69867  Biso   1.000  H
  H112     1.0000 0.18319  0.72799  0.68339  Biso   1.000  H
  C116     1.0000 0.10611  0.79728  0.76278  Biso   1.000  C
  H113     1.0000 0.04757  0.96512  0.34001  Biso   1.000  H
  C117     1.0000 0.92373  0.97002  0.39718  Biso   1.000  C
  H114     1.0000 0.08515  0.02030  0.42379  Biso   1.000  H
  C118     1.0000 0.14594  0.79549  0.18160  Biso   1.000  C
  H115     1.0000 0.07506  0.77090  0.25859  Biso   1.000  H
  C119     1.0000 0.30669  0.91011  0.22979  Biso   1.000  C
  O15      1.0000 0.20875  0.65810  0.03077  Biso   1.000  O
  C120     1.0000 0.30713  0.46115  0.96527  Biso   1.000  C
  H116     1.0000 0.07885  0.74409  0.07539  Biso   1.000  H
  C121     1.0000 0.94905  0.74433  0.12732  Biso   1.000  C
  H117     1.0000 0.62059  0.24492  0.13122  Biso   1.000  H
  H118     1.0000 0.60709  0.30790  0.20879  Biso   1.000  H
  C122     1.0000 0.47555  0.28128  0.13271  Biso   1.000  C
  H119     1.0000 0.15383  0.79396  0.80168  Biso   1.000  H
  H120     1.0000 0.12937  0.85297  0.75808  Biso   1.000  H
  H121     1.0000 0.03305  0.79249  0.77325  Biso   1.000  H
  H122     1.0000 0.87716  0.91631  0.36128  Biso   1.000  H
  H123     1.0000 0.91445  0.97020  0.44500  Biso   1.000  H
  C123     1.0000 0.88627  0.04779  0.38986  Biso   1.000  C
  C124     1.0000 0.23434  0.84877  0.17107  Biso   1.000  C
  C125     1.0000 0.39006  0.96513  0.21579  Biso   1.000  C
  C126     1.0000 0.30975  0.70669  0.07127  Biso   1.000  C
  I8       1.0000 0.40995  0.41362  0.90063  Biso   1.000  I
  H124     1.0000 0.89712  0.69678  0.08880  Biso   1.000  H
  H125     1.0000 0.93415  0.74282  0.17369  Biso   1.000  H
  C127     1.0000 0.93736  0.83248  0.12438  Biso   1.000  C
  H126     1.0000 0.43949  0.23452  0.14639  Biso   1.000  H
  H127     1.0000 0.44953  0.33447  0.15809  Biso   1.000  H
  C128     1.0000 0.44328  0.25500  0.05118  Biso   1.000  C
  H128     1.0000 0.89491  0.04787  0.34210  Biso   1.000  H
  H129     1.0000 0.93215  0.10178  0.42598  Biso   1.000  H
  C129     1.0000 0.77118  0.04808  0.39937  Biso   1.000  C
  O16      1.0000 0.24605  0.84179  0.10247  Biso   1.000  O
  C130     1.0000 0.46004  0.00829  0.19709  Biso   1.000  C
  C131     1.0000 0.32490  0.79770  0.07138  Biso   1.000  C
  H130     1.0000 0.31368  0.70928  0.12091  Biso   1.000  H
  H131     1.0000 0.36699  0.67841  0.05001  Biso   1.000  H
  H132     1.0000 0.97578  0.88001  0.16931  Biso   1.000  H
  H133     1.0000 0.96999  0.83999  0.08431  Biso   1.000  H
  C132     1.0000 0.81668  0.83799  0.11417  Biso   1.000  C
  H134     1.0000 0.36542  0.23770  0.03852  Biso   1.000  H
  H135     1.0000 0.46898  0.30442  0.03831  Biso   1.000  H
  H136     1.0000 0.47511  0.20612  0.02538  Biso   1.000  H
  H137     1.0000 0.72572  0.99251  0.36528  Biso   1.000  H
  H138     1.0000 0.76354  0.05158  0.44826  Biso   1.000  H
  C133     1.0000 0.73075  0.12246  0.38788  Biso   1.000  C
  I9       1.0000 0.56652  0.06520  0.15350  Biso   1.000  I
  I10      1.0000 0.59734  0.09110  0.20548  Biso   1.000  I
  H139     1.0000 0.32220  0.79431  0.02169  Biso   1.000  H
  H140     1.0000 0.39631  0.83143  0.09841  Biso   1.000  H
  H141     1.0000 0.77800  0.78737  0.07138  Biso   1.000  H
  H142     1.0000 0.81156  0.89110  0.10509  Biso   1.000  H
  C134     1.0000 0.76555  0.83961  0.17332  Biso   1.000  C
  H143     1.0000 0.77277  0.17789  0.42309  Biso   1.000  H
  H144     1.0000 0.73809  0.11965  0.33958  Biso   1.000  H
  H145     1.0000 0.65559  0.11798  0.39360  Biso   1.000  H
  H146     1.0000 0.77027  0.78711  0.18358  Biso   1.000  H
  H147     1.0000 0.80088  0.89150  0.21627  Biso   1.000  H
  C135     1.0000 0.64654  0.84244  0.15451  Biso   1.000  C
  H148     1.0000 0.61076  0.78923  0.11300  Biso   1.000  H
  H149     1.0000 0.64224  0.89320  0.14169  Biso   1.000  H
  C136     1.0000 0.59200  0.84881  0.21692  Biso   1.000  C
  H150     1.0000 0.64163  0.88489  0.26110  Biso   1.000  H
  H151     1.0000 0.53003  0.87512  0.21398  Biso   1.000  H
  H152     1.0000 0.56825  0.79053  0.21670  Biso   1.000  H
