data_image0
_cell_length_a       11.935
_cell_length_b       8.264
_cell_length_c       16.629
_cell_angle_alpha    90
_cell_angle_beta     92.36
_cell_angle_gamma    90

_symmetry_space_group_name_H-M    "P 1"
_symmetry_int_tables_number       1

loop_
  _symmetry_equiv_pos_as_xyz
  'x, y, z'

loop_
  _atom_site_label
  _atom_site_occupancy
  _atom_site_fract_x
  _atom_site_fract_y
  _atom_site_fract_z
  _atom_site_thermal_displace_type
  _atom_site_B_iso_or_equiv
  _atom_site_type_symbol
  C1       1.0000 0.60086  0.57490  0.57141  Biso   1.000  C
  C2       1.0000 0.53651  0.70970  0.58598  Biso   1.000  C
  C3       1.0000 0.63671  0.48245  0.63551  Biso   1.000  C
  H1       1.0000 0.61949  0.54780  0.51941  Biso   1.000  H
  C4       1.0000 0.50846  0.75387  0.66230  Biso   1.000  C
  H2       1.0000 0.51107  0.77275  0.54271  Biso   1.000  H
  C5       1.0000 0.61148  0.52239  0.71418  Biso   1.000  C
  H3       1.0000 0.67909  0.39037  0.62643  Biso   1.000  H
  C6       1.0000 0.43424  0.89654  0.67710  Biso   1.000  C
  C7       1.0000 0.54952  0.66094  0.72658  Biso   1.000  C
  H4       1.0000 0.63582  0.45765  0.75721  Biso   1.000  H
  N1       1.0000 0.36683  0.94676  0.60620  Biso   1.000  N
  H5       1.0000 0.48054  0.98681  0.69552  Biso   1.000  H
  H6       1.0000 0.38449  0.86955  0.71978  Biso   1.000  H
  O1       1.0000 0.52384  0.71527  0.80181  Biso   1.000  O
  C8       1.0000 0.28354  0.82551  0.58417  Biso   1.000  C
  C9       1.0000 0.29982  0.09729  0.62703  Biso   1.000  C
  C10      1.0000 0.57029  0.62972  0.86958  Biso   1.000  C
  C11      1.0000 0.22869  0.85092  0.50298  Biso   1.000  C
  H7       1.0000 0.31897  0.71987  0.58550  Biso   1.000  H
  H8       1.0000 0.22633  0.82551  0.62402  Biso   1.000  H
  H9       1.0000 0.24068  0.06595  0.66230  Biso   1.000  H
  H10      1.0000 0.26433  0.14000  0.57798  Biso   1.000  H
  C12      1.0000 0.36877  0.23076  0.66771  Biso   1.000  C
  H11      1.0000 0.54049  0.52045  0.87000  Biso   1.000  H
  H12      1.0000 0.65112  0.62294  0.86621  Biso   1.000  H
  C13      1.0000 0.54217  0.71394  0.94457  Biso   1.000  C
  C14      1.0000 0.28218  0.92885  0.44219  Biso   1.000  C
  C15      1.0000 0.12160  0.79356  0.48667  Biso   1.000  C
  O2       1.0000 0.27110  0.32587  0.65658  Biso   1.000  O
  H13      1.0000 0.43188  0.26718  0.63750  Biso   1.000  H
  H14      1.0000 0.39074  0.20946  0.72351  Biso   1.000  H
  O3       1.0000 0.42546  0.70765  0.95198  Biso   1.000  O
  H15      1.0000 0.56686  0.82575  0.94271  Biso   1.000  H
  H16      1.0000 0.57983  0.66203  0.99050  Biso   1.000  H
  C16      1.0000 0.22969  0.95220  0.36702  Biso   1.000  C
  H17      1.0000 0.35486  0.96636  0.45158  Biso   1.000  H
  C17      1.0000 0.06639  0.81583  0.41228  Biso   1.000  C
  O4       1.0000 0.07451  0.70765  0.54800  Biso   1.000  O
  C18      1.0000 0.28053  0.43804  0.72158  Biso   1.000  C
  C19      1.0000 0.37837  0.79356  0.01331  Biso   1.000  C
  C20      1.0000 0.12278  0.89376  0.35402  Biso   1.000  C
  H18      1.0000 0.26599  0.00605  0.32651  Biso   1.000  H
  H19      1.0000 0.99351  0.77868  0.40247  Biso   1.000  H
  C21      1.0000 0.95780  0.71394  0.55541  Biso   1.000  C
  C22      1.0000 0.21952  0.43804  0.77840  Biso   1.000  C
  H20      1.0000 0.27472  0.54501  0.69781  Biso   1.000  H
  H21      1.0000 0.35647  0.42824  0.74397  Biso   1.000  H
  C23      1.0000 0.27128  0.85092  0.99700  Biso   1.000  C
  C24      1.0000 0.43358  0.81583  0.08770  Biso   1.000  C
  H22      1.0000 0.08746  0.90779  0.30358  Biso   1.000  H
  C25      1.0000 0.92967  0.62972  0.63040  Biso   1.000  C
  H23      1.0000 0.93310  0.82575  0.55727  Biso   1.000  H
  H24      1.0000 0.92022  0.66203  0.50948  Biso   1.000  H
  O5       1.0000 0.22887  0.32587  0.84340  Biso   1.000  O
  H25      1.0000 0.22533  0.54501  0.80217  Biso   1.000  H
  H26      1.0000 0.14350  0.42824  0.75601  Biso   1.000  H
  C26      1.0000 0.21651  0.82551  0.91580  Biso   1.000  C
  C27      1.0000 0.21779  0.92885  0.05779  Biso   1.000  C
  C28      1.0000 0.37719  0.89376  0.14602  Biso   1.000  C
  H27      1.0000 0.50645  0.77868  0.09751  Biso   1.000  H
  O6       1.0000 0.97621  0.71527  0.69823  Biso   1.000  O
  H28      1.0000 0.95948  0.52045  0.62998  Biso   1.000  H
  H29      1.0000 0.84893  0.62294  0.63383  Biso   1.000  H
  C29      1.0000 0.13121  0.23076  0.83233  Biso   1.000  C
  N2       1.0000 0.13322  0.94676  0.89378  Biso   1.000  N
  H30      1.0000 0.18100  0.71987  0.91448  Biso   1.000  H
  H31      1.0000 0.27372  0.82551  0.87602  Biso   1.000  H
  H32      1.0000 0.14511  0.96636  0.04840  Biso   1.000  H
  C30      1.0000 0.27028  0.95220  0.13302  Biso   1.000  C
  H33      1.0000 0.41250  0.90779  0.19640  Biso   1.000  H
  C31      1.0000 0.95053  0.66094  0.77340  Biso   1.000  C
  C32      1.0000 0.20023  0.09729  0.87301  Biso   1.000  C
  H34      1.0000 0.06808  0.26718  0.86248  Biso   1.000  H
  H35      1.0000 0.10932  0.20946  0.77647  Biso   1.000  H
  C33      1.0000 0.06581  0.89654  0.82288  Biso   1.000  C
  H36      1.0000 0.23398  0.00605  0.17353  Biso   1.000  H
  C34      1.0000 0.88849  0.52239  0.78580  Biso   1.000  C
  C35      1.0000 0.99150  0.75387  0.83768  Biso   1.000  C
  H37      1.0000 0.25929  0.06595  0.83768  Biso   1.000  H
  H38      1.0000 0.23572  0.14000  0.92200  Biso   1.000  H
  H39      1.0000 0.01951  0.98681  0.80452  Biso   1.000  H
  H40      1.0000 0.11548  0.86955  0.78020  Biso   1.000  H
  H41      1.0000 0.86424  0.45765  0.74283  Biso   1.000  H
  C36      1.0000 0.86334  0.48245  0.86453  Biso   1.000  C
  C37      1.0000 0.96354  0.70970  0.91400  Biso   1.000  C
  H42      1.0000 0.82088  0.39037  0.87361  Biso   1.000  H
  C38      1.0000 0.89911  0.57490  0.92862  Biso   1.000  C
  H43      1.0000 0.98890  0.77275  0.95727  Biso   1.000  H
  H44      1.0000 0.88048  0.54780  0.98063  Biso   1.000  H
  C39      1.0000 0.39912  0.42510  0.42859  Biso   1.000  C
  C40      1.0000 0.36327  0.51755  0.36449  Biso   1.000  C
  C41      1.0000 0.46347  0.29030  0.41403  Biso   1.000  C
  H45      1.0000 0.38048  0.45220  0.48059  Biso   1.000  H
  C42      1.0000 0.38850  0.47761  0.28583  Biso   1.000  C
  H46      1.0000 0.32089  0.60963  0.37358  Biso   1.000  H
  C43      1.0000 0.49152  0.24613  0.33771  Biso   1.000  C
  H47      1.0000 0.48891  0.22725  0.45730  Biso   1.000  H
  C44      1.0000 0.45054  0.33906  0.27343  Biso   1.000  C
  H48      1.0000 0.36416  0.54235  0.24279  Biso   1.000  H
  C45      1.0000 0.56582  0.10346  0.32290  Biso   1.000  C
  O7       1.0000 0.47622  0.28473  0.19820  Biso   1.000  O
  N3       1.0000 0.63323  0.05324  0.39380  Biso   1.000  N
  H49      1.0000 0.51952  0.01319  0.30449  Biso   1.000  H
  H50      1.0000 0.61549  0.13045  0.28017  Biso   1.000  H
  C46      1.0000 0.42969  0.37028  0.13043  Biso   1.000  C
  C47      1.0000 0.71652  0.17449  0.41577  Biso   1.000  C
  C48      1.0000 0.70016  0.90271  0.37298  Biso   1.000  C
  H51      1.0000 0.45949  0.47955  0.13000  Biso   1.000  H
  H52      1.0000 0.34894  0.37706  0.13380  Biso   1.000  H
  C49      1.0000 0.45781  0.28606  0.05537  Biso   1.000  C
  H53      1.0000 0.68101  0.28013  0.41451  Biso   1.000  H
  H54      1.0000 0.77373  0.17449  0.37599  Biso   1.000  H
  C50      1.0000 0.77129  0.14908  0.49702  Biso   1.000  C
  H55      1.0000 0.75930  0.93405  0.33771  Biso   1.000  H
  H56      1.0000 0.73573  0.86000  0.42197  Biso   1.000  H
  C51      1.0000 0.63121  0.76924  0.33229  Biso   1.000  C
  O8       1.0000 0.57452  0.29235  0.04803  Biso   1.000  O
  H57      1.0000 0.43312  0.17425  0.05730  Biso   1.000  H
  H58      1.0000 0.42024  0.33797  0.00951  Biso   1.000  H
  C52      1.0000 0.71780  0.07115  0.55781  Biso   1.000  C
  C53      1.0000 0.87838  0.20644  0.51327  Biso   1.000  C
  O9       1.0000 0.72888  0.67413  0.34343  Biso   1.000  O
  H59      1.0000 0.56810  0.73282  0.36251  Biso   1.000  H
  H60      1.0000 0.60933  0.79054  0.27650  Biso   1.000  H
  C54      1.0000 0.62161  0.20644  0.98670  Biso   1.000  C
  H61      1.0000 0.64512  0.03364  0.54842  Biso   1.000  H
  C55      1.0000 0.77029  0.04780  0.63299  Biso   1.000  C
  O10      1.0000 0.92547  0.29235  0.45200  Biso   1.000  O
  C56      1.0000 0.93359  0.18417  0.58773  Biso   1.000  C
  C57      1.0000 0.71954  0.56196  0.27842  Biso   1.000  C
  C58      1.0000 0.72870  0.14908  0.00301  Biso   1.000  C
  C59      1.0000 0.56640  0.18417  0.91231  Biso   1.000  C
  C60      1.0000 0.87720  0.10624  0.64599  Biso   1.000  C
  H62      1.0000 0.73399  0.99395  0.67349  Biso   1.000  H
  C61      1.0000 0.04218  0.28606  0.44460  Biso   1.000  C
  H63      1.0000 0.00646  0.22132  0.59748  Biso   1.000  H
  C62      1.0000 0.78054  0.56196  0.22161  Biso   1.000  C
  H64      1.0000 0.72534  0.45499  0.30220  Biso   1.000  H
  H65      1.0000 0.64351  0.57176  0.25598  Biso   1.000  H
  C63      1.0000 0.78347  0.17449  0.08420  Biso   1.000  C
  C64      1.0000 0.78219  0.07115  0.94222  Biso   1.000  C
  C65      1.0000 0.62279  0.10624  0.85399  Biso   1.000  C
  H66      1.0000 0.49353  0.22132  0.90250  Biso   1.000  H
  H67      1.0000 0.91252  0.09221  0.69642  Biso   1.000  H
  C66      1.0000 0.07030  0.37028  0.36961  Biso   1.000  C
  H68      1.0000 0.06687  0.17425  0.44268  Biso   1.000  H
  H69      1.0000 0.07984  0.33797  0.49052  Biso   1.000  H
  O11      1.0000 0.77111  0.67413  0.15661  Biso   1.000  O
  H70      1.0000 0.77473  0.45499  0.19777  Biso   1.000  H
  H71      1.0000 0.85648  0.57176  0.24400  Biso   1.000  H
  N4       1.0000 0.86684  0.05324  0.10623  Biso   1.000  N
  H72      1.0000 0.81898  0.28013  0.08553  Biso   1.000  H
  H73      1.0000 0.72626  0.17449  0.12399  Biso   1.000  H
  H74      1.0000 0.85495  0.03364  0.95161  Biso   1.000  H
  C67      1.0000 0.72970  0.04780  0.86699  Biso   1.000  C
  H75      1.0000 0.58756  0.09221  0.80361  Biso   1.000  H
  O12      1.0000 0.02377  0.28473  0.30178  Biso   1.000  O
  H76      1.0000 0.04050  0.47955  0.37003  Biso   1.000  H
  H77      1.0000 0.15113  0.37706  0.36618  Biso   1.000  H
  C68      1.0000 0.86877  0.76924  0.16768  Biso   1.000  C
  C69      1.0000 0.93416  0.10346  0.17707  Biso   1.000  C
  C70      1.0000 0.79983  0.90271  0.12699  Biso   1.000  C
  H78      1.0000 0.76600  0.99395  0.82648  Biso   1.000  H
  C71      1.0000 0.04953  0.33906  0.22660  Biso   1.000  C
  H79      1.0000 0.93190  0.73282  0.13753  Biso   1.000  H
  H80      1.0000 0.89066  0.79054  0.22347  Biso   1.000  H
  H81      1.0000 0.98047  0.01319  0.19549  Biso   1.000  H
  H82      1.0000 0.88450  0.13045  0.21980  Biso   1.000  H
  C72      1.0000 0.00848  0.24613  0.16232  Biso   1.000  C
  H83      1.0000 0.74069  0.93405  0.16232  Biso   1.000  H
  H84      1.0000 0.76434  0.86000  0.07800  Biso   1.000  H
  C73      1.0000 0.11149  0.47761  0.21421  Biso   1.000  C
  C74      1.0000 0.03652  0.29030  0.08601  Biso   1.000  C
  H85      1.0000 0.13583  0.54235  0.25718  Biso   1.000  H
  C75      1.0000 0.13672  0.51755  0.13548  Biso   1.000  C
  C76      1.0000 0.10087  0.42510  0.07138  Biso   1.000  C
  H86      1.0000 0.01108  0.22725  0.04267  Biso   1.000  H
  H87      1.0000 0.17910  0.60963  0.12639  Biso   1.000  H
  H88      1.0000 0.11950  0.45220  0.01938  Biso   1.000  H
  Ne1      1.0000 0.75000  0.14741  0.25000  Biso   1.000  Ne
  He1      1.0000 0.83904  0.07849  0.30678  Biso   1.000  He
  He2      1.0000 0.75289  0.38587  0.25037  Biso   1.000  He
  He3      1.0000 0.71735  0.09934  0.21643  Biso   1.000  He
  Ar1      1.0000 0.75000  0.14741  0.25000  Biso   1.000  Ar
  Ne2      1.0000 0.25000  0.85259  0.75000  Biso   1.000  Ne
  He4      1.0000 0.33798  0.92107  0.80634  Biso   1.000  He
  He5      1.0000 0.24231  0.78172  0.73424  Biso   1.000  He
  He6      1.0000 0.21076  0.90313  0.71374  Biso   1.000  He
  Ar2      1.0000 0.24999  0.85258  0.75001  Biso   1.000  Ar
