data_image0
_cell_length_a       13.969
_cell_length_b       27.502
_cell_length_c       18.498
_cell_angle_alpha    90
_cell_angle_beta     90.15
_cell_angle_gamma    90

_symmetry_space_group_name_H-M    "P 1"
_symmetry_int_tables_number       1

loop_
  _symmetry_equiv_pos_as_xyz
  'x, y, z'

loop_
  _atom_site_label
  _atom_site_occupancy
  _atom_site_fract_x
  _atom_site_fract_y
  _atom_site_fract_z
  _atom_site_thermal_displace_type
  _atom_site_B_iso_or_equiv
  _atom_site_type_symbol
  C1       1.0000 0.35802  0.50411  0.68440  Biso   1.000  C
  C2       1.0000 0.43409  0.48040  0.71819  Biso   1.000  C
  C3       1.0000 0.36163  0.55421  0.67310  Biso   1.000  C
  H1       1.0000 0.30363  0.48611  0.66910  Biso   1.000  H
  C4       1.0000 0.43257  0.42539  0.73376  Biso   1.000  C
  C5       1.0000 0.51634  0.50680  0.73841  Biso   1.000  C
  C6       1.0000 0.43966  0.58090  0.69381  Biso   1.000  C
  C7       1.0000 0.27496  0.58359  0.63937  Biso   1.000  C
  C8       1.0000 0.37875  0.39612  0.67537  Biso   1.000  C
  C9       1.0000 0.39847  0.41921  0.80928  Biso   1.000  C
  H2       1.0000 0.50064  0.41412  0.73278  Biso   1.000  H
  C10      1.0000 0.51925  0.55680  0.73057  Biso   1.000  C
  O1       1.0000 0.59654  0.48440  0.76500  Biso   1.000  O
  O2       1.0000 0.44984  0.63032  0.67878  Biso   1.000  O
  H3       1.0000 0.30143  0.61279  0.61418  Biso   1.000  H
  C11      1.0000 0.21555  0.60112  0.70251  Biso   1.000  C
  C12      1.0000 0.21994  0.55389  0.58450  Biso   1.000  C
  C13      1.0000 0.38658  0.34128  0.68489  Biso   1.000  C
  H4       1.0000 0.31024  0.40539  0.67640  Biso   1.000  H
  H5       1.0000 0.40435  0.40499  0.62737  Biso   1.000  H
  C14      1.0000 0.46273  0.42201  0.86599  Biso   1.000  C
  C15      1.0000 0.30218  0.41321  0.82998  Biso   1.000  C
  C16      1.0000 0.59436  0.58628  0.75490  Biso   1.000  C
  C17      1.0000 0.59830  0.47018  0.83939  Biso   1.000  C
  C18      1.0000 0.40742  0.66450  0.72819  Biso   1.000  C
  C19      1.0000 0.23778  0.64781  0.73387  Biso   1.000  C
  C20      1.0000 0.14135  0.57479  0.73268  Biso   1.000  C
  H6       1.0000 0.18466  0.52760  0.60937  Biso   1.000  H
  H7       1.0000 0.26528  0.53869  0.55006  Biso   1.000  H
  C21      1.0000 0.14942  0.58628  0.54330  Biso   1.000  C
  C22      1.0000 0.34502  0.30511  0.63099  Biso   1.000  C
  H8       1.0000 0.35194  0.32569  0.64418  Biso   1.000  H
  H9       1.0000 0.35783  0.33361  0.73241  Biso   1.000  H
  H10      1.0000 0.45568  0.33368  0.68889  Biso   1.000  H
  H11      1.0000 0.35245  0.33230  0.72981  Biso   1.000  H
  C23      1.0000 0.48402  0.32001  0.68797  Biso   1.000  C
  C24      1.0000 0.43886  0.42030  0.93886  Biso   1.000  C
  O3       1.0000 0.56233  0.42401  0.85177  Biso   1.000  O
  H12      1.0000 0.25595  0.41110  0.79236  Biso   1.000  H
  C25      1.0000 0.26828  0.41001  0.90140  Biso   1.000  C
  C26      1.0000 0.65658  0.61330  0.78030  Biso   1.000  C
  H13      1.0000 0.66508  0.47149  0.85718  Biso   1.000  H
  H14      1.0000 0.56039  0.49382  0.86777  Biso   1.000  H
  H15      1.0000 0.44644  0.69449  0.72997  Biso   1.000  H
  H16      1.0000 0.40544  0.65039  0.77728  Biso   1.000  H
  O4       1.0000 0.31048  0.67610  0.70386  Biso   1.000  O
  C27      1.0000 0.18644  0.66599  0.79220  Biso   1.000  C
  C28      1.0000 0.08808  0.59290  0.79149  Biso   1.000  C
  H17      1.0000 0.12596  0.54371  0.71338  Biso   1.000  H
  H18      1.0000 0.10566  0.60170  0.57850  Biso   1.000  H
  H19      1.0000 0.18585  0.61272  0.51941  Biso   1.000  H
  C29      1.0000 0.08967  0.56010  0.48627  Biso   1.000  C
  C30      1.0000 0.23602  0.30551  0.63899  Biso   1.000  C
  H20      1.0000 0.36253  0.31441  0.58120  Biso   1.000  H
  H21      1.0000 0.36982  0.27209  0.64077  Biso   1.000  H
  H22      1.0000 0.51275  0.32739  0.73608  Biso   1.000  H
  H23      1.0000 0.52434  0.33499  0.65067  Biso   1.000  H
  C31      1.0000 0.48105  0.26602  0.67748  Biso   1.000  C
  C32      1.0000 0.34027  0.41532  0.95411  Biso   1.000  C
  C33      1.0000 0.50699  0.42611  0.99416  Biso   1.000  C
  C34      1.0000 0.16620  0.40841  0.92145  Biso   1.000  C
  Br1      1.0000 0.75292  0.66053  0.81679  Biso   1.000  Br
  C35      1.0000 0.11194  0.63730  0.81928  Biso   1.000  C
  C36      1.0000 0.21453  0.71158  0.82198  Biso   1.000  C
  C37      1.0000 0.00845  0.56250  0.82636  Biso   1.000  C
  H24      1.0000 0.13423  0.54171  0.45497  Biso   1.000  H
  H25      1.0000 0.04931  0.53600  0.51157  Biso   1.000  H
  C38      1.0000 0.02844  0.58799  0.44010  Biso   1.000  C
  C39      1.0000 0.18803  0.26809  0.59098  Biso   1.000  C
  H26      1.0000 0.21192  0.33830  0.62677  Biso   1.000  H
  H27      1.0000 0.21987  0.29881  0.69008  Biso   1.000  H
  H28      1.0000 0.43636  0.25191  0.71338  Biso   1.000  H
  H29      1.0000 0.54544  0.25282  0.68797  Biso   1.000  H
  C40      1.0000 0.45101  0.24882  0.60309  Biso   1.000  C
  O5       1.0000 0.31446  0.40961  0.02693  Biso   1.000  O
  C41      1.0000 0.56821  0.43440  0.03871  Biso   1.000  C
  C42      1.0000 0.13195  0.45960  0.93248  Biso   1.000  C
  H30      1.0000 0.16350  0.39230  0.97000  Biso   1.000  H
  C43      1.0000 0.10438  0.37699  0.87037  Biso   1.000  C
  O6       1.0000 0.05866  0.65770  0.87685  Biso   1.000  O
  C44      1.0000 0.23466  0.75060  0.84539  Biso   1.000  C
  C45      1.0000 0.05368  0.53349  0.88469  Biso   1.000  C
  H31      1.0000 0.96365  0.58588  0.85020  Biso   1.000  H
  C46      1.0000 0.94920  0.53302  0.77176  Biso   1.000  C
  H32      1.0000 0.06764  0.60992  0.40978  Biso   1.000  H
  H33      1.0000 0.98545  0.60832  0.47000  Biso   1.000  H
  C47      1.0000 0.96792  0.55451  0.39107  Biso   1.000  C
  H34      1.0000 0.22012  0.23631  0.59688  Biso   1.000  H
  H35      1.0000 0.19465  0.27809  0.53968  Biso   1.000  H
  C48      1.0000 0.08107  0.26300  0.60899  Biso   1.000  C
  H36      1.0000 0.48117  0.27020  0.56671  Biso   1.000  H
  H37      1.0000 0.38063  0.25289  0.59861  Biso   1.000  H
  C49      1.0000 0.47607  0.19511  0.58401  Biso   1.000  C
  C50      1.0000 0.28315  0.45291  0.06028  Biso   1.000  C
  Br2      1.0000 0.66762  0.44382  0.11494  Biso   1.000  Br
  C51      1.0000 0.14506  0.48222  0.99946  Biso   1.000  C
  C52      1.0000 0.08465  0.48589  0.87648  Biso   1.000  C
  H38      1.0000 0.10786  0.39041  0.82079  Biso   1.000  H
  H39      1.0000 0.03679  0.37852  0.88610  Biso   1.000  H
  C53      1.0000 0.13788  0.32259  0.86929  Biso   1.000  C
  C54      1.0000 0.08554  0.64170  0.94746  Biso   1.000  C
  Br3      1.0000 0.28325  0.81500  0.88129  Biso   1.000  Br
  C55      1.0000 0.06838  0.55560  0.95416  Biso   1.000  C
  H40      1.0000 0.99015  0.50691  0.75187  Biso   1.000  H
  H41      1.0000 0.89596  0.51720  0.79809  Biso   1.000  H
  C56      1.0000 0.90674  0.56200  0.70840  Biso   1.000  C
  H42      1.0000 0.01093  0.53149  0.36588  Biso   1.000  H
  H43      1.0000 0.92372  0.53520  0.42151  Biso   1.000  H
  C57      1.0000 0.91154  0.58199  0.33658  Biso   1.000  C
  H44      1.0000 0.04756  0.25809  0.56439  Biso   1.000  H
  H45      1.0000 0.05946  0.29209  0.63191  Biso   1.000  H
  H46      1.0000 0.06994  0.23558  0.64050  Biso   1.000  H
  H47      1.0000 0.53622  0.18820  0.60969  Biso   1.000  H
  H48      1.0000 0.48456  0.18999  0.53238  Biso   1.000  H
  H49      1.0000 0.42596  0.17330  0.60239  Biso   1.000  H
  H50      1.0000 0.31256  0.48109  0.03568  Biso   1.000  H
  H51      1.0000 0.30466  0.45320  0.11142  Biso   1.000  H
  O7       1.0000 0.18106  0.45738  0.05769  Biso   1.000  O
  C58      1.0000 0.11425  0.53109  0.00952  Biso   1.000  C
  H52      1.0000 0.07397  0.47011  0.83150  Biso   1.000  H
  H53      1.0000 0.19885  0.31969  0.84247  Biso   1.000  H
  H54      1.0000 0.14858  0.31089  0.91929  Biso   1.000  H
  C59      1.0000 0.06109  0.29209  0.83280  Biso   1.000  C
  O8       1.0000 0.03257  0.60119  0.96989  Biso   1.000  O
  H55      1.0000 0.15448  0.63330  0.94767  Biso   1.000  H
  H56      1.0000 0.07578  0.66861  0.98227  Biso   1.000  H
  H57      1.0000 0.87853  0.59239  0.72759  Biso   1.000  H
  H58      1.0000 0.95946  0.57130  0.67548  Biso   1.000  H
  C60      1.0000 0.83344  0.53651  0.66651  Biso   1.000  C
  H59      1.0000 0.90280  0.56200  0.29317  Biso   1.000  H
  H60      1.0000 0.94571  0.61192  0.32382  Biso   1.000  H
  H61      1.0000 0.84883  0.59028  0.35680  Biso   1.000  H
  C61      1.0000 0.13373  0.55621  0.07639  Biso   1.000  C
  H62      1.0000 0.06134  0.30111  0.78101  Biso   1.000  H
  C62      1.0000 0.06074  0.23929  0.83577  Biso   1.000  C
  H63      1.0000 0.99887  0.30311  0.85247  Biso   1.000  H
  H64      1.0000 0.77405  0.53462  0.69548  Biso   1.000  H
  H65      1.0000 0.85538  0.50280  0.65726  Biso   1.000  H
  C63      1.0000 0.81049  0.56149  0.59261  Biso   1.000  C
  C64      1.0000 0.15455  0.57719  0.13321  Biso   1.000  C
  H66      1.0000 0.10926  0.23118  0.87296  Biso   1.000  H
  H67      1.0000 0.08886  0.22911  0.78917  Biso   1.000  H
  C65      1.0000 0.97946  0.20311  0.84896  Biso   1.000  C
  H68      1.0000 0.87096  0.56621  0.56579  Biso   1.000  H
  H69      1.0000 0.76937  0.53949  0.56368  Biso   1.000  H
  C66      1.0000 0.76004  0.61050  0.60001  Biso   1.000  C
  Br4      1.0000 0.18707  0.61181  0.22262  Biso   1.000  Br
  H70      1.0000 0.00148  0.17671  0.88140  Biso   1.000  H
  H71      1.0000 0.95876  0.18839  0.80258  Biso   1.000  H
  C67      1.0000 0.89354  0.23140  0.88469  Biso   1.000  C
  H72      1.0000 0.69965  0.60719  0.62731  Biso   1.000  H
  H73      1.0000 0.80172  0.63439  0.62499  Biso   1.000  H
  C68      1.0000 0.74102  0.62592  0.52238  Biso   1.000  C
  H74      1.0000 0.87145  0.25689  0.85161  Biso   1.000  H
  H75      1.0000 0.91474  0.24620  0.93016  Biso   1.000  H
  H76      1.0000 0.84096  0.20871  0.89426  Biso   1.000  H
  H77      1.0000 0.73168  0.59701  0.49227  Biso   1.000  H
  H78      1.0000 0.79572  0.64450  0.50416  Biso   1.000  H
  H79      1.0000 0.68331  0.64621  0.52049  Biso   1.000  H
  C69      1.0000 0.63840  0.44579  0.32690  Biso   1.000  C
  C70      1.0000 0.56044  0.41910  0.30620  Biso   1.000  C
  C71      1.0000 0.64201  0.49589  0.31560  Biso   1.000  C
  C72      1.0000 0.72514  0.41641  0.36058  Biso   1.000  C
  C73      1.0000 0.48085  0.44320  0.26938  Biso   1.000  C
  O9       1.0000 0.55026  0.36972  0.32117  Biso   1.000  O
  C74      1.0000 0.56601  0.51960  0.28182  Biso   1.000  C
  H80      1.0000 0.69640  0.51389  0.33090  Biso   1.000  H
  H81      1.0000 0.69867  0.38721  0.38577  Biso   1.000  H
  C75      1.0000 0.78455  0.39892  0.29749  Biso   1.000  C
  C76      1.0000 0.78016  0.44611  0.41551  Biso   1.000  C
  C77      1.0000 0.40575  0.41372  0.24511  Biso   1.000  C
  C78      1.0000 0.48369  0.49320  0.26160  Biso   1.000  C
  C79      1.0000 0.59261  0.33550  0.27181  Biso   1.000  C
  C80      1.0000 0.56753  0.57461  0.26619  Biso   1.000  C
  C81      1.0000 0.76232  0.35219  0.26608  Biso   1.000  C
  C82      1.0000 0.85875  0.42521  0.26727  Biso   1.000  C
  H82      1.0000 0.81544  0.47240  0.39058  Biso   1.000  H
  H83      1.0000 0.73483  0.46131  0.44989  Biso   1.000  H
  C83      1.0000 0.85068  0.41372  0.45670  Biso   1.000  C
  C84      1.0000 0.34352  0.38670  0.21970  Biso   1.000  C
  O10      1.0000 0.40349  0.51560  0.23500  Biso   1.000  O
  H84      1.0000 0.55366  0.30551  0.26998  Biso   1.000  H
  H85      1.0000 0.59466  0.34961  0.22267  Biso   1.000  H
  O11      1.0000 0.68962  0.32390  0.29609  Biso   1.000  O
  C85      1.0000 0.60163  0.58079  0.19067  Biso   1.000  C
  H86      1.0000 0.49946  0.58588  0.26722  Biso   1.000  H
  C86      1.0000 0.62136  0.60392  0.32458  Biso   1.000  C
  C87      1.0000 0.81359  0.33401  0.20781  Biso   1.000  C
  C88      1.0000 0.91203  0.40710  0.20851  Biso   1.000  C
  H87      1.0000 0.87414  0.45629  0.28657  Biso   1.000  H
  H88      1.0000 0.89444  0.39830  0.42151  Biso   1.000  H
  H89      1.0000 0.81425  0.38732  0.48059  Biso   1.000  H
  C89      1.0000 0.91044  0.43990  0.51368  Biso   1.000  C
  Br5      1.0000 0.24718  0.33947  0.18321  Biso   1.000  Br
  C90      1.0000 0.40180  0.52982  0.16061  Biso   1.000  C
  C91      1.0000 0.53730  0.57799  0.13401  Biso   1.000  C
  C92      1.0000 0.69792  0.58679  0.17002  Biso   1.000  C
  H90      1.0000 0.68986  0.59461  0.32360  Biso   1.000  H
  H91      1.0000 0.59575  0.59501  0.37258  Biso   1.000  H
  C93      1.0000 0.61352  0.65872  0.31512  Biso   1.000  C
  C94      1.0000 0.88809  0.36270  0.18072  Biso   1.000  C
  C95      1.0000 0.78550  0.28842  0.17802  Biso   1.000  C
  C96      1.0000 0.99165  0.43750  0.17359  Biso   1.000  C
  H92      1.0000 0.86587  0.45829  0.54498  Biso   1.000  H
  H93      1.0000 0.95072  0.46400  0.48838  Biso   1.000  H
  C97      1.0000 0.97166  0.41201  0.55990  Biso   1.000  C
  H94      1.0000 0.33502  0.52851  0.14277  Biso   1.000  H
  H95      1.0000 0.43972  0.50622  0.13218  Biso   1.000  H
  O12      1.0000 0.43770  0.57599  0.14818  Biso   1.000  O
  C98      1.0000 0.56124  0.57970  0.06109  Biso   1.000  C
  H96      1.0000 0.74415  0.58890  0.20759  Biso   1.000  H
  C99      1.0000 0.73182  0.58999  0.09861  Biso   1.000  C
  H97      1.0000 0.64220  0.66639  0.26760  Biso   1.000  H
  H98      1.0000 0.54442  0.66632  0.31112  Biso   1.000  H
  C100     1.0000 0.65501  0.69489  0.36901  Biso   1.000  C
  H99      1.0000 0.64765  0.66770  0.27019  Biso   1.000  H
  H100     1.0000 0.64817  0.67431  0.35577  Biso   1.000  H
  C101     1.0000 0.51601  0.67999  0.31198  Biso   1.000  C
  O13      1.0000 0.94144  0.34230  0.12309  Biso   1.000  O
  C102     1.0000 0.76544  0.24940  0.15461  Biso   1.000  C
  C103     1.0000 0.94642  0.46651  0.11531  Biso   1.000  C
  H101     1.0000 0.03638  0.41412  0.14980  Biso   1.000  H
  C104     1.0000 0.05090  0.46698  0.22819  Biso   1.000  C
  H102     1.0000 0.93246  0.39012  0.59017  Biso   1.000  H
  H103     1.0000 0.01465  0.39172  0.53001  Biso   1.000  H
  C105     1.0000 0.03218  0.44549  0.60888  Biso   1.000  C
  C106     1.0000 0.65983  0.58468  0.04590  Biso   1.000  C
  C107     1.0000 0.49311  0.57389  0.00578  Biso   1.000  C
  C108     1.0000 0.83390  0.59159  0.07850  Biso   1.000  C
  H104     1.0000 0.63750  0.68559  0.41880  Biso   1.000  H
  H105     1.0000 0.63021  0.72791  0.35918  Biso   1.000  H
  C109     1.0000 0.76401  0.69449  0.36101  Biso   1.000  C
  H106     1.0000 0.48735  0.67261  0.26392  Biso   1.000  H
  H107     1.0000 0.47576  0.66501  0.34928  Biso   1.000  H
  C110     1.0000 0.51905  0.73402  0.32247  Biso   1.000  C
  C111     1.0000 0.91449  0.35830  0.05249  Biso   1.000  C
  Br6      1.0000 0.71686  0.18500  0.11872  Biso   1.000  Br
  C112     1.0000 0.91545  0.51411  0.12347  Biso   1.000  C
  C113     1.0000 0.93172  0.44440  0.04579  Biso   1.000  C
  H108     1.0000 0.00995  0.49309  0.24808  Biso   1.000  H
  H109     1.0000 0.10414  0.48280  0.20191  Biso   1.000  H
  C114     1.0000 0.09329  0.43800  0.29160  Biso   1.000  C
  H110     1.0000 0.98917  0.46851  0.63407  Biso   1.000  H
  H111     1.0000 0.07631  0.46480  0.57850  Biso   1.000  H
  C115     1.0000 0.08856  0.41801  0.66337  Biso   1.000  C
  O14      1.0000 0.68564  0.59039  0.97308  Biso   1.000  O
  C116     1.0000 0.43182  0.56560  0.96129  Biso   1.000  C
  C117     1.0000 0.86808  0.54040  0.06752  Biso   1.000  C
  H112     1.0000 0.83660  0.60770  0.03000  Biso   1.000  H
  C118     1.0000 0.89572  0.62301  0.12958  Biso   1.000  C
  H113     1.0000 0.78811  0.66170  0.37318  Biso   1.000  H
  H114     1.0000 0.78023  0.70119  0.30987  Biso   1.000  H
  C119     1.0000 0.81207  0.73191  0.40896  Biso   1.000  C
  H115     1.0000 0.56374  0.74809  0.28657  Biso   1.000  H
  H116     1.0000 0.45466  0.74722  0.31198  Biso   1.000  H
  C120     1.0000 0.54902  0.75122  0.39691  Biso   1.000  C
  H117     1.0000 0.84562  0.36670  0.05228  Biso   1.000  H
  H118     1.0000 0.92432  0.33139  0.01768  Biso   1.000  H
  O15      1.0000 0.96753  0.39881  0.03011  Biso   1.000  O
  H119     1.0000 0.92613  0.52989  0.16851  Biso   1.000  H
  C121     1.0000 0.88586  0.46891  0.99049  Biso   1.000  C
  H120     1.0000 0.12150  0.40761  0.27241  Biso   1.000  H
  H121     1.0000 0.04064  0.42870  0.32447  Biso   1.000  H
  C122     1.0000 0.16659  0.46349  0.33350  Biso   1.000  C
  H122     1.0000 0.09723  0.43800  0.70678  Biso   1.000  H
  H123     1.0000 0.05432  0.38812  0.67618  Biso   1.000  H
  H124     1.0000 0.15127  0.40972  0.64321  Biso   1.000  H
  C123     1.0000 0.71695  0.54709  0.93967  Biso   1.000  C
  Br7      1.0000 0.33248  0.55618  0.88501  Biso   1.000  Br
  C124     1.0000 0.85504  0.51782  0.00049  Biso   1.000  C
  H125     1.0000 0.89224  0.60959  0.17921  Biso   1.000  H
  H126     1.0000 0.96331  0.62152  0.11390  Biso   1.000  H
  C125     1.0000 0.86222  0.67741  0.13072  Biso   1.000  C
  H127     1.0000 0.77991  0.76369  0.40307  Biso   1.000  H
  H128     1.0000 0.80545  0.72191  0.46027  Biso   1.000  H
  C126     1.0000 0.91903  0.73700  0.39102  Biso   1.000  C
  H129     1.0000 0.51893  0.72980  0.43329  Biso   1.000  H
  H130     1.0000 0.61940  0.74711  0.40140  Biso   1.000  H
  C127     1.0000 0.52403  0.80489  0.41599  Biso   1.000  C
  C128     1.0000 0.86637  0.44379  0.92356  Biso   1.000  C
  H131     1.0000 0.22605  0.46538  0.30452  Biso   1.000  H
  H132     1.0000 0.14472  0.49720  0.34269  Biso   1.000  H
  C129     1.0000 0.18961  0.43851  0.40740  Biso   1.000  C
  H133     1.0000 0.68754  0.51891  0.96427  Biso   1.000  H
  H134     1.0000 0.69544  0.54680  0.88858  Biso   1.000  H
  O16      1.0000 0.81904  0.54262  0.94226  Biso   1.000  O
  H135     1.0000 0.80125  0.68031  0.15748  Biso   1.000  H
  H136     1.0000 0.85152  0.68911  0.08071  Biso   1.000  H
  C130     1.0000 0.93901  0.70791  0.16721  Biso   1.000  C
  H137     1.0000 0.95254  0.74191  0.43562  Biso   1.000  H
  H138     1.0000 0.94064  0.70791  0.36810  Biso   1.000  H
  H139     1.0000 0.93016  0.76442  0.35950  Biso   1.000  H
  H140     1.0000 0.46381  0.81180  0.39031  Biso   1.000  H
  H141     1.0000 0.51554  0.81001  0.46757  Biso   1.000  H
  H142     1.0000 0.57415  0.82670  0.39761  Biso   1.000  H
  C131     1.0000 0.84555  0.42281  0.86680  Biso   1.000  C
  H143     1.0000 0.12915  0.43379  0.43421  Biso   1.000  H
  H144     1.0000 0.23073  0.46051  0.43626  Biso   1.000  H
  C132     1.0000 0.24006  0.38950  0.39999  Biso   1.000  C
  H145     1.0000 0.93869  0.69889  0.21900  Biso   1.000  H
  C133     1.0000 0.93929  0.76071  0.16418  Biso   1.000  C
  H146     1.0000 0.00123  0.69689  0.14748  Biso   1.000  H
  Br8      1.0000 0.81296  0.38819  0.77733  Biso   1.000  Br
  H147     1.0000 0.30045  0.39281  0.37269  Biso   1.000  H
  H148     1.0000 0.19831  0.36561  0.37501  Biso   1.000  H
  C134     1.0000 0.25901  0.37412  0.47757  Biso   1.000  C
  H149     1.0000 0.89084  0.76882  0.12699  Biso   1.000  H
  H150     1.0000 0.91125  0.77089  0.21078  Biso   1.000  H
  C135     1.0000 0.02064  0.79689  0.15099  Biso   1.000  C
  H151     1.0000 0.26842  0.40299  0.50768  Biso   1.000  H
  H152     1.0000 0.20431  0.35550  0.49579  Biso   1.000  H
  H153     1.0000 0.31672  0.35379  0.47951  Biso   1.000  H
  H154     1.0000 0.99862  0.82329  0.11861  Biso   1.000  H
  H155     1.0000 0.04135  0.81161  0.19737  Biso   1.000  H
  C136     1.0000 0.10649  0.76860  0.11531  Biso   1.000  C
  H156     1.0000 0.12858  0.74311  0.14839  Biso   1.000  H
  H157     1.0000 0.08529  0.75380  0.06979  Biso   1.000  H
  H158     1.0000 0.15907  0.79129  0.10569  Biso   1.000  H
  C137     1.0000 0.76546  0.25060  0.65456  Biso   1.000  C
  C138     1.0000 0.78558  0.21158  0.67797  Biso   1.000  C
  Br9      1.0000 0.71687  0.31500  0.61866  Biso   1.000  Br
  C139     1.0000 0.81368  0.16599  0.70781  Biso   1.000  C
  C140     1.0000 0.76234  0.14781  0.76609  Biso   1.000  C
  C141     1.0000 0.88818  0.13730  0.68067  Biso   1.000  C
  C142     1.0000 0.78457  0.10108  0.79749  Biso   1.000  C
  O17      1.0000 0.68964  0.17610  0.79609  Biso   1.000  O
  C143     1.0000 0.91204  0.09290  0.70851  Biso   1.000  C
  O18      1.0000 0.94145  0.15770  0.62310  Biso   1.000  O
  C144     1.0000 0.72515  0.08359  0.86058  Biso   1.000  C
  C145     1.0000 0.85877  0.07479  0.76727  Biso   1.000  C
  C146     1.0000 0.59270  0.16450  0.77176  Biso   1.000  C
  C147     1.0000 0.99167  0.06250  0.67359  Biso   1.000  C
  C148     1.0000 0.91458  0.14170  0.55249  Biso   1.000  C
  C149     1.0000 0.63849  0.05421  0.82690  Biso   1.000  C
  H159     1.0000 0.69868  0.11279  0.88577  Biso   1.000  H
  C150     1.0000 0.78018  0.05389  0.91545  Biso   1.000  C
  H160     1.0000 0.87416  0.04371  0.78657  Biso   1.000  H
  O19      1.0000 0.55027  0.13032  0.82117  Biso   1.000  O
  H161     1.0000 0.55368  0.19449  0.76998  Biso   1.000  H
  H162     1.0000 0.59467  0.15039  0.72268  Biso   1.000  H
  C151     1.0000 0.94644  0.03349  0.61531  Biso   1.000  C
  H163     1.0000 0.03647  0.08588  0.64980  Biso   1.000  H
  C152     1.0000 0.05092  0.03302  0.72819  Biso   1.000  C
  H164     1.0000 0.84564  0.13330  0.55228  Biso   1.000  H
  H165     1.0000 0.92434  0.16861  0.51768  Biso   1.000  H
  O20      1.0000 0.96755  0.10119  0.53011  Biso   1.000  O
  C153     1.0000 0.56046  0.08090  0.80620  Biso   1.000  C
  C154     1.0000 0.64210  0.00411  0.81560  Biso   1.000  C
  H166     1.0000 0.81546  0.02760  0.89059  Biso   1.000  H
  H167     1.0000 0.73484  0.03869  0.94989  Biso   1.000  H
  C155     1.0000 0.85069  0.08628  0.95670  Biso   1.000  C
  C156     1.0000 0.91547  0.98589  0.62347  Biso   1.000  C
  C157     1.0000 0.93174  0.05560  0.54579  Biso   1.000  C
  H168     1.0000 0.00997  0.00691  0.74808  Biso   1.000  H
  H169     1.0000 0.10416  0.01720  0.70186  Biso   1.000  H
  C158     1.0000 0.09337  0.06200  0.79160  Biso   1.000  C
  C159     1.0000 0.48087  0.05680  0.76938  Biso   1.000  C
  C160     1.0000 0.56603  0.98040  0.78176  Biso   1.000  C
  H170     1.0000 0.69649  0.98611  0.83090  Biso   1.000  H
  H171     1.0000 0.89445  0.10170  0.92145  Biso   1.000  H
  H172     1.0000 0.81427  0.11268  0.98060  Biso   1.000  H
  C161     1.0000 0.91045  0.06010  0.01368  Biso   1.000  C
  C162     1.0000 0.86817  0.95960  0.56747  Biso   1.000  C
  H173     1.0000 0.92615  0.97011  0.66851  Biso   1.000  H
  C163     1.0000 0.88587  0.03109  0.49049  Biso   1.000  C
  H174     1.0000 0.12158  0.09239  0.77236  Biso   1.000  H
  H175     1.0000 0.04066  0.07130  0.82447  Biso   1.000  H
  C164     1.0000 0.16668  0.03651  0.83350  Biso   1.000  C
  C165     1.0000 0.40576  0.08628  0.74511  Biso   1.000  C
  C166     1.0000 0.48378  0.00680  0.76160  Biso   1.000  C
  C167     1.0000 0.56755  0.92539  0.76619  Biso   1.000  C
  H176     1.0000 0.95081  0.03600  0.98838  Biso   1.000  H
  H177     1.0000 0.86582  0.04171  0.04498  Biso   1.000  H
  C168     1.0000 0.97168  0.08799  0.05990  Biso   1.000  C
  C169     1.0000 0.83392  0.90841  0.57850  Biso   1.000  C
  C170     1.0000 0.85505  0.98222  0.50049  Biso   1.000  C
  C171     1.0000 0.86631  0.05621  0.42361  Biso   1.000  C
  H178     1.0000 0.22607  0.03462  0.80447  Biso   1.000  H
  H179     1.0000 0.14474  0.00280  0.84269  Biso   1.000  H
  C172     1.0000 0.18963  0.06149  0.90740  Biso   1.000  C
  C173     1.0000 0.34354  0.11330  0.71970  Biso   1.000  C
  O21      1.0000 0.40358  0.98440  0.73500  Biso   1.000  O
  C174     1.0000 0.60165  0.91921  0.69067  Biso   1.000  C
  H180     1.0000 0.49947  0.91412  0.76717  Biso   1.000  H
  C175     1.0000 0.62137  0.89612  0.82458  Biso   1.000  C
  H181     1.0000 0.93248  0.10988  0.09018  Biso   1.000  H
  H182     1.0000 0.01467  0.10828  0.03001  Biso   1.000  H
  C176     1.0000 0.03212  0.05451  0.10888  Biso   1.000  C
  C177     1.0000 0.73183  0.91001  0.59861  Biso   1.000  C
  H183     1.0000 0.83661  0.89230  0.53001  Biso   1.000  H
  C178     1.0000 0.89573  0.87699  0.62958  Biso   1.000  C
  O22      1.0000 0.81906  0.95742  0.44227  Biso   1.000  O
  C179     1.0000 0.84557  0.07719  0.36680  Biso   1.000  C
  H184     1.0000 0.12916  0.06621  0.93416  Biso   1.000  H
  H185     1.0000 0.23075  0.03949  0.93627  Biso   1.000  H
  C180     1.0000 0.24007  0.11050  0.89999  Biso   1.000  C
  Br10     1.0000 0.24720  0.16053  0.68321  Biso   1.000  Br
  C181     1.0000 0.40182  0.97022  0.66056  Biso   1.000  C
  C182     1.0000 0.53738  0.92201  0.63396  Biso   1.000  C
  C183     1.0000 0.69793  0.91321  0.66997  Biso   1.000  C
  H186     1.0000 0.68988  0.90539  0.82361  Biso   1.000  H
  H187     1.0000 0.59577  0.90499  0.87258  Biso   1.000  H
  C184     1.0000 0.61354  0.84132  0.81506  Biso   1.000  C
  H188     1.0000 0.98918  0.03149  0.13413  Biso   1.000  H
  H189     1.0000 0.07633  0.03520  0.07850  Biso   1.000  H
  C185     1.0000 0.08858  0.08199  0.16337  Biso   1.000  C
  C186     1.0000 0.65985  0.91532  0.54590  Biso   1.000  C
  H190     1.0000 0.89225  0.89041  0.67921  Biso   1.000  H
  H191     1.0000 0.96333  0.87852  0.61391  Biso   1.000  H
  C187     1.0000 0.86223  0.82259  0.63066  Biso   1.000  C
  C188     1.0000 0.71697  0.95291  0.43967  Biso   1.000  C
  Br11     1.0000 0.81297  0.11181  0.27733  Biso   1.000  Br
  H192     1.0000 0.30047  0.10719  0.87269  Biso   1.000  H
  H193     1.0000 0.19839  0.13439  0.87496  Biso   1.000  H
  C189     1.0000 0.25910  0.12592  0.97757  Biso   1.000  C
  H194     1.0000 0.33504  0.97149  0.64277  Biso   1.000  H
  H195     1.0000 0.43973  0.99382  0.63218  Biso   1.000  H
  O23      1.0000 0.43778  0.92401  0.64818  Biso   1.000  O
  C190     1.0000 0.56126  0.92030  0.56109  Biso   1.000  C
  H196     1.0000 0.74417  0.91110  0.70759  Biso   1.000  H
  H197     1.0000 0.64229  0.83361  0.76760  Biso   1.000  H
  H198     1.0000 0.54444  0.83372  0.81106  Biso   1.000  H
  C191     1.0000 0.65510  0.80511  0.86896  Biso   1.000  C
  H199     1.0000 0.64767  0.83230  0.77019  Biso   1.000  H
  H200     1.0000 0.64818  0.82569  0.85577  Biso   1.000  H
  C192     1.0000 0.51609  0.82001  0.81198  Biso   1.000  C
  H201     1.0000 0.09725  0.06200  0.20678  Biso   1.000  H
  H202     1.0000 0.05433  0.11188  0.17619  Biso   1.000  H
  H203     1.0000 0.15122  0.09028  0.14321  Biso   1.000  H
  O24      1.0000 0.68565  0.90961  0.47308  Biso   1.000  O
  H204     1.0000 0.80126  0.81969  0.65748  Biso   1.000  H
  H205     1.0000 0.85154  0.81089  0.58071  Biso   1.000  H
  C193     1.0000 0.93903  0.79209  0.66721  Biso   1.000  C
  H206     1.0000 0.68756  0.98109  0.46427  Biso   1.000  H
  H207     1.0000 0.69546  0.95320  0.38858  Biso   1.000  H
  H208     1.0000 0.20440  0.14450  0.99579  Biso   1.000  H
  H209     1.0000 0.31680  0.14621  0.97946  Biso   1.000  H
  H210     1.0000 0.26844  0.09701  0.00768  Biso   1.000  H
  C194     1.0000 0.49313  0.92611  0.50579  Biso   1.000  C
  H211     1.0000 0.63759  0.81441  0.91881  Biso   1.000  H
  H212     1.0000 0.63030  0.77209  0.85918  Biso   1.000  H
  C195     1.0000 0.76410  0.80551  0.86096  Biso   1.000  C
  H213     1.0000 0.48736  0.82739  0.76387  Biso   1.000  H
  H214     1.0000 0.47578  0.83499  0.84928  Biso   1.000  H
  C196     1.0000 0.51907  0.76602  0.82247  Biso   1.000  C
  H215     1.0000 0.93878  0.80111  0.71900  Biso   1.000  H
  C197     1.0000 0.93938  0.73929  0.66418  Biso   1.000  C
  H216     1.0000 0.00124  0.80311  0.64748  Biso   1.000  H
  C198     1.0000 0.43184  0.93440  0.46129  Biso   1.000  C
  H217     1.0000 0.78819  0.83830  0.87318  Biso   1.000  H
  H218     1.0000 0.78024  0.79881  0.80987  Biso   1.000  H
  C199     1.0000 0.81209  0.76809  0.90897  Biso   1.000  C
  H219     1.0000 0.56375  0.75191  0.78657  Biso   1.000  H
  H220     1.0000 0.45467  0.75282  0.81198  Biso   1.000  H
  C200     1.0000 0.54910  0.74882  0.89686  Biso   1.000  C
  H221     1.0000 0.89086  0.73122  0.62699  Biso   1.000  H
  H222     1.0000 0.91126  0.72911  0.71078  Biso   1.000  H
  C201     1.0000 0.02065  0.70311  0.65099  Biso   1.000  C
  Br12     1.0000 0.33250  0.94382  0.38507  Biso   1.000  Br
  H223     1.0000 0.77999  0.73631  0.90307  Biso   1.000  H
  H224     1.0000 0.80546  0.77809  0.96027  Biso   1.000  H
  C202     1.0000 0.91905  0.76300  0.89096  Biso   1.000  C
  H225     1.0000 0.51895  0.77020  0.93329  Biso   1.000  H
  H226     1.0000 0.61949  0.75289  0.90140  Biso   1.000  H
  C203     1.0000 0.52404  0.69511  0.91599  Biso   1.000  C
  H227     1.0000 0.99864  0.67671  0.61861  Biso   1.000  H
  H228     1.0000 0.04136  0.68839  0.69738  Biso   1.000  H
  C204     1.0000 0.10658  0.73140  0.61531  Biso   1.000  C
  H229     1.0000 0.95256  0.75809  0.93556  Biso   1.000  H
  H230     1.0000 0.94066  0.79209  0.86810  Biso   1.000  H
  H231     1.0000 0.93018  0.73562  0.85950  Biso   1.000  H
  H232     1.0000 0.46389  0.68820  0.89026  Biso   1.000  H
  H233     1.0000 0.51556  0.68999  0.96757  Biso   1.000  H
  H234     1.0000 0.57416  0.67330  0.89756  Biso   1.000  H
  H235     1.0000 0.12867  0.75689  0.64840  Biso   1.000  H
  H236     1.0000 0.08537  0.74620  0.56979  Biso   1.000  H
  H237     1.0000 0.15916  0.70871  0.60569  Biso   1.000  H
  C205     1.0000 0.23464  0.74940  0.34539  Biso   1.000  C
  Br13     1.0000 0.28323  0.68500  0.38129  Biso   1.000  Br
  C206     1.0000 0.21452  0.78842  0.32198  Biso   1.000  C
  C207     1.0000 0.18642  0.83401  0.29219  Biso   1.000  C
  C208     1.0000 0.23769  0.85219  0.23392  Biso   1.000  C
  C209     1.0000 0.11192  0.86270  0.31928  Biso   1.000  C
  C210     1.0000 0.21553  0.89892  0.20251  Biso   1.000  C
  O25      1.0000 0.31039  0.82390  0.20391  Biso   1.000  O
  C211     1.0000 0.08799  0.90710  0.29149  Biso   1.000  C
  O26      1.0000 0.05865  0.84230  0.37691  Biso   1.000  O
  C212     1.0000 0.27495  0.91641  0.13942  Biso   1.000  C
  C213     1.0000 0.14133  0.92521  0.23267  Biso   1.000  C
  C214     1.0000 0.40741  0.83550  0.22819  Biso   1.000  C
  C215     1.0000 0.00843  0.93750  0.32641  Biso   1.000  C
  C216     1.0000 0.08552  0.85830  0.44751  Biso   1.000  C
  C217     1.0000 0.36161  0.94579  0.17310  Biso   1.000  C
  H238     1.0000 0.30142  0.88721  0.11417  Biso   1.000  H
  C218     1.0000 0.21992  0.94611  0.08450  Biso   1.000  C
  H239     1.0000 0.12595  0.95629  0.21338  Biso   1.000  H
  H240     1.0000 0.44643  0.80551  0.22997  Biso   1.000  H
  H241     1.0000 0.40543  0.84961  0.27727  Biso   1.000  H
  O27      1.0000 0.44983  0.86972  0.17878  Biso   1.000  O
  C219     1.0000 0.05359  0.96651  0.38469  Biso   1.000  C
  H242     1.0000 0.96363  0.91412  0.35020  Biso   1.000  H
  C220     1.0000 0.94911  0.96702  0.27181  Biso   1.000  C
  H243     1.0000 0.15446  0.86670  0.44767  Biso   1.000  H
  H244     1.0000 0.07576  0.83139  0.48227  Biso   1.000  H
  O28      1.0000 0.03255  0.89881  0.46989  Biso   1.000  O
  C221     1.0000 0.43964  0.91910  0.19381  Biso   1.000  C
  C222     1.0000 0.35800  0.99589  0.18440  Biso   1.000  C
  H245     1.0000 0.18464  0.97240  0.10942  Biso   1.000  H
  H246     1.0000 0.26519  0.96131  0.05011  Biso   1.000  H
  C223     1.0000 0.14941  0.91372  0.04330  Biso   1.000  C
  C224     1.0000 0.06837  0.94440  0.45421  Biso   1.000  C
  C225     1.0000 0.08463  0.01411  0.37647  Biso   1.000  C
  H247     1.0000 0.99014  0.99309  0.25192  Biso   1.000  H
  H248     1.0000 0.89594  0.98280  0.29809  Biso   1.000  H
  C226     1.0000 0.90673  0.93800  0.20840  Biso   1.000  C
  C227     1.0000 0.51923  0.94320  0.23062  Biso   1.000  C
  H249     1.0000 0.30361  0.01389  0.16910  Biso   1.000  H
  C228     1.0000 0.43400  0.01960  0.21819  Biso   1.000  C
  H250     1.0000 0.10558  0.89830  0.07850  Biso   1.000  H
  H251     1.0000 0.18584  0.88732  0.01941  Biso   1.000  H
  C229     1.0000 0.08965  0.93990  0.98627  Biso   1.000  C
  C230     1.0000 0.11423  0.96891  0.50946  Biso   1.000  C
  C231     1.0000 0.13193  0.04040  0.43248  Biso   1.000  C
  H252     1.0000 0.07395  0.02989  0.33150  Biso   1.000  H
  H253     1.0000 0.87852  0.90761  0.22759  Biso   1.000  H
  H254     1.0000 0.95945  0.92870  0.17548  Biso   1.000  H
  C232     1.0000 0.83342  0.96349  0.16651  Biso   1.000  C
  C233     1.0000 0.51633  0.99320  0.23840  Biso   1.000  C
  C234     1.0000 0.59434  0.91372  0.25489  Biso   1.000  C
  C235     1.0000 0.43255  0.07461  0.23381  Biso   1.000  C
  H255     1.0000 0.04929  0.96400  0.01162  Biso   1.000  H
  H256     1.0000 0.13421  0.95829  0.95497  Biso   1.000  H
  C236     1.0000 0.02843  0.91201  0.94010  Biso   1.000  C
  C237     1.0000 0.13372  0.94379  0.57639  Biso   1.000  C
  C238     1.0000 0.14505  0.01782  0.49952  Biso   1.000  C
  C239     1.0000 0.16611  0.09159  0.42151  Biso   1.000  C
  H257     1.0000 0.77403  0.96542  0.19548  Biso   1.000  H
  H258     1.0000 0.85530  0.99720  0.15731  Biso   1.000  H
  C240     1.0000 0.81040  0.93851  0.09260  Biso   1.000  C
  O29      1.0000 0.59652  0.01560  0.26500  Biso   1.000  O
  C241     1.0000 0.65649  0.88670  0.28030  Biso   1.000  C
  C242     1.0000 0.39845  0.08079  0.30928  Biso   1.000  C
  H259     1.0000 0.50063  0.08588  0.23278  Biso   1.000  H
  C243     1.0000 0.37873  0.10388  0.17537  Biso   1.000  C
  H260     1.0000 0.98544  0.89172  0.97000  Biso   1.000  H
  C244     1.0000 0.96791  0.94549  0.89107  Biso   1.000  C
  H261     1.0000 0.06762  0.89012  0.90977  Biso   1.000  H
  C245     1.0000 0.15453  0.92281  0.63321  Biso   1.000  C
  O30      1.0000 0.18104  0.04262  0.55768  Biso   1.000  O
  H262     1.0000 0.16342  0.10770  0.47000  Biso   1.000  H
  C246     1.0000 0.26820  0.08999  0.40140  Biso   1.000  C
  C247     1.0000 0.10430  0.12301  0.37037  Biso   1.000  C
  H263     1.0000 0.87094  0.93379  0.06579  Biso   1.000  H
  H264     1.0000 0.76928  0.96051  0.06368  Biso   1.000  H
  C248     1.0000 0.76003  0.88950  0.10001  Biso   1.000  C
  C249     1.0000 0.59821  0.02982  0.33939  Biso   1.000  C
  Br14     1.0000 0.75291  0.83947  0.31679  Biso   1.000  Br
  C250     1.0000 0.46272  0.07799  0.36599  Biso   1.000  C
  C251     1.0000 0.30210  0.08679  0.32998  Biso   1.000  C
  H265     1.0000 0.31023  0.09461  0.17640  Biso   1.000  H
  H266     1.0000 0.40434  0.09501  0.12742  Biso   1.000  H
  C252     1.0000 0.38650  0.15872  0.18489  Biso   1.000  C
  H267     1.0000 0.92377  0.96480  0.92145  Biso   1.000  H
  C253     1.0000 0.91152  0.91801  0.83658  Biso   1.000  C
  H268     1.0000 0.01092  0.96851  0.86588  Biso   1.000  H
  Br15     1.0000 0.18713  0.88819  0.72262  Biso   1.000  Br
  C254     1.0000 0.28314  0.04709  0.56028  Biso   1.000  C
  C255     1.0000 0.34025  0.08468  0.45410  Biso   1.000  C
  H269     1.0000 0.10785  0.10959  0.32079  Biso   1.000  H
  H270     1.0000 0.03670  0.12152  0.38610  Biso   1.000  H
  C256     1.0000 0.13780  0.17741  0.36928  Biso   1.000  C
  H271     1.0000 0.69963  0.89281  0.12731  Biso   1.000  H
  H272     1.0000 0.80171  0.86561  0.12499  Biso   1.000  H
  C257     1.0000 0.74100  0.87412  0.02238  Biso   1.000  C
  H273     1.0000 0.66507  0.02851  0.35717  Biso   1.000  H
  H274     1.0000 0.56030  0.00622  0.36777  Biso   1.000  H
  O31      1.0000 0.56232  0.07599  0.35177  Biso   1.000  O
  C258     1.0000 0.43885  0.07970  0.43891  Biso   1.000  C
  H275     1.0000 0.25594  0.08890  0.29241  Biso   1.000  H
  H276     1.0000 0.35781  0.16639  0.23240  Biso   1.000  H
  H277     1.0000 0.45559  0.16632  0.18889  Biso   1.000  H
  C259     1.0000 0.34500  0.19489  0.13099  Biso   1.000  C
  H278     1.0000 0.35243  0.16770  0.22981  Biso   1.000  H
  H279     1.0000 0.35192  0.17431  0.14418  Biso   1.000  H
  C260     1.0000 0.48401  0.17999  0.18802  Biso   1.000  C
  H280     1.0000 0.90286  0.93800  0.79317  Biso   1.000  H
  H281     1.0000 0.94577  0.88812  0.82376  Biso   1.000  H
  H282     1.0000 0.84881  0.90972  0.85679  Biso   1.000  H
  H283     1.0000 0.31255  0.01891  0.53568  Biso   1.000  H
  H284     1.0000 0.30465  0.04680  0.61137  Biso   1.000  H
  O32      1.0000 0.31445  0.09039  0.52687  Biso   1.000  O
  H285     1.0000 0.19884  0.18031  0.34247  Biso   1.000  H
  H286     1.0000 0.14857  0.18911  0.41929  Biso   1.000  H
  C261     1.0000 0.06100  0.20791  0.33279  Biso   1.000  C
  H287     1.0000 0.73166  0.90299  0.99227  Biso   1.000  H
  H288     1.0000 0.79571  0.85550  0.00422  Biso   1.000  H
  H289     1.0000 0.68330  0.85379  0.02049  Biso   1.000  H
  C262     1.0000 0.50697  0.07389  0.49416  Biso   1.000  C
  H290     1.0000 0.36251  0.18559  0.08120  Biso   1.000  H
  H291     1.0000 0.36981  0.22791  0.14077  Biso   1.000  H
  C263     1.0000 0.23600  0.19449  0.13899  Biso   1.000  C
  H292     1.0000 0.51274  0.17261  0.23608  Biso   1.000  H
  H293     1.0000 0.52433  0.16501  0.15072  Biso   1.000  H
  C264     1.0000 0.48104  0.23398  0.17748  Biso   1.000  C
  H294     1.0000 0.99886  0.19689  0.35247  Biso   1.000  H
  H295     1.0000 0.06132  0.19889  0.28100  Biso   1.000  H
  C265     1.0000 0.06072  0.26071  0.33577  Biso   1.000  C
  C266     1.0000 0.56826  0.06560  0.53871  Biso   1.000  C
  H296     1.0000 0.21191  0.16170  0.12677  Biso   1.000  H
  H297     1.0000 0.21979  0.20119  0.19008  Biso   1.000  H
  C267     1.0000 0.18802  0.23191  0.09098  Biso   1.000  C
  H298     1.0000 0.43635  0.24809  0.21338  Biso   1.000  H
  H299     1.0000 0.54543  0.24722  0.18802  Biso   1.000  H
  C268     1.0000 0.45100  0.25122  0.10309  Biso   1.000  C
  C269     1.0000 0.97945  0.29689  0.34901  Biso   1.000  C
  H300     1.0000 0.10925  0.26882  0.37301  Biso   1.000  H
  H301     1.0000 0.08884  0.27089  0.28917  Biso   1.000  H
  Br16     1.0000 0.66761  0.05618  0.61493  Biso   1.000  Br
  H302     1.0000 0.22011  0.26369  0.09688  Biso   1.000  H
  H303     1.0000 0.19464  0.22191  0.03968  Biso   1.000  H
  C270     1.0000 0.08098  0.23700  0.10899  Biso   1.000  C
  H304     1.0000 0.48108  0.22980  0.06671  Biso   1.000  H
  H305     1.0000 0.38061  0.24711  0.09861  Biso   1.000  H
  C271     1.0000 0.47599  0.30489  0.08401  Biso   1.000  C
  H306     1.0000 0.95874  0.31161  0.30257  Biso   1.000  H
  C272     1.0000 0.89352  0.26860  0.38469  Biso   1.000  C
  H307     1.0000 0.00139  0.32329  0.38139  Biso   1.000  H
  H308     1.0000 0.04747  0.24191  0.06439  Biso   1.000  H
  H309     1.0000 0.05945  0.20791  0.13191  Biso   1.000  H
  H310     1.0000 0.06993  0.26442  0.14050  Biso   1.000  H
  H311     1.0000 0.53621  0.31180  0.10969  Biso   1.000  H
  H312     1.0000 0.48454  0.31001  0.03238  Biso   1.000  H
  H313     1.0000 0.42594  0.32670  0.10239  Biso   1.000  H
  H314     1.0000 0.87143  0.24311  0.35161  Biso   1.000  H
  H315     1.0000 0.91473  0.25380  0.43021  Biso   1.000  H
  H316     1.0000 0.84094  0.29129  0.39431  Biso   1.000  H
