data_image0
_cell_length_a       14.09
_cell_length_b       16.028
_cell_length_c       17.049
_cell_angle_alpha    78.02
_cell_angle_beta     88.77
_cell_angle_gamma    85.22

_symmetry_space_group_name_H-M    "P 1"
_symmetry_int_tables_number       1

loop_
  _symmetry_equiv_pos_as_xyz
  'x, y, z'

loop_
  _atom_site_label
  _atom_site_occupancy
  _atom_site_fract_x
  _atom_site_fract_y
  _atom_site_fract_z
  _atom_site_thermal_displace_type
  _atom_site_B_iso_or_equiv
  _atom_site_type_symbol
  C1       1.0000 0.56361  0.40196  0.58450  Biso   1.000  C
  C2       1.0000 0.59838  0.34818  0.52969  Biso   1.000  C
  C3       1.0000 0.53248  0.44978  0.62461  Biso   1.000  C
  C4       1.0000 0.54270  0.28737  0.50961  Biso   1.000  C
  C5       1.0000 0.68762  0.35789  0.49300  Biso   1.000  C
  Br1      1.0000 0.48743  0.52153  0.68739  Biso   1.000  Br
  C6       1.0000 0.57218  0.23990  0.45229  Biso   1.000  C
  O1       1.0000 0.45758  0.27326  0.55116  Biso   1.000  O
  C7       1.0000 0.72007  0.31271  0.43580  Biso   1.000  C
  O2       1.0000 0.74592  0.41227  0.52010  Biso   1.000  O
  C8       1.0000 0.50587  0.18020  0.42800  Biso   1.000  C
  C9       1.0000 0.66030  0.25490  0.41517  Biso   1.000  C
  C10      1.0000 0.37347  0.31459  0.51279  Biso   1.000  C
  C11      1.0000 0.81430  0.33157  0.39256  Biso   1.000  C
  C12      1.0000 0.74688  0.49616  0.47471  Biso   1.000  C
  C13      1.0000 0.43820  0.23372  0.36498  Biso   1.000  C
  H1       1.0000 0.46658  0.15770  0.47609  Biso   1.000  H
  C14      1.0000 0.55606  0.10241  0.40000  Biso   1.000  C
  H2       1.0000 0.68053  0.22486  0.37452  Biso   1.000  H
  O3       1.0000 0.32873  0.26410  0.46859  Biso   1.000  O
  H3       1.0000 0.32843  0.32997  0.55380  Biso   1.000  H
  H4       1.0000 0.38920  0.36828  0.47627  Biso   1.000  H
  C15      1.0000 0.79676  0.41059  0.32577  Biso   1.000  C
  H5       1.0000 0.85789  0.34679  0.43202  Biso   1.000  H
  C16      1.0000 0.86340  0.25436  0.36336  Biso   1.000  C
  O4       1.0000 0.82038  0.50570  0.41637  Biso   1.000  O
  H6       1.0000 0.75461  0.53559  0.51141  Biso   1.000  H
  H7       1.0000 0.68468  0.51299  0.44749  Biso   1.000  H
  C17      1.0000 0.45949  0.24658  0.28278  Biso   1.000  C
  C18      1.0000 0.35448  0.27500  0.38819  Biso   1.000  C
  H8       1.0000 0.59360  0.12260  0.35101  Biso   1.000  H
  H9       1.0000 0.60078  0.07126  0.44221  Biso   1.000  H
  C19      1.0000 0.48587  0.04131  0.38237  Biso   1.000  C
  C20      1.0000 0.77540  0.40501  0.24770  Biso   1.000  C
  C21      1.0000 0.79642  0.49310  0.34118  Biso   1.000  C
  H10      1.0000 0.86698  0.20420  0.40857  Biso   1.000  H
  H11      1.0000 0.82411  0.24099  0.32091  Biso   1.000  H
  C22      1.0000 0.96379  0.26967  0.33056  Biso   1.000  C
  C23      1.0000 0.39879  0.29639  0.22467  Biso   1.000  C
  H12      1.0000 0.51732  0.22050  0.26617  Biso   1.000  H
  C24      1.0000 0.29322  0.32732  0.33176  Biso   1.000  C
  H13      1.0000 0.45618  0.01410  0.43340  Biso   1.000  H
  H14      1.0000 0.43471  0.07468  0.34771  Biso   1.000  H
  C25      1.0000 0.53057  0.97168  0.34178  Biso   1.000  C
  C26      1.0000 0.75691  0.47477  0.18600  Biso   1.000  C
  H15      1.0000 0.77349  0.34970  0.23619  Biso   1.000  H
  C27      1.0000 0.77646  0.56566  0.28182  Biso   1.000  C
  H16      1.0000 0.96060  0.32129  0.28697  Biso   1.000  H
  H17      1.0000 0.00378  0.28067  0.37380  Biso   1.000  H
  C28      1.0000 0.01059  0.19426  0.29861  Biso   1.000  C
  C29      1.0000 0.31557  0.33611  0.25070  Biso   1.000  C
  C30      1.0000 0.42397  0.31268  0.13569  Biso   1.000  C
  C31      1.0000 0.20850  0.37082  0.35767  Biso   1.000  C
  H18      1.0000 0.57809  0.93509  0.37829  Biso   1.000  H
  H19      1.0000 0.56443  0.99851  0.29279  Biso   1.000  H
  C32      1.0000 0.45738  0.91587  0.31917  Biso   1.000  C
  C33      1.0000 0.72956  0.46739  0.10187  Biso   1.000  C
  C34      1.0000 0.75688  0.55627  0.20399  Biso   1.000  C
  C35      1.0000 0.77469  0.65076  0.29651  Biso   1.000  C
  H20      1.0000 0.97326  0.18591  0.25268  Biso   1.000  H
  H21      1.0000 0.00993  0.14178  0.34100  Biso   1.000  H
  C36      1.0000 0.11253  0.20812  0.27180  Biso   1.000  C
  O5       1.0000 0.25016  0.38382  0.19559  Biso   1.000  O
  C37      1.0000 0.47557  0.39346  0.11662  Biso   1.000  C
  H22      1.0000 0.36272  0.32468  0.10541  Biso   1.000  H
  C38      1.0000 0.47842  0.23582  0.10949  Biso   1.000  C
  C39      1.0000 0.13949  0.40806  0.37871  Biso   1.000  C
  H23      1.0000 0.42999  0.88282  0.36888  Biso   1.000  H
  H24      1.0000 0.40486  0.95331  0.28937  Biso   1.000  H
  C40      1.0000 0.49878  0.85398  0.26821  Biso   1.000  C
  C41      1.0000 0.62187  0.46788  0.10079  Biso   1.000  C
  H25      1.0000 0.74689  0.52088  0.06458  Biso   1.000  H
  C42      1.0000 0.78429  0.39191  0.07339  Biso   1.000  C
  O6       1.0000 0.74029  0.62897  0.14571  Biso   1.000  O
  C43      1.0000 0.76980  0.72270  0.30388  Biso   1.000  C
  H26      1.0000 0.11251  0.26319  0.23271  Biso   1.000  H
  H27      1.0000 0.14946  0.21362  0.31899  Biso   1.000  H
  C44      1.0000 0.16343  0.13958  0.23451  Biso   1.000  C
  C45      1.0000 0.26940  0.46937  0.16477  Biso   1.000  C
  C46      1.0000 0.42308  0.47310  0.10097  Biso   1.000  C
  C47      1.0000 0.57511  0.39367  0.11710  Biso   1.000  C
  H28      1.0000 0.49647  0.25272  0.05241  Biso   1.000  H
  H29      1.0000 0.53777  0.22021  0.14109  Biso   1.000  H
  C48      1.0000 0.42160  0.15850  0.12028  Biso   1.000  C
  Br2      1.0000 0.03211  0.45978  0.41109  Biso   1.000  Br
  H30      1.0000 0.55316  0.81831  0.29681  Biso   1.000  H
  H31      1.0000 0.52310  0.88702  0.21718  Biso   1.000  H
  C49      1.0000 0.42527  0.79597  0.24992  Biso   1.000  C
  C50      1.0000 0.56668  0.54568  0.08640  Biso   1.000  C
  H32      1.0000 0.77612  0.33846  0.11333  Biso   1.000  H
  H33      1.0000 0.75718  0.38576  0.02201  Biso   1.000  H
  C51      1.0000 0.88989  0.40409  0.06212  Biso   1.000  C
  C52      1.0000 0.64342  0.65689  0.12808  Biso   1.000  C
  Br3      1.0000 0.76704  0.83251  0.31300  Biso   1.000  Br
  H34      1.0000 0.12607  0.13240  0.18810  Biso   1.000  H
  H35      1.0000 0.22612  0.15841  0.21412  Biso   1.000  H
  C53      1.0000 0.17809  0.05648  0.29027  Biso   1.000  C
  H36      1.0000 0.30422  0.49060  0.20567  Biso   1.000  H
  H37      1.0000 0.20852  0.50506  0.15398  Biso   1.000  H
  O7       1.0000 0.32448  0.47846  0.09312  Biso   1.000  O
  C54      1.0000 0.46650  0.54858  0.08832  Biso   1.000  C
  H38      1.0000 0.61207  0.34041  0.12922  Biso   1.000  H
  H39      1.0000 0.41301  0.13580  0.17838  Biso   1.000  H
  H40      1.0000 0.35762  0.17649  0.09690  Biso   1.000  H
  C55      1.0000 0.46591  0.08897  0.08323  Biso   1.000  C
  H41      1.0000 0.37026  0.83110  0.22317  Biso   1.000  H
  H42      1.0000 0.40459  0.76008  0.29998  Biso   1.000  H
  H43      1.0000 0.45385  0.75946  0.21472  Biso   1.000  H
  O8       1.0000 0.60789  0.62290  0.06530  Biso   1.000  O
  H44      1.0000 0.91507  0.41517  0.11243  Biso   1.000  H
  H45      1.0000 0.89747  0.45560  0.01961  Biso   1.000  H
  C56      1.0000 0.94991  0.32881  0.03981  Biso   1.000  C
  H46      1.0000 0.60448  0.63950  0.17688  Biso   1.000  H
  H47      1.0000 0.63676  0.72007  0.11303  Biso   1.000  H
  H48      1.0000 0.21302  0.01519  0.26311  Biso   1.000  H
  H49      1.0000 0.11619  0.03590  0.30862  Biso   1.000  H
  H50      1.0000 0.21481  0.06298  0.33662  Biso   1.000  H
  C57      1.0000 0.41100  0.62930  0.07801  Biso   1.000  C
  H51      1.0000 0.44410  0.03353  0.11177  Biso   1.000  H
  H52      1.0000 0.53601  0.08630  0.08850  Biso   1.000  H
  C58      1.0000 0.44001  0.10347  0.99472  Biso   1.000  C
  H53      1.0000 0.94716  0.27831  0.08431  Biso   1.000  H
  H54      1.0000 0.92227  0.31463  0.99167  Biso   1.000  H
  C59      1.0000 0.05398  0.34679  0.02273  Biso   1.000  C
  C60      1.0000 0.36226  0.69490  0.07267  Biso   1.000  C
  H55      1.0000 0.44352  0.16464  0.96972  Biso   1.000  H
  H56      1.0000 0.48679  0.06969  0.96732  Biso   1.000  H
  C61      1.0000 0.34088  0.07803  0.98315  Biso   1.000  C
  H57      1.0000 0.05627  0.39467  0.97566  Biso   1.000  H
  H58      1.0000 0.07928  0.36587  0.06908  Biso   1.000  H
  C62      1.0000 0.11859  0.27231  0.00642  Biso   1.000  C
  Br4      1.0000 0.28475  0.79145  0.06500  Biso   1.000  Br
  H59      1.0000 0.33649  0.01823  0.01217  Biso   1.000  H
  H60      1.0000 0.29439  0.11469  0.00797  Biso   1.000  H
  C63      1.0000 0.31292  0.08459  0.89885  Biso   1.000  C
  C64      1.0000 0.09371  0.24223  0.93182  Biso   1.000  C
  H61      1.0000 0.18492  0.28901  0.00138  Biso   1.000  H
  H62      1.0000 0.11601  0.22391  0.05301  Biso   1.000  H
  H63      1.0000 0.35668  0.11938  0.86317  Biso   1.000  H
  H64      1.0000 0.24791  0.11158  0.89057  Biso   1.000  H
  H65      1.0000 0.31569  0.02728  0.88673  Biso   1.000  H
  H66      1.0000 0.09109  0.29066  0.88595  Biso   1.000  H
  H67      1.0000 0.03149  0.21836  0.93902  Biso   1.000  H
  H68      1.0000 0.14230  0.19808  0.92193  Biso   1.000  H
  C65      1.0000 0.43643  0.59799  0.41547  Biso   1.000  C
  C66      1.0000 0.46748  0.55016  0.37542  Biso   1.000  C
  C67      1.0000 0.40159  0.65178  0.47027  Biso   1.000  C
  Br5      1.0000 0.51253  0.47843  0.31258  Biso   1.000  Br
  C68      1.0000 0.45726  0.71259  0.49036  Biso   1.000  C
  C69      1.0000 0.31241  0.64206  0.50697  Biso   1.000  C
  C70      1.0000 0.42778  0.76006  0.54768  Biso   1.000  C
  O9       1.0000 0.54238  0.72669  0.44881  Biso   1.000  O
  C71      1.0000 0.27988  0.68730  0.56417  Biso   1.000  C
  O10      1.0000 0.25411  0.58768  0.47987  Biso   1.000  O
  C72      1.0000 0.49410  0.81975  0.57197  Biso   1.000  C
  C73      1.0000 0.33966  0.74505  0.58480  Biso   1.000  C
  C74      1.0000 0.62650  0.68536  0.48718  Biso   1.000  C
  C75      1.0000 0.18566  0.66838  0.60740  Biso   1.000  C
  C76      1.0000 0.25308  0.50380  0.52526  Biso   1.000  C
  C77      1.0000 0.56176  0.76629  0.63499  Biso   1.000  C
  H69      1.0000 0.53338  0.84225  0.52388  Biso   1.000  H
  C78      1.0000 0.44391  0.89754  0.59997  Biso   1.000  C
  H70      1.0000 0.31951  0.77508  0.62551  Biso   1.000  H
  H71      1.0000 0.67160  0.66999  0.44617  Biso   1.000  H
  H72      1.0000 0.61076  0.63167  0.52370  Biso   1.000  H
  O11      1.0000 0.67131  0.73585  0.53137  Biso   1.000  O
  H73      1.0000 0.14207  0.65315  0.56801  Biso   1.000  H
  C79      1.0000 0.20320  0.58936  0.67420  Biso   1.000  C
  C80      1.0000 0.13656  0.74559  0.63661  Biso   1.000  C
  H74      1.0000 0.24542  0.46437  0.48856  Biso   1.000  H
  H75      1.0000 0.31529  0.48697  0.55248  Biso   1.000  H
  O12      1.0000 0.17958  0.49426  0.58360  Biso   1.000  O
  C81      1.0000 0.64548  0.72495  0.61178  Biso   1.000  C
  C82      1.0000 0.54048  0.75337  0.71719  Biso   1.000  C
  H76      1.0000 0.40637  0.87735  0.64896  Biso   1.000  H
  H77      1.0000 0.39918  0.92870  0.55776  Biso   1.000  H
  C83      1.0000 0.51410  0.95864  0.61760  Biso   1.000  C
  C84      1.0000 0.20362  0.50686  0.65879  Biso   1.000  C
  C85      1.0000 0.22463  0.59500  0.75227  Biso   1.000  C
  H78      1.0000 0.13298  0.79575  0.59139  Biso   1.000  H
  H79      1.0000 0.17593  0.75896  0.67906  Biso   1.000  H
  C86      1.0000 0.03617  0.73028  0.66940  Biso   1.000  C
  C87      1.0000 0.70682  0.67264  0.66820  Biso   1.000  C
  C88      1.0000 0.60118  0.70356  0.77530  Biso   1.000  C
  H80      1.0000 0.48271  0.77945  0.73380  Biso   1.000  H
  H81      1.0000 0.54378  0.98585  0.56657  Biso   1.000  H
  H82      1.0000 0.56526  0.92527  0.65226  Biso   1.000  H
  C89      1.0000 0.46939  0.02827  0.65819  Biso   1.000  C
  C90      1.0000 0.22350  0.43429  0.71815  Biso   1.000  C
  C91      1.0000 0.24313  0.52518  0.81397  Biso   1.000  C
  H83      1.0000 0.22647  0.65025  0.76378  Biso   1.000  H
  H84      1.0000 0.03943  0.67867  0.71300  Biso   1.000  H
  H85      1.0000 0.99618  0.71928  0.62617  Biso   1.000  H
  C92      1.0000 0.98937  0.80570  0.70136  Biso   1.000  C
  C93      1.0000 0.68440  0.66385  0.74927  Biso   1.000  C
  C94      1.0000 0.79145  0.62920  0.64230  Biso   1.000  C
  C95      1.0000 0.57600  0.68727  0.86428  Biso   1.000  C
  H86      1.0000 0.42195  0.06487  0.62168  Biso   1.000  H
  H87      1.0000 0.43553  0.00144  0.70718  Biso   1.000  H
  C96      1.0000 0.54265  0.08408  0.68080  Biso   1.000  C
  C97      1.0000 0.24309  0.44369  0.79598  Biso   1.000  C
  C98      1.0000 0.22528  0.34919  0.70346  Biso   1.000  C
  C99      1.0000 0.27041  0.53256  0.89810  Biso   1.000  C
  H88      1.0000 0.02670  0.81404  0.74729  Biso   1.000  H
  H89      1.0000 0.99011  0.85818  0.65897  Biso   1.000  H
  C100     1.0000 0.88750  0.79190  0.72817  Biso   1.000  C
  O13      1.0000 0.74980  0.61620  0.80438  Biso   1.000  O
  C101     1.0000 0.86048  0.59189  0.62126  Biso   1.000  C
  C102     1.0000 0.52439  0.60648  0.88340  Biso   1.000  C
  H90      1.0000 0.63731  0.67527  0.89456  Biso   1.000  H
  C103     1.0000 0.52161  0.76414  0.89048  Biso   1.000  C
  H91      1.0000 0.57004  0.11720  0.63109  Biso   1.000  H
  H92      1.0000 0.59511  0.04664  0.71060  Biso   1.000  H
  C104     1.0000 0.50125  0.14597  0.73176  Biso   1.000  C
  O14      1.0000 0.25968  0.37099  0.85426  Biso   1.000  O
  C105     1.0000 0.23023  0.27725  0.69609  Biso   1.000  C
  C106     1.0000 0.37809  0.53207  0.89917  Biso   1.000  C
  H93      1.0000 0.25307  0.47907  0.93539  Biso   1.000  H
  C107     1.0000 0.21567  0.60805  0.92658  Biso   1.000  C
  H94      1.0000 0.88752  0.73676  0.76726  Biso   1.000  H
  H95      1.0000 0.85049  0.78640  0.68098  Biso   1.000  H
  C108     1.0000 0.83660  0.86037  0.76546  Biso   1.000  C
  C109     1.0000 0.73057  0.53058  0.83520  Biso   1.000  C
  Br6      1.0000 0.96785  0.54017  0.58888  Biso   1.000  Br
  C110     1.0000 0.57689  0.52685  0.89899  Biso   1.000  C
  C111     1.0000 0.42492  0.60629  0.88286  Biso   1.000  C
  H96      1.0000 0.50349  0.74730  0.94756  Biso   1.000  H
  H97      1.0000 0.46219  0.77974  0.85888  Biso   1.000  H
  C112     1.0000 0.57837  0.84146  0.87969  Biso   1.000  C
  H98      1.0000 0.44680  0.18170  0.70316  Biso   1.000  H
  H99      1.0000 0.47694  0.11294  0.78279  Biso   1.000  H
  C113     1.0000 0.57469  0.20399  0.75005  Biso   1.000  C
  C114     1.0000 0.35662  0.34306  0.87189  Biso   1.000  C
  Br7      1.0000 0.23300  0.16744  0.68697  Biso   1.000  Br
  C115     1.0000 0.43328  0.45427  0.91356  Biso   1.000  C
  H100     1.0000 0.22392  0.66148  0.88670  Biso   1.000  H
  H101     1.0000 0.24278  0.61419  0.97796  Biso   1.000  H
  C116     1.0000 0.11007  0.59586  0.93785  Biso   1.000  C
  H102     1.0000 0.87389  0.86755  0.81187  Biso   1.000  H
  H103     1.0000 0.77391  0.84153  0.78591  Biso   1.000  H
  C117     1.0000 0.82187  0.94348  0.70970  Biso   1.000  C
  H104     1.0000 0.69581  0.50936  0.79430  Biso   1.000  H
  H105     1.0000 0.79151  0.49490  0.84599  Biso   1.000  H
  O15      1.0000 0.67549  0.52149  0.90685  Biso   1.000  O
  C118     1.0000 0.53346  0.45136  0.91171  Biso   1.000  C
  H106     1.0000 0.38789  0.65954  0.87075  Biso   1.000  H
  H107     1.0000 0.58702  0.86416  0.82158  Biso   1.000  H
  H108     1.0000 0.64242  0.82347  0.90307  Biso   1.000  H
  C119     1.0000 0.53412  0.91097  0.91680  Biso   1.000  C
  H109     1.0000 0.62971  0.16885  0.77679  Biso   1.000  H
  H110     1.0000 0.59545  0.23988  0.69998  Biso   1.000  H
  H111     1.0000 0.54612  0.24048  0.78531  Biso   1.000  H
  H112     1.0000 0.39548  0.36045  0.82308  Biso   1.000  H
  H113     1.0000 0.36321  0.27987  0.88700  Biso   1.000  H
  O16      1.0000 0.39208  0.37705  0.93467  Biso   1.000  O
  H114     1.0000 0.08489  0.58477  0.88760  Biso   1.000  H
  H115     1.0000 0.10250  0.54435  0.98036  Biso   1.000  H
  C120     1.0000 0.05012  0.67114  0.96015  Biso   1.000  C
  H116     1.0000 0.78702  0.98476  0.73686  Biso   1.000  H
  H117     1.0000 0.88377  0.96404  0.69141  Biso   1.000  H
  H118     1.0000 0.78522  0.93696  0.66341  Biso   1.000  H
  C121     1.0000 0.58897  0.37065  0.92196  Biso   1.000  C
  H119     1.0000 0.55587  0.96642  0.88820  Biso   1.000  H
  H120     1.0000 0.46403  0.91365  0.91147  Biso   1.000  H
  C122     1.0000 0.56002  0.89649  0.00525  Biso   1.000  C
  H121     1.0000 0.05281  0.72165  0.91566  Biso   1.000  H
  C123     1.0000 0.94599  0.65315  0.97730  Biso   1.000  C
  H122     1.0000 0.07769  0.68532  0.00830  Biso   1.000  H
  C124     1.0000 0.63770  0.30505  0.92730  Biso   1.000  C
  H123     1.0000 0.55652  0.83532  0.03025  Biso   1.000  H
  H124     1.0000 0.51317  0.93027  0.03265  Biso   1.000  H
  C125     1.0000 0.65909  0.92192  0.01682  Biso   1.000  C
  H125     1.0000 0.92068  0.63408  0.93089  Biso   1.000  H
  C126     1.0000 0.88137  0.72764  0.99355  Biso   1.000  C
  H126     1.0000 0.94370  0.60529  0.02431  Biso   1.000  H
  Br8      1.0000 0.71521  0.20851  0.93497  Biso   1.000  Br
  H127     1.0000 0.66347  0.98172  0.98780  Biso   1.000  H
  H128     1.0000 0.70558  0.88526  0.99199  Biso   1.000  H
  C127     1.0000 0.68711  0.91542  0.10112  Biso   1.000  C
  H129     1.0000 0.81512  0.71094  0.99859  Biso   1.000  H
  H130     1.0000 0.88396  0.77604  0.94696  Biso   1.000  H
  C128     1.0000 0.90625  0.75772  0.06814  Biso   1.000  C
  H131     1.0000 0.64328  0.88058  0.13680  Biso   1.000  H
  H132     1.0000 0.75212  0.88843  0.10940  Biso   1.000  H
  H133     1.0000 0.68428  0.97267  0.11323  Biso   1.000  H
  H134     1.0000 0.90887  0.70929  0.11401  Biso   1.000  H
  H135     1.0000 0.96848  0.78159  0.06095  Biso   1.000  H
  H136     1.0000 0.85766  0.80187  0.07804  Biso   1.000  H
