data_image0
_cell_length_a       14.287
_cell_length_b       14.314
_cell_length_c       18.565
_cell_angle_alpha    85.77
_cell_angle_beta     89.21
_cell_angle_gamma    68.3

_symmetry_space_group_name_H-M    "P 1"
_symmetry_int_tables_number       1

loop_
  _symmetry_equiv_pos_as_xyz
  'x, y, z'

loop_
  _atom_site_label
  _atom_site_occupancy
  _atom_site_fract_x
  _atom_site_fract_y
  _atom_site_fract_z
  _atom_site_thermal_displace_type
  _atom_site_B_iso_or_equiv
  _atom_site_type_symbol
  C1       1.0000 0.64009  0.45466  0.49507  Biso   1.000  C
  C2       1.0000 0.67465  0.40918  0.42868  Biso   1.000  C
  C3       1.0000 0.63212  0.55434  0.50404  Biso   1.000  C
  C4       1.0000 0.61718  0.40087  0.55368  Biso   1.000  C
  C5       1.0000 0.70635  0.36911  0.37461  Biso   1.000  C
  C6       1.0000 0.60458  0.59776  0.56924  Biso   1.000  C
  O1       1.0000 0.64958  0.60875  0.44375  Biso   1.000  O
  C7       1.0000 0.58719  0.44218  0.61969  Biso   1.000  C
  O2       1.0000 0.61988  0.30455  0.54277  Biso   1.000  O
  Br1      1.0000 0.74962  0.31440  0.28980  Biso   1.000  Br
  C8       1.0000 0.61020  0.70103  0.57766  Biso   1.000  C
  C9       1.0000 0.58289  0.54073  0.62644  Biso   1.000  C
  C10      1.0000 0.74754  0.60909  0.43830  Biso   1.000  C
  C11      1.0000 0.56710  0.37755  0.68208  Biso   1.000  C
  C12      1.0000 0.70528  0.22220  0.56918  Biso   1.000  C
  C13      1.0000 0.71807  0.68436  0.59717  Biso   1.000  C
  H1       1.0000 0.59657  0.73774  0.52867  Biso   1.000  H
  C14      1.0000 0.53191  0.76857  0.62850  Biso   1.000  C
  H2       1.0000 0.56458  0.56947  0.67149  Biso   1.000  H
  H3       1.0000 0.79547  0.54511  0.46158  Biso   1.000  H
  H4       1.0000 0.76518  0.61216  0.38671  Biso   1.000  H
  O3       1.0000 0.75891  0.69115  0.47087  Biso   1.000  O
  H5       1.0000 0.54359  0.32815  0.66020  Biso   1.000  H
  C15      1.0000 0.66721  0.31675  0.71968  Biso   1.000  C
  C16      1.0000 0.48413  0.43566  0.73248  Biso   1.000  C
  H6       1.0000 0.72005  0.16750  0.53596  Biso   1.000  H
  H7       1.0000 0.76385  0.24341  0.56908  Biso   1.000  H
  O4       1.0000 0.69328  0.18409  0.63973  Biso   1.000  O
  C17      1.0000 0.78898  0.67507  0.54293  Biso   1.000  C
  C18      1.0000 0.75182  0.67618  0.66847  Biso   1.000  C
  H8       1.0000 0.55082  0.82624  0.63876  Biso   1.000  H
  H9       1.0000 0.53252  0.72936  0.67479  Biso   1.000  H
  C19      1.0000 0.42693  0.80774  0.59576  Biso   1.000  C
  C20      1.0000 0.72561  0.22296  0.69586  Biso   1.000  C
  C21      1.0000 0.70537  0.35018  0.77758  Biso   1.000  C
  H10      1.0000 0.42297  0.47594  0.70347  Biso   1.000  H
  H11      1.0000 0.50622  0.48309  0.75738  Biso   1.000  H
  C22      1.0000 0.45773  0.36683  0.78887  Biso   1.000  C
  C23      1.0000 0.88960  0.65778  0.55816  Biso   1.000  C
  C24      1.0000 0.85141  0.66075  0.68678  Biso   1.000  C
  H12      1.0000 0.70512  0.68138  0.70628  Biso   1.000  H
  H13      1.0000 0.42953  0.83656  0.54601  Biso   1.000  H
  H14      1.0000 0.40459  0.75046  0.59268  Biso   1.000  H
  C25      1.0000 0.34853  0.88827  0.63800  Biso   1.000  C
  C26      1.0000 0.81828  0.16278  0.72967  Biso   1.000  C
  C27      1.0000 0.79648  0.29377  0.81199  Biso   1.000  C
  H15      1.0000 0.66710  0.41435  0.79401  Biso   1.000  H
  H16      1.0000 0.51368  0.33840  0.82469  Biso   1.000  H
  H17      1.0000 0.45099  0.31004  0.76500  Biso   1.000  H
  C28      1.0000 0.36080  0.42044  0.82825  Biso   1.000  C
  C29      1.0000 0.91859  0.65200  0.63028  Biso   1.000  C
  C30      1.0000 0.96204  0.64488  0.50101  Biso   1.000  C
  C31      1.0000 0.88888  0.64804  0.76489  Biso   1.000  C
  H18      1.0000 0.37260  0.94373  0.64416  Biso   1.000  H
  H19      1.0000 0.34173  0.85838  0.68656  Biso   1.000  H
  C32      1.0000 0.24603  0.93117  0.60046  Biso   1.000  C
  C33      1.0000 0.85151  0.19874  0.78779  Biso   1.000  C
  C34      1.0000 0.87517  0.06439  0.70606  Biso   1.000  C
  C35      1.0000 0.83888  0.33109  0.87368  Biso   1.000  C
  H20      1.0000 0.36753  0.47747  0.85197  Biso   1.000  H
  H21      1.0000 0.30489  0.44879  0.79249  Biso   1.000  H
  C36      1.0000 0.33394  0.35247  0.88508  Biso   1.000  C
  O5       1.0000 0.01761  0.64135  0.64454  Biso   1.000  O
  C37      1.0000 0.02091  0.63185  0.45380  Biso   1.000  C
  C38      1.0000 0.92973  0.53517  0.78758  Biso   1.000  C
  H22      1.0000 0.94770  0.67010  0.76457  Biso   1.000  H
  C39      1.0000 0.81220  0.71248  0.81729  Biso   1.000  C
  H23      1.0000 0.25483  0.95425  0.55017  Biso   1.000  H
  H24      1.0000 0.21993  0.87627  0.59841  Biso   1.000  H
  C40      1.0000 0.16700  0.01828  0.63579  Biso   1.000  C
  O6       1.0000 0.94190  0.13715  0.82145  Biso   1.000  O
  C41      1.0000 0.92099  0.98256  0.68808  Biso   1.000  C
  H25      1.0000 0.88421  0.26966  0.90280  Biso   1.000  H
  C42      1.0000 0.90568  0.38417  0.84095  Biso   1.000  C
  C43      1.0000 0.75961  0.39273  0.92559  Biso   1.000  C
  H26      1.0000 0.33062  0.29358  0.86196  Biso   1.000  H
  H27      1.0000 0.38811  0.32705  0.92235  Biso   1.000  H
  C44      1.0000 0.23392  0.40587  0.92138  Biso   1.000  C
  C45      1.0000 0.08621  0.54194  0.66431  Biso   1.000  C
  Br2      1.0000 0.11146  0.61345  0.38223  Biso   1.000  Br
  C46      1.0000 0.87033  0.48808  0.82204  Biso   1.000  C
  C47      1.0000 0.02734  0.47564  0.76986  Biso   1.000  C
  H28      1.0000 0.83794  0.69085  0.86736  Biso   1.000  H
  H29      1.0000 0.74823  0.70137  0.81280  Biso   1.000  H
  C48      1.0000 0.79196  0.82454  0.80249  Biso   1.000  C
  H30      1.0000 0.14309  0.99168  0.68008  Biso   1.000  H
  H31      1.0000 0.19829  0.06538  0.65010  Biso   1.000  H
  C49      1.0000 0.07725  0.07553  0.58598  Biso   1.000  C
  C50      1.0000 0.02782  0.15698  0.79979  Biso   1.000  C
  Br3      1.0000 0.98585  0.85615  0.66193  Biso   1.000  Br
  C51      1.0000 0.00461  0.32738  0.82215  Biso   1.000  C
  H32      1.0000 0.79369  0.41144  0.96508  Biso   1.000  H
  H33      1.0000 0.71462  0.45575  0.89929  Biso   1.000  H
  C52      1.0000 0.69624  0.33454  0.95827  Biso   1.000  C
  H34      1.0000 0.18130  0.43827  0.88357  Biso   1.000  H
  H35      1.0000 0.23999  0.45977  0.94920  Biso   1.000  H
  C53      1.0000 0.20029  0.33608  0.97178  Biso   1.000  C
  H36      1.0000 0.15380  0.53460  0.64578  Biso   1.000  H
  H37      1.0000 0.06440  0.49329  0.64097  Biso   1.000  H
  O7       1.0000 0.09318  0.51855  0.73950  Biso   1.000  O
  H38      1.0000 0.80281  0.52789  0.83328  Biso   1.000  H
  C54      1.0000 0.06480  0.37037  0.78520  Biso   1.000  C
  H39      1.0000 0.76604  0.84572  0.75236  Biso   1.000  H
  H40      1.0000 0.85631  0.83505  0.80627  Biso   1.000  H
  C55      1.0000 0.71691  0.89107  0.85359  Biso   1.000  C
  H41      1.0000 0.02726  0.12874  0.61170  Biso   1.000  H
  H42      1.0000 0.09980  0.10571  0.54336  Biso   1.000  H
  H43      1.0000 0.04685  0.02891  0.57070  Biso   1.000  H
  H44      1.0000 0.08703  0.09285  0.80189  Biso   1.000  H
  H45      1.0000 0.01837  0.18589  0.74906  Biso   1.000  H
  O8       1.0000 0.04679  0.22476  0.84386  Biso   1.000  O
  H46      1.0000 0.74106  0.26458  0.97318  Biso   1.000  H
  H47      1.0000 0.64860  0.33155  0.92100  Biso   1.000  H
  C56      1.0000 0.63681  0.38354  0.02342  Biso   1.000  C
  H48      1.0000 0.14149  0.37616  0.99879  Biso   1.000  H
  H49      1.0000 0.18244  0.28983  0.94347  Biso   1.000  H
  H50      1.0000 0.25520  0.29733  0.00565  Biso   1.000  H
  C57      1.0000 0.16188  0.30758  0.75900  Biso   1.000  C
  H51      1.0000 0.65141  0.88355  0.84775  Biso   1.000  H
  H52      1.0000 0.74085  0.86746  0.90388  Biso   1.000  H
  C58      1.0000 0.70130  0.00257  0.84127  Biso   1.000  C
  H53      1.0000 0.59699  0.45541  0.00964  Biso   1.000  H
  H54      1.0000 0.68460  0.38057  0.06242  Biso   1.000  H
  C59      1.0000 0.56583  0.33230  0.05221  Biso   1.000  C
  C60      1.0000 0.23659  0.25339  0.73329  Biso   1.000  C
  H55      1.0000 0.67287  0.02653  0.79195  Biso   1.000  H
  H56      1.0000 0.76814  0.00837  0.84268  Biso   1.000  H
  C61      1.0000 0.63470  0.07198  0.89297  Biso   1.000  C
  H57      1.0000 0.60431  0.25898  0.06101  Biso   1.000  H
  H58      1.0000 0.51339  0.34169  0.01510  Biso   1.000  H
  C62      1.0000 0.51495  0.37367  0.12200  Biso   1.000  C
  Br4      1.0000 0.34692  0.17199  0.68851  Biso   1.000  Br
  H59      1.0000 0.63492  0.14069  0.88216  Biso   1.000  H
  H60      1.0000 0.66101  0.04878  0.94288  Biso   1.000  H
  C63      1.0000 0.53199  0.07477  0.88778  Biso   1.000  C
  H61      1.0000 0.59619  0.13520  0.86396  Biso   1.000  H
  H62      1.0000 0.68010  0.08842  0.92527  Biso   1.000  H
  C64      1.0000 0.56011  0.04901  0.94066  Biso   1.000  C
  H63      1.0000 0.47899  0.44752  0.11384  Biso   1.000  H
  H64      1.0000 0.56716  0.36127  0.15981  Biso   1.000  H
  C65      1.0000 0.44113  0.32642  0.14852  Biso   1.000  C
  H65      1.0000 0.53992  0.99834  0.91949  Biso   1.000  H
  H66      1.0000 0.53108  0.00791  0.90247  Biso   1.000  H
  H67      1.0000 0.48864  0.12412  0.91960  Biso   1.000  H
  H68      1.0000 0.50737  0.09413  0.83787  Biso   1.000  H
  H69      1.0000 0.50120  0.11030  0.94569  Biso   1.000  H
  H70      1.0000 0.59120  0.02191  0.98836  Biso   1.000  H
  H71      1.0000 0.40804  0.35790  0.19179  Biso   1.000  H
  H72      1.0000 0.39019  0.33671  0.11071  Biso   1.000  H
  H73      1.0000 0.47698  0.25403  0.16003  Biso   1.000  H
  C66      1.0000 0.38294  0.59909  0.44629  Biso   1.000  C
  C67      1.0000 0.36010  0.54530  0.50490  Biso   1.000  C
  C68      1.0000 0.41293  0.55778  0.38028  Biso   1.000  C
  O9       1.0000 0.38024  0.69542  0.45715  Biso   1.000  O
  C69      1.0000 0.36809  0.44555  0.49594  Biso   1.000  C
  C70      1.0000 0.32547  0.59079  0.57129  Biso   1.000  C
  C71      1.0000 0.41725  0.45915  0.37353  Biso   1.000  C
  C72      1.0000 0.43308  0.62241  0.31789  Biso   1.000  C
  C73      1.0000 0.29491  0.77777  0.43079  Biso   1.000  C
  C74      1.0000 0.39554  0.40220  0.43074  Biso   1.000  C
  O10      1.0000 0.35054  0.39121  0.55622  Biso   1.000  O
  C75      1.0000 0.29377  0.63085  0.62536  Biso   1.000  C
  H74      1.0000 0.43554  0.43049  0.32848  Biso   1.000  H
  C76      1.0000 0.33298  0.68321  0.28030  Biso   1.000  C
  H75      1.0000 0.45653  0.67181  0.33977  Biso   1.000  H
  C77      1.0000 0.51606  0.56430  0.26750  Biso   1.000  C
  O11      1.0000 0.30690  0.81587  0.36024  Biso   1.000  O
  H76      1.0000 0.28007  0.83246  0.46401  Biso   1.000  H
  H77      1.0000 0.23627  0.75655  0.43090  Biso   1.000  H
  C78      1.0000 0.38995  0.29885  0.42231  Biso   1.000  C
  C79      1.0000 0.25257  0.39087  0.56168  Biso   1.000  C
  Br5      1.0000 0.25057  0.68556  0.71017  Biso   1.000  Br
  C80      1.0000 0.29475  0.64979  0.22239  Biso   1.000  C
  C81      1.0000 0.27457  0.77700  0.30407  Biso   1.000  C
  H78      1.0000 0.57715  0.52402  0.29650  Biso   1.000  H
  H79      1.0000 0.49397  0.51687  0.24259  Biso   1.000  H
  C82      1.0000 0.54249  0.63306  0.21110  Biso   1.000  C
  C83      1.0000 0.28204  0.31560  0.40281  Biso   1.000  C
  H80      1.0000 0.40358  0.26214  0.47130  Biso   1.000  H
  C84      1.0000 0.46828  0.23139  0.37148  Biso   1.000  C
  O12      1.0000 0.24128  0.30881  0.52910  Biso   1.000  O
  H81      1.0000 0.20472  0.45485  0.53839  Biso   1.000  H
  H82      1.0000 0.23494  0.38780  0.61326  Biso   1.000  H
  C85      1.0000 0.20363  0.70619  0.18798  Biso   1.000  C
  H83      1.0000 0.33302  0.58561  0.20597  Biso   1.000  H
  C86      1.0000 0.18184  0.83718  0.27030  Biso   1.000  C
  H84      1.0000 0.48644  0.66156  0.17529  Biso   1.000  H
  H85      1.0000 0.54913  0.68992  0.23498  Biso   1.000  H
  C87      1.0000 0.63934  0.57945  0.17172  Biso   1.000  C
  C88      1.0000 0.24837  0.32378  0.33151  Biso   1.000  C
  C89      1.0000 0.21114  0.32489  0.45704  Biso   1.000  C
  H86      1.0000 0.44932  0.17365  0.36122  Biso   1.000  H
  H87      1.0000 0.46767  0.27060  0.32519  Biso   1.000  H
  C90      1.0000 0.57329  0.19214  0.40421  Biso   1.000  C
  C91      1.0000 0.16124  0.66887  0.12629  Biso   1.000  C
  C92      1.0000 0.14868  0.80122  0.21218  Biso   1.000  C
  C93      1.0000 0.12495  0.93557  0.29391  Biso   1.000  C
  H88      1.0000 0.63266  0.52249  0.14801  Biso   1.000  H
  H89      1.0000 0.69523  0.55117  0.20748  Biso   1.000  H
  C94      1.0000 0.66625  0.64749  0.11490  Biso   1.000  C
  C95      1.0000 0.14878  0.33921  0.31319  Biso   1.000  C
  H90      1.0000 0.29507  0.31859  0.29369  Biso   1.000  H
  C96      1.0000 0.11058  0.34218  0.44181  Biso   1.000  C
  H91      1.0000 0.57066  0.16340  0.45396  Biso   1.000  H
  H92      1.0000 0.59553  0.24950  0.40729  Biso   1.000  H
  C97      1.0000 0.65166  0.11169  0.36197  Biso   1.000  C
  C98      1.0000 0.09443  0.61579  0.15903  Biso   1.000  C
  H93      1.0000 0.11598  0.73030  0.09718  Biso   1.000  H
  C99      1.0000 0.24054  0.60716  0.07438  Biso   1.000  C
  O13      1.0000 0.05829  0.86281  0.17853  Biso   1.000  O
  C100     1.0000 0.07913  0.01741  0.31190  Biso   1.000  C
  H94      1.0000 0.66957  0.70639  0.13802  Biso   1.000  H
  H95      1.0000 0.61200  0.67292  0.07762  Biso   1.000  H
  C101     1.0000 0.76626  0.59409  0.07860  Biso   1.000  C
  C102     1.0000 0.11126  0.35185  0.23508  Biso   1.000  C
  C103     1.0000 0.08159  0.34797  0.36970  Biso   1.000  C
  C104     1.0000 0.03808  0.35508  0.49896  Biso   1.000  C
  H96      1.0000 0.62754  0.05616  0.35581  Biso   1.000  H
  H97      1.0000 0.65846  0.14158  0.31341  Biso   1.000  H
  C105     1.0000 0.75416  0.06879  0.39951  Biso   1.000  C
  C106     1.0000 0.12986  0.51189  0.17793  Biso   1.000  C
  C107     1.0000 0.99558  0.67258  0.17783  Biso   1.000  C
  H98      1.0000 0.20643  0.58852  0.03490  Biso   1.000  H
  H99      1.0000 0.28550  0.54422  0.10069  Biso   1.000  H
  C108     1.0000 0.30395  0.66542  0.04170  Biso   1.000  C
  C109     1.0000 0.97237  0.84298  0.20019  Biso   1.000  C
  Br6      1.0000 0.01426  0.14381  0.33804  Biso   1.000  Br
  H100     1.0000 0.81882  0.56169  0.11641  Biso   1.000  H
  H101     1.0000 0.76013  0.54019  0.05078  Biso   1.000  H
  C110     1.0000 0.79983  0.66388  0.02820  Biso   1.000  C
  C111     1.0000 0.18791  0.28748  0.18269  Biso   1.000  C
  C112     1.0000 0.07046  0.46480  0.21240  Biso   1.000  C
  H102     1.0000 0.05242  0.32986  0.23541  Biso   1.000  H
  O14      1.0000 0.98253  0.35853  0.35544  Biso   1.000  O
  C113     1.0000 0.97928  0.36811  0.54617  Biso   1.000  C
  H103     1.0000 0.74536  0.04571  0.44980  Biso   1.000  H
  H104     1.0000 0.78026  0.12369  0.40157  Biso   1.000  H
  C114     1.0000 0.83312  0.98168  0.36419  Biso   1.000  C
  H105     1.0000 0.19737  0.47207  0.16670  Biso   1.000  H
  C115     1.0000 0.93532  0.62959  0.21477  Biso   1.000  C
  O15      1.0000 0.95333  0.77520  0.15611  Biso   1.000  O
  H106     1.0000 0.25905  0.73538  0.02679  Biso   1.000  H
  H107     1.0000 0.35152  0.66841  0.07897  Biso   1.000  H
  C116     1.0000 0.36331  0.61642  0.97656  Biso   1.000  C
  H108     1.0000 0.91316  0.90711  0.19808  Biso   1.000  H
  H109     1.0000 0.98175  0.81407  0.25091  Biso   1.000  H
  H110     1.0000 0.85862  0.62381  0.00119  Biso   1.000  H
  H111     1.0000 0.81777  0.71006  0.05650  Biso   1.000  H
  H112     1.0000 0.74492  0.70264  0.99433  Biso   1.000  H
  H113     1.0000 0.16225  0.30911  0.13261  Biso   1.000  H
  H114     1.0000 0.25196  0.29860  0.18717  Biso   1.000  H
  C117     1.0000 0.20823  0.17542  0.19749  Biso   1.000  C
  C118     1.0000 0.97288  0.52425  0.23012  Biso   1.000  C
  C119     1.0000 0.91391  0.45802  0.33567  Biso   1.000  C
  Br7      1.0000 0.88866  0.38651  0.61775  Biso   1.000  Br
  H115     1.0000 0.85702  0.00828  0.31989  Biso   1.000  H
  H116     1.0000 0.80185  0.93451  0.34987  Biso   1.000  H
  C120     1.0000 0.92286  0.92444  0.41399  Biso   1.000  C
  C121     1.0000 0.83823  0.69238  0.24097  Biso   1.000  C
  H117     1.0000 0.40312  0.54455  0.99033  Biso   1.000  H
  H118     1.0000 0.31555  0.61932  0.93756  Biso   1.000  H
  C122     1.0000 0.43429  0.66766  0.94776  Biso   1.000  C
  H119     1.0000 0.23411  0.15416  0.24762  Biso   1.000  H
  H120     1.0000 0.14381  0.16491  0.19371  Biso   1.000  H
  C123     1.0000 0.28321  0.10889  0.14639  Biso   1.000  C
  O16      1.0000 0.90694  0.48142  0.26047  Biso   1.000  O
  H121     1.0000 0.84639  0.46536  0.35419  Biso   1.000  H
  H122     1.0000 0.93578  0.50667  0.35900  Biso   1.000  H
  H123     1.0000 0.97285  0.87122  0.38828  Biso   1.000  H
  H124     1.0000 0.90039  0.89425  0.45661  Biso   1.000  H
  H125     1.0000 0.95327  0.97106  0.42928  Biso   1.000  H
  C124     1.0000 0.76359  0.74657  0.26669  Biso   1.000  C
  H126     1.0000 0.39584  0.74091  0.93896  Biso   1.000  H
  H127     1.0000 0.48673  0.65827  0.98488  Biso   1.000  H
  C125     1.0000 0.48526  0.62622  0.87797  Biso   1.000  C
  H128     1.0000 0.34870  0.11641  0.15222  Biso   1.000  H
  H129     1.0000 0.25934  0.13250  0.09610  Biso   1.000  H
  C126     1.0000 0.29884  0.99731  0.15870  Biso   1.000  C
  Br8      1.0000 0.65322  0.82790  0.31147  Biso   1.000  Br
  H130     1.0000 0.52113  0.55244  0.88613  Biso   1.000  H
  H131     1.0000 0.43305  0.63861  0.84016  Biso   1.000  H
  C127     1.0000 0.55899  0.67354  0.85145  Biso   1.000  C
  H132     1.0000 0.32725  0.97343  0.20797  Biso   1.000  H
  H133     1.0000 0.23207  0.99152  0.15730  Biso   1.000  H
  C128     1.0000 0.36542  0.92798  0.10701  Biso   1.000  C
  H134     1.0000 0.59207  0.64206  0.80818  Biso   1.000  H
  H135     1.0000 0.60993  0.66325  0.88926  Biso   1.000  H
  H136     1.0000 0.52314  0.74593  0.83995  Biso   1.000  H
  H137     1.0000 0.36520  0.85927  0.11781  Biso   1.000  H
  H138     1.0000 0.33910  0.95118  0.05710  Biso   1.000  H
  C129     1.0000 0.46816  0.92512  0.11219  Biso   1.000  C
  H139     1.0000 0.40393  0.86476  0.13602  Biso   1.000  H
  H140     1.0000 0.32002  0.91154  0.07471  Biso   1.000  H
  C130     1.0000 0.44001  0.95095  0.05931  Biso   1.000  C
  H141     1.0000 0.46020  0.00162  0.08049  Biso   1.000  H
  H142     1.0000 0.46904  0.99205  0.09750  Biso   1.000  H
  H143     1.0000 0.51155  0.87584  0.08038  Biso   1.000  H
  H144     1.0000 0.49275  0.90583  0.16211  Biso   1.000  H
  H145     1.0000 0.49892  0.88966  0.05429  Biso   1.000  H
  H146     1.0000 0.40892  0.97805  0.01161  Biso   1.000  H
