data_image0
_cell_length_a       14.698
_cell_length_b       19.752
_cell_length_c       20.37
_cell_angle_alpha    96.91
_cell_angle_beta     110.23
_cell_angle_gamma    111.43

_symmetry_space_group_name_H-M    "P 1"
_symmetry_int_tables_number       1

loop_
  _symmetry_equiv_pos_as_xyz
  'x, y, z'

loop_
  _atom_site_label
  _atom_site_occupancy
  _atom_site_fract_x
  _atom_site_fract_y
  _atom_site_fract_z
  _atom_site_thermal_displace_type
  _atom_site_B_iso_or_equiv
  _atom_site_type_symbol
  O1       1.0000 0.51299  0.45032  0.41940  Biso   1.000  O
  C1       1.0000 0.50889  0.38626  0.44482  Biso   1.000  C
  C2       1.0000 0.58363  0.46920  0.38461  Biso   1.000  C
  C3       1.0000 0.42724  0.36573  0.47422  Biso   1.000  C
  H1       1.0000 0.48996  0.34320  0.40430  Biso   1.000  H
  H2       1.0000 0.58024  0.39783  0.48332  Biso   1.000  H
  H3       1.0000 0.58642  0.51479  0.36928  Biso   1.000  H
  H4       1.0000 0.65607  0.47872  0.41870  Biso   1.000  H
  H5       1.0000 0.55742  0.42699  0.34180  Biso   1.000  H
  O2       1.0000 0.32078  0.32769  0.41411  Biso   1.000  O
  H6       1.0000 0.43426  0.41194  0.50470  Biso   1.000  H
  H7       1.0000 0.43801  0.33184  0.50514  Biso   1.000  H
  C4       1.0000 0.24194  0.32404  0.43762  Biso   1.000  C
  C5       1.0000 0.19446  0.26112  0.45895  Biso   1.000  C
  C6       1.0000 0.21108  0.38348  0.43740  Biso   1.000  C
  C7       1.0000 0.21796  0.19265  0.44967  Biso   1.000  C
  C8       1.0000 0.11899  0.26071  0.48589  Biso   1.000  C
  C9       1.0000 0.13707  0.38223  0.46484  Biso   1.000  C
  C10      1.0000 0.25077  0.44365  0.40152  Biso   1.000  C
  C11      1.0000 0.16509  0.14712  0.37037  Biso   1.000  C
  H8       1.0000 0.19109  0.16002  0.47842  Biso   1.000  H
  H9       1.0000 0.29685  0.20990  0.46882  Biso   1.000  H
  C12      1.0000 0.09405  0.32184  0.48976  Biso   1.000  C
  H10      1.0000 0.08497  0.21893  0.50143  Biso   1.000  H
  H11      1.0000 0.11620  0.42232  0.46653  Biso   1.000  H
  C13      1.0000 0.20029  0.40893  0.31954  Biso   1.000  C
  H12      1.0000 0.23115  0.48512  0.41291  Biso   1.000  H
  H13      1.0000 0.33023  0.46519  0.42060  Biso   1.000  H
  C14      1.0000 0.22706  0.14501  0.33318  Biso   1.000  C
  C15      1.0000 0.05292  0.10943  0.33351  Biso   1.000  C
  Br1      1.0000 0.99222  0.32105  0.52766  Biso   1.000  Br
  C16      1.0000 0.26172  0.39715  0.28573  Biso   1.000  C
  C17      1.0000 0.08887  0.38213  0.27848  Biso   1.000  C
  C18      1.0000 0.17734  0.10563  0.25884  Biso   1.000  C
  H14      1.0000 0.30331  0.17032  0.35788  Biso   1.000  H
  C19      1.0000 0.00217  0.07639  0.25819  Biso   1.000  C
  O3       1.0000 0.99233  0.10863  0.37245  Biso   1.000  O
  C20      1.0000 0.21527  0.35992  0.21134  Biso   1.000  C
  H15      1.0000 0.33699  0.41461  0.31333  Biso   1.000  H
  C21      1.0000 0.03944  0.33956  0.20588  Biso   1.000  C
  O4       1.0000 0.02640  0.39530  0.31109  Biso   1.000  O
  N1       1.0000 0.23448  0.09633  0.21810  Biso   1.000  N
  C22      1.0000 0.06519  0.07431  0.22203  Biso   1.000  C
  C23      1.0000 0.88131  0.04839  0.21597  Biso   1.000  C
  C24      1.0000 0.96417  0.04160  0.39683  Biso   1.000  C
  C25      1.0000 0.10304  0.32950  0.17272  Biso   1.000  C
  N2       1.0000 0.28438  0.35387  0.17960  Biso   1.000  N
  C26      1.0000 0.91725  0.30076  0.16487  Biso   1.000  C
  C27      1.0000 0.01622  0.46442  0.30607  Biso   1.000  C
  C28      1.0000 0.35502  0.12663  0.24592  Biso   1.000  C
  O5       1.0000 0.17808  0.05594  0.15145  Biso   1.000  O
  H16      1.0000 0.03175  0.05110  0.17093  Biso   1.000  H
  H17      1.0000 0.85889  0.02210  0.16460  Biso   1.000  H
  H18      1.0000 0.84264  0.01170  0.23719  Biso   1.000  H
  C29      1.0000 0.85191  0.11456  0.21886  Biso   1.000  C
  H19      1.0000 0.02875  0.03301  0.42000  Biso   1.000  H
  H20      1.0000 0.90990  0.99682  0.35489  Biso   1.000  H
  C30      1.0000 0.91934  0.05280  0.45038  Biso   1.000  C
  H21      1.0000 0.07017  0.30141  0.12282  Biso   1.000  H
  O6       1.0000 0.38466  0.37863  0.22208  Biso   1.000  O
  C31      1.0000 0.25111  0.32157  0.09997  Biso   1.000  C
  C32      1.0000 0.86842  0.23562  0.19345  Biso   1.000  C
  H22      1.0000 0.89679  0.28130  0.11230  Biso   1.000  H
  H23      1.0000 0.88821  0.33801  0.17060  Biso   1.000  H
  H24      1.0000 0.08857  0.50791  0.32843  Biso   1.000  H
  H25      1.0000 0.98102  0.46219  0.25421  Biso   1.000  H
  C33      1.0000 0.95043  0.47490  0.34474  Biso   1.000  C
  C34      1.0000 0.40534  0.21362  0.26877  Biso   1.000  C
  C35      1.0000 0.37884  0.09891  0.18391  Biso   1.000  C
  C36      1.0000 0.39812  0.09484  0.30880  Biso   1.000  C
  C37      1.0000 0.79768  0.12435  0.26021  Biso   1.000  C
  C38      1.0000 0.88335  0.16975  0.18363  Biso   1.000  C
  O7       1.0000 0.00481  0.09724  0.51932  Biso   1.000  O
  H26      1.0000 0.87502  0.00299  0.45409  Biso   1.000  H
  H27      1.0000 0.87264  0.07850  0.43380  Biso   1.000  H
  C39      1.0000 0.35322  0.33291  0.08988  Biso   1.000  C
  C40      1.0000 0.19755  0.36489  0.05541  Biso   1.000  C
  C41      1.0000 0.17849  0.23628  0.07641  Biso   1.000  C
  C42      1.0000 0.81465  0.24405  0.23588  Biso   1.000  C
  O8       1.0000 0.84149  0.42341  0.30291  Biso   1.000  O
  H28      1.0000 0.95803  0.52750  0.35199  Biso   1.000  H
  H29      1.0000 0.97637  0.46613  0.39323  Biso   1.000  H
  H30      1.0000 0.38345  0.23120  0.30531  Biso   1.000  H
  H31      1.0000 0.48402  0.23393  0.28960  Biso   1.000  H
  H32      1.0000 0.38054  0.23130  0.22601  Biso   1.000  H
  H33      1.0000 0.34693  0.04343  0.16962  Biso   1.000  H
  H34      1.0000 0.34782  0.11609  0.14218  Biso   1.000  H
  H35      1.0000 0.45697  0.11930  0.19983  Biso   1.000  H
  H36      1.0000 0.35110  0.04058  0.29609  Biso   1.000  H
  H37      1.0000 0.47136  0.10212  0.31731  Biso   1.000  H
  H38      1.0000 0.39943  0.12152  0.35319  Biso   1.000  H
  H39      1.0000 0.77327  0.08731  0.28371  Biso   1.000  H
  C43      1.0000 0.77901  0.18830  0.26719  Biso   1.000  C
  O9       1.0000 0.93647  0.15879  0.14202  Biso   1.000  O
  C44      1.0000 0.96673  0.11752  0.57042  Biso   1.000  C
  H40      1.0000 0.40278  0.38708  0.10728  Biso   1.000  H
  H41      1.0000 0.38804  0.30518  0.11770  Biso   1.000  H
  H42      1.0000 0.33464  0.31383  0.03801  Biso   1.000  H
  H43      1.0000 0.24465  0.41939  0.07543  Biso   1.000  H
  H44      1.0000 0.18522  0.34843  0.00453  Biso   1.000  H
  H45      1.0000 0.12845  0.35428  0.05781  Biso   1.000  H
  H46      1.0000 0.21773  0.21131  0.10510  Biso   1.000  H
  H47      1.0000 0.11371  0.22759  0.08459  Biso   1.000  H
  H48      1.0000 0.15768  0.21549  0.02449  Biso   1.000  H
  H49      1.0000 0.80273  0.28791  0.24303  Biso   1.000  H
  C45      1.0000 0.77615  0.42769  0.33880  Biso   1.000  C
  Br2      1.0000 0.70617  0.20053  0.32571  Biso   1.000  Br
  C46      1.0000 0.87650  0.13690  0.06414  Biso   1.000  C
  H50      1.0000 0.02780  0.14624  0.61804  Biso   1.000  H
  H51      1.0000 0.92997  0.14894  0.55352  Biso   1.000  H
  H52      1.0000 0.91612  0.07149  0.57500  Biso   1.000  H
  H53      1.0000 0.70105  0.39128  0.30798  Biso   1.000  H
  H54      1.0000 0.80074  0.41569  0.38521  Biso   1.000  H
  H55      1.0000 0.78117  0.47910  0.34812  Biso   1.000  H
  H56      1.0000 0.79847  0.11799  0.05159  Biso   1.000  H
  H57      1.0000 0.89882  0.18127  0.04538  Biso   1.000  H
  C47      1.0000 0.89731  0.07581  0.02961  Biso   1.000  C
  H58      1.0000 0.87265  0.06968  0.97649  Biso   1.000  H
  O10      1.0000 0.84114  0.00711  0.04200  Biso   1.000  O
  H59      1.0000 0.97558  0.08992  0.05099  Biso   1.000  H
  C48      1.0000 0.86831  0.94868  0.01914  Biso   1.000  C
  H60      1.0000 0.85429  0.94132  0.96760  Biso   1.000  H
  H61      1.0000 0.82432  0.90135  0.02580  Biso   1.000  H
  H62      1.0000 0.94465  0.96324  0.04838  Biso   1.000  H
  O11      1.0000 0.48712  0.54969  0.58062  Biso   1.000  O
  C49      1.0000 0.49125  0.61380  0.55521  Biso   1.000  C
  C50      1.0000 0.41649  0.53081  0.61542  Biso   1.000  C
  C51      1.0000 0.57289  0.63433  0.52581  Biso   1.000  C
  H63      1.0000 0.51021  0.65681  0.59573  Biso   1.000  H
  H64      1.0000 0.41989  0.60223  0.51670  Biso   1.000  H
  H65      1.0000 0.41369  0.48521  0.63074  Biso   1.000  H
  H66      1.0000 0.34407  0.52134  0.58133  Biso   1.000  H
  H67      1.0000 0.44269  0.57302  0.65823  Biso   1.000  H
  O12      1.0000 0.67943  0.67237  0.58591  Biso   1.000  O
  H68      1.0000 0.56587  0.58812  0.49532  Biso   1.000  H
  H69      1.0000 0.56220  0.66822  0.49489  Biso   1.000  H
  C52      1.0000 0.75817  0.67596  0.56241  Biso   1.000  C
  C53      1.0000 0.78906  0.61658  0.56262  Biso   1.000  C
  C54      1.0000 0.80568  0.73894  0.54108  Biso   1.000  C
  C55      1.0000 0.74937  0.55641  0.59851  Biso   1.000  C
  C56      1.0000 0.86307  0.61783  0.53519  Biso   1.000  C
  C57      1.0000 0.88119  0.73930  0.51414  Biso   1.000  C
  C58      1.0000 0.78221  0.80736  0.55035  Biso   1.000  C
  C59      1.0000 0.79992  0.59113  0.68048  Biso   1.000  C
  H70      1.0000 0.76899  0.51494  0.58711  Biso   1.000  H
  H71      1.0000 0.66988  0.53482  0.57942  Biso   1.000  H
  H72      1.0000 0.88401  0.57774  0.53350  Biso   1.000  H
  C60      1.0000 0.90609  0.67822  0.51027  Biso   1.000  C
  H73      1.0000 0.91517  0.78113  0.49860  Biso   1.000  H
  H74      1.0000 0.80912  0.84004  0.52161  Biso   1.000  H
  H75      1.0000 0.70327  0.79010  0.53121  Biso   1.000  H
  C61      1.0000 0.83511  0.85294  0.62965  Biso   1.000  C
  C62      1.0000 0.73839  0.60285  0.71430  Biso   1.000  C
  C63      1.0000 0.91133  0.61793  0.72155  Biso   1.000  C
  Br3      1.0000 0.00789  0.67895  0.47236  Biso   1.000  Br
  C64      1.0000 0.77315  0.85505  0.66685  Biso   1.000  C
  C65      1.0000 0.94722  0.89063  0.66652  Biso   1.000  C
  C66      1.0000 0.78494  0.64014  0.78869  Biso   1.000  C
  H76      1.0000 0.66319  0.58540  0.68670  Biso   1.000  H
  O13      1.0000 0.97374  0.60476  0.68894  Biso   1.000  O
  C67      1.0000 0.96070  0.66050  0.79414  Biso   1.000  C
  H77      1.0000 0.69683  0.82974  0.64214  Biso   1.000  H
  C68      1.0000 0.82280  0.89443  0.74118  Biso   1.000  C
  C69      1.0000 0.99804  0.92367  0.74184  Biso   1.000  C
  O14      1.0000 0.00778  0.89138  0.62758  Biso   1.000  O
  N3       1.0000 0.71583  0.64619  0.82043  Biso   1.000  N
  C70      1.0000 0.89710  0.67056  0.82730  Biso   1.000  C
  C71      1.0000 0.98391  0.53564  0.69395  Biso   1.000  C
  C72      1.0000 0.08295  0.69930  0.83516  Biso   1.000  C
  N4       1.0000 0.76565  0.90373  0.78193  Biso   1.000  N
  C73      1.0000 0.93492  0.92569  0.77800  Biso   1.000  C
  C74      1.0000 0.11880  0.95162  0.78405  Biso   1.000  C
  C75      1.0000 0.03604  0.95846  0.60320  Biso   1.000  C
  O15      1.0000 0.61555  0.62143  0.77794  Biso   1.000  O
  C76      1.0000 0.74900  0.67843  0.90006  Biso   1.000  C
  H78      1.0000 0.93004  0.69865  0.87721  Biso   1.000  H
  H79      1.0000 0.91154  0.49209  0.67159  Biso   1.000  H
  H80      1.0000 0.01909  0.53781  0.74582  Biso   1.000  H
  C77      1.0000 0.04968  0.52511  0.65529  Biso   1.000  C
  C78      1.0000 0.13172  0.76444  0.80658  Biso   1.000  C
  H81      1.0000 0.10335  0.71876  0.88773  Biso   1.000  H
  H82      1.0000 0.11193  0.66205  0.82943  Biso   1.000  H
  O16      1.0000 0.82203  0.94407  0.84857  Biso   1.000  O
  C79      1.0000 0.64512  0.87343  0.75411  Biso   1.000  C
  H83      1.0000 0.96843  0.94891  0.82910  Biso   1.000  H
  H84      1.0000 0.14125  0.97796  0.83543  Biso   1.000  H
  H85      1.0000 0.15756  0.98836  0.76284  Biso   1.000  H
  C80      1.0000 0.14820  0.88545  0.78116  Biso   1.000  C
  H86      1.0000 0.97138  0.96705  0.58002  Biso   1.000  H
  C81      1.0000 0.08077  0.94720  0.54964  Biso   1.000  C
  H87      1.0000 0.09021  0.00319  0.64514  Biso   1.000  H
  C82      1.0000 0.64692  0.66715  0.91015  Biso   1.000  C
  C83      1.0000 0.80263  0.63511  0.94462  Biso   1.000  C
  C84      1.0000 0.82163  0.76372  0.92362  Biso   1.000  C
  O17      1.0000 0.15862  0.57660  0.69712  Biso   1.000  O
  H88      1.0000 0.04208  0.47251  0.64803  Biso   1.000  H
  H89      1.0000 0.02377  0.53393  0.60680  Biso   1.000  H
  C85      1.0000 0.18549  0.75601  0.76415  Biso   1.000  C
  C86      1.0000 0.11683  0.83025  0.81639  Biso   1.000  C
  C87      1.0000 0.62130  0.90115  0.81612  Biso   1.000  C
  C88      1.0000 0.60202  0.90522  0.69123  Biso   1.000  C
  C89      1.0000 0.59484  0.78639  0.73126  Biso   1.000  C
  C90      1.0000 0.20253  0.87571  0.73982  Biso   1.000  C
  O18      1.0000 0.99533  0.90282  0.48071  Biso   1.000  O
  H90      1.0000 0.12509  0.99702  0.54594  Biso   1.000  H
  H91      1.0000 0.12749  0.92156  0.56622  Biso   1.000  H
  H92      1.0000 0.59733  0.61293  0.89275  Biso   1.000  H
  H93      1.0000 0.61214  0.69482  0.88233  Biso   1.000  H
  H94      1.0000 0.66550  0.68623  0.96201  Biso   1.000  H
  H95      1.0000 0.75553  0.58061  0.92460  Biso   1.000  H
  H96      1.0000 0.81491  0.65163  0.99550  Biso   1.000  H
  H97      1.0000 0.87173  0.64572  0.94222  Biso   1.000  H
  H98      1.0000 0.78241  0.78875  0.89493  Biso   1.000  H
  H99      1.0000 0.88640  0.77242  0.91544  Biso   1.000  H
  H100     1.0000 0.84245  0.78457  0.97554  Biso   1.000  H
  C91      1.0000 0.22396  0.57232  0.66123  Biso   1.000  C
  C92      1.0000 0.22113  0.81176  0.73284  Biso   1.000  C
  H101     1.0000 0.19740  0.71215  0.75700  Biso   1.000  H
  O19      1.0000 0.06373  0.84127  0.85801  Biso   1.000  O
  H102     1.0000 0.65321  0.95663  0.83041  Biso   1.000  H
  H103     1.0000 0.65236  0.88392  0.85784  Biso   1.000  H
  H104     1.0000 0.54321  0.88070  0.80020  Biso   1.000  H
  H105     1.0000 0.64901  0.95943  0.70393  Biso   1.000  H
  H106     1.0000 0.52878  0.89794  0.68272  Biso   1.000  H
  H107     1.0000 0.60071  0.87854  0.64683  Biso   1.000  H
  H108     1.0000 0.61673  0.76881  0.69472  Biso   1.000  H
  H109     1.0000 0.51612  0.76613  0.71042  Biso   1.000  H
  H110     1.0000 0.61960  0.76876  0.77402  Biso   1.000  H
  H111     1.0000 0.22694  0.91275  0.71632  Biso   1.000  H
  C93      1.0000 0.03341  0.88254  0.42960  Biso   1.000  C
  H112     1.0000 0.29912  0.60872  0.69205  Biso   1.000  H
  H113     1.0000 0.19937  0.58431  0.61482  Biso   1.000  H
  H114     1.0000 0.21894  0.52090  0.65190  Biso   1.000  H
  Br4      1.0000 0.29397  0.79953  0.67432  Biso   1.000  Br
  C94      1.0000 0.12361  0.86310  0.93589  Biso   1.000  C
  H115     1.0000 0.97234  0.85382  0.38199  Biso   1.000  H
  H116     1.0000 0.07017  0.85112  0.44651  Biso   1.000  H
  H117     1.0000 0.08399  0.92851  0.42502  Biso   1.000  H
  H118     1.0000 0.20164  0.88201  0.94843  Biso   1.000  H
  H119     1.0000 0.10136  0.81874  0.95465  Biso   1.000  H
  C95      1.0000 0.10280  0.92420  0.97041  Biso   1.000  C
  O20      1.0000 0.15897  0.99290  0.95803  Biso   1.000  O
  H120     1.0000 0.02456  0.91014  0.94903  Biso   1.000  H
  H121     1.0000 0.12746  0.93033  0.02353  Biso   1.000  H
  C96      1.0000 0.13189  0.05138  0.98088  Biso   1.000  C
  H122     1.0000 0.17589  0.09871  0.97423  Biso   1.000  H
  H123     1.0000 0.05549  0.03682  0.95165  Biso   1.000  H
  H124     1.0000 0.14582  0.05868  0.03242  Biso   1.000  H
