data_image0
_cell_length_a       15.774
_cell_length_b       13.473
_cell_length_c       13.507
_cell_angle_alpha    90
_cell_angle_beta     90
_cell_angle_gamma    90

_symmetry_space_group_name_H-M    "P 1"
_symmetry_int_tables_number       1

loop_
  _symmetry_equiv_pos_as_xyz
  'x, y, z'

loop_
  _atom_site_label
  _atom_site_occupancy
  _atom_site_fract_x
  _atom_site_fract_y
  _atom_site_fract_z
  _atom_site_thermal_displace_type
  _atom_site_B_iso_or_equiv
  _atom_site_type_symbol
  C1       1.0000 0.46133  0.54598  0.84793  Biso   1.000  C
  C2       1.0000 0.44681  0.49774  0.93729  Biso   1.000  C
  H1       1.0000 0.45271  0.51273  0.78848  Biso   1.000  H
  C3       1.0000 0.48853  0.64410  0.84749  Biso   1.000  C
  H2       1.0000 0.42862  0.43212  0.93759  Biso   1.000  H
  C4       1.0000 0.45962  0.54747  0.02621  Biso   1.000  C
  N1       1.0000 0.50482  0.70081  0.76020  Biso   1.000  N
  C5       1.0000 0.50133  0.69391  0.93640  Biso   1.000  C
  C6       1.0000 0.48681  0.64559  0.02569  Biso   1.000  C
  H3       1.0000 0.44992  0.51518  0.08588  Biso   1.000  H
  C7       1.0000 0.57462  0.67119  0.70867  Biso   1.000  C
  C8       1.0000 0.45252  0.79032  0.74050  Biso   1.000  C
  H4       1.0000 0.51953  0.75959  0.93603  Biso   1.000  H
  N2       1.0000 0.50799  0.68507  0.12260  Biso   1.000  N
  C9       1.0000 0.59573  0.72011  0.62153  Biso   1.000  C
  N3       1.0000 0.62971  0.60128  0.74857  Biso   1.000  N
  H5       1.0000 0.46780  0.81778  0.67750  Biso   1.000  H
  H6       1.0000 0.46228  0.83857  0.79152  Biso   1.000  H
  H7       1.0000 0.39362  0.77221  0.73991  Biso   1.000  H
  C10      1.0000 0.57950  0.67157  0.17258  Biso   1.000  C
  C11      1.0000 0.46399  0.78201  0.14607  Biso   1.000  C
  H8       1.0000 0.55883  0.76687  0.59480  Biso   1.000  H
  C12      1.0000 0.67193  0.69918  0.57429  Biso   1.000  C
  C13      1.0000 0.70591  0.58042  0.70127  Biso   1.000  C
  H9       1.0000 0.61658  0.57099  0.80247  Biso   1.000  H
  C14      1.0000 0.60910  0.71298  0.26031  Biso   1.000  C
  N4       1.0000 0.62673  0.59890  0.12468  Biso   1.000  N
  H10      1.0000 0.48333  0.80621  0.20900  Biso   1.000  H
  H11      1.0000 0.40383  0.77147  0.14852  Biso   1.000  H
  H12      1.0000 0.47692  0.82981  0.09558  Biso   1.000  H
  H13      1.0000 0.68600  0.73198  0.51603  Biso   1.000  H
  C15      1.0000 0.72702  0.62941  0.61420  Biso   1.000  C
  N5       1.0000 0.74971  0.50983  0.75790  Biso   1.000  N
  C16      1.0000 0.68588  0.68173  0.30007  Biso   1.000  C
  H14      1.0000 0.57760  0.76160  0.29237  Biso   1.000  H
  C17      1.0000 0.70337  0.56758  0.16451  Biso   1.000  C
  H15      1.0000 0.60841  0.57329  0.07048  Biso   1.000  H
  H16      1.0000 0.77799  0.61538  0.58259  Biso   1.000  H
  C18      1.0000 0.71738  0.45780  0.85111  Biso   1.000  C
  C19      1.0000 0.83821  0.47347  0.73029  Biso   1.000  C
  C20      1.0000 0.73298  0.60900  0.25217  Biso   1.000  C
  H17      1.0000 0.70572  0.70942  0.35878  Biso   1.000  H
  N6       1.0000 0.74769  0.50278  0.11579  Biso   1.000  N
  C21      1.0000 0.65912  0.38069  0.85741  Biso   1.000  C
  C22      1.0000 0.74623  0.50397  0.93670  Biso   1.000  C
  H18      1.0000 0.85679  0.50657  0.67121  Biso   1.000  H
  H19      1.0000 0.83669  0.40318  0.71889  Biso   1.000  H
  H20      1.0000 0.87682  0.48779  0.78330  Biso   1.000  H
  H21      1.0000 0.78439  0.58799  0.27882  Biso   1.000  H
  C23      1.0000 0.71669  0.47302  0.02873  Biso   1.000  C
  C24      1.0000 0.83378  0.48623  0.14489  Biso   1.000  C
  H22      1.0000 0.63979  0.34981  0.80010  Biso   1.000  H
  C25      1.0000 0.62958  0.34974  0.94929  Biso   1.000  C
  H23      1.0000 0.78522  0.55563  0.93248  Biso   1.000  H
  C26      1.0000 0.65843  0.39590  0.03502  Biso   1.000  C
  H24      1.0000 0.85818  0.43561  0.10387  Biso   1.000  H
  H25      1.0000 0.83543  0.46538  0.21278  Biso   1.000  H
  H26      1.0000 0.86547  0.54657  0.13763  Biso   1.000  H
  H27      1.0000 0.59059  0.29808  0.95351  Biso   1.000  H
  H28      1.0000 0.63871  0.37519  0.09647  Biso   1.000  H
  C27      1.0000 0.22702  0.87063  0.61420  Biso   1.000  C
  C28      1.0000 0.17193  0.80079  0.57429  Biso   1.000  C
  H29      1.0000 0.27799  0.88458  0.58259  Biso   1.000  H
  C29      1.0000 0.20591  0.91962  0.70127  Biso   1.000  C
  C30      1.0000 0.09573  0.77993  0.62153  Biso   1.000  C
  H30      1.0000 0.18600  0.76798  0.51603  Biso   1.000  H
  N7       1.0000 0.12971  0.89869  0.74857  Biso   1.000  N
  N8       1.0000 0.24971  0.99020  0.75790  Biso   1.000  N
  C31      1.0000 0.07462  0.82877  0.70867  Biso   1.000  C
  H31      1.0000 0.05883  0.73310  0.59480  Biso   1.000  H
  H32      1.0000 0.11658  0.92897  0.80247  Biso   1.000  H
  C32      1.0000 0.21738  0.04223  0.85111  Biso   1.000  C
  C33      1.0000 0.33821  0.02650  0.73029  Biso   1.000  C
  N9       1.0000 0.00482  0.79923  0.76020  Biso   1.000  N
  C34      1.0000 0.24623  0.99599  0.93670  Biso   1.000  C
  C35      1.0000 0.15912  0.11928  0.85741  Biso   1.000  C
  H33      1.0000 0.35679  0.99339  0.67121  Biso   1.000  H
  H34      1.0000 0.33669  0.09679  0.71889  Biso   1.000  H
  H35      1.0000 0.37682  0.01217  0.78330  Biso   1.000  H
  C36      1.0000 0.98853  0.85593  0.84749  Biso   1.000  C
  C37      1.0000 0.95252  0.70972  0.74050  Biso   1.000  C
  H36      1.0000 0.28522  0.94441  0.93248  Biso   1.000  H
  C38      1.0000 0.21669  0.02702  0.02873  Biso   1.000  C
  H37      1.0000 0.13979  0.15023  0.80010  Biso   1.000  H
  C39      1.0000 0.12958  0.15030  0.94929  Biso   1.000  C
  C40      1.0000 0.00133  0.80613  0.93640  Biso   1.000  C
  C41      1.0000 0.96133  0.95398  0.84793  Biso   1.000  C
  H38      1.0000 0.96780  0.68218  0.67750  Biso   1.000  H
  H39      1.0000 0.96228  0.66140  0.79152  Biso   1.000  H
  H40      1.0000 0.89362  0.72783  0.73991  Biso   1.000  H
  N10      1.0000 0.24769  0.99718  0.11579  Biso   1.000  N
  C42      1.0000 0.15843  0.10413  0.03502  Biso   1.000  C
  H41      1.0000 0.09059  0.20189  0.95351  Biso   1.000  H
  H42      1.0000 0.01953  0.74037  0.93603  Biso   1.000  H
  C43      1.0000 0.98681  0.85438  0.02569  Biso   1.000  C
  H43      1.0000 0.95271  0.98731  0.78848  Biso   1.000  H
  C44      1.0000 0.94681  0.00230  0.93729  Biso   1.000  C
  C45      1.0000 0.20337  0.93238  0.16451  Biso   1.000  C
  C46      1.0000 0.33378  0.01381  0.14489  Biso   1.000  C
  H44      1.0000 0.13871  0.12477  0.09647  Biso   1.000  H
  C47      1.0000 0.95962  0.95250  0.02621  Biso   1.000  C
  N11      1.0000 0.00799  0.81489  0.12260  Biso   1.000  N
  H45      1.0000 0.92862  0.06791  0.93759  Biso   1.000  H
  N12      1.0000 0.12673  0.90114  0.12468  Biso   1.000  N
  C48      1.0000 0.23298  0.89097  0.25217  Biso   1.000  C
  H46      1.0000 0.36547  0.95339  0.13763  Biso   1.000  H
  H47      1.0000 0.35818  0.06443  0.10387  Biso   1.000  H
  H48      1.0000 0.33543  0.03459  0.21278  Biso   1.000  H
  H49      1.0000 0.94992  0.98478  0.08588  Biso   1.000  H
  C49      1.0000 0.96399  0.71803  0.14607  Biso   1.000  C
  C50      1.0000 0.07950  0.82840  0.17258  Biso   1.000  C
  H50      1.0000 0.10841  0.92667  0.07048  Biso   1.000  H
  C51      1.0000 0.18588  0.81830  0.30007  Biso   1.000  C
  H51      1.0000 0.28439  0.91197  0.27882  Biso   1.000  H
  H52      1.0000 0.98333  0.69383  0.20900  Biso   1.000  H
  H53      1.0000 0.90383  0.72849  0.14852  Biso   1.000  H
  H54      1.0000 0.97692  0.67023  0.09558  Biso   1.000  H
  C52      1.0000 0.10910  0.78698  0.26031  Biso   1.000  C
  H55      1.0000 0.20572  0.79062  0.35878  Biso   1.000  H
  H56      1.0000 0.07760  0.73837  0.29237  Biso   1.000  H
  C53      1.0000 0.81412  0.18170  0.80010  Biso   1.000  C
  C54      1.0000 0.76702  0.10903  0.75220  Biso   1.000  C
  H57      1.0000 0.79428  0.20938  0.85881  Biso   1.000  H
  C55      1.0000 0.89090  0.21302  0.76027  Biso   1.000  C
  C56      1.0000 0.79663  0.06762  0.66447  Biso   1.000  C
  H58      1.0000 0.71561  0.08803  0.77878  Biso   1.000  H
  C57      1.0000 0.92050  0.17160  0.67261  Biso   1.000  C
  H59      1.0000 0.92240  0.26163  0.79240  Biso   1.000  H
  N13      1.0000 0.75231  0.00282  0.61583  Biso   1.000  N
  N14      1.0000 0.87327  0.09886  0.62471  Biso   1.000  N
  N15      1.0000 0.99201  0.18511  0.62257  Biso   1.000  N
  C58      1.0000 0.78331  0.97298  0.52869  Biso   1.000  C
  C59      1.0000 0.66622  0.98619  0.64492  Biso   1.000  C
  H60      1.0000 0.89159  0.07333  0.57052  Biso   1.000  H
  C60      1.0000 0.01319  0.14562  0.52573  Biso   1.000  C
  C61      1.0000 0.03601  0.28197  0.64611  Biso   1.000  C
  C62      1.0000 0.75377  0.00401  0.43674  Biso   1.000  C
  C63      1.0000 0.84157  0.89587  0.53498  Biso   1.000  C
  H61      1.0000 0.63453  0.04661  0.63760  Biso   1.000  H
  H62      1.0000 0.64182  0.93557  0.60391  Biso   1.000  H
  H63      1.0000 0.66457  0.96541  0.71282  Biso   1.000  H
  C64      1.0000 0.99867  0.19387  0.43637  Biso   1.000  C
  C65      1.0000 0.04038  0.04750  0.52617  Biso   1.000  C
  H64      1.0000 0.01667  0.30617  0.70897  Biso   1.000  H
  H65      1.0000 0.09617  0.27151  0.64848  Biso   1.000  H
  H66      1.0000 0.02308  0.32977  0.59562  Biso   1.000  H
  C66      1.0000 0.78262  0.95777  0.35108  Biso   1.000  C
  H67      1.0000 0.71478  0.05559  0.43252  Biso   1.000  H
  C67      1.0000 0.87042  0.84970  0.44932  Biso   1.000  C
  H68      1.0000 0.86129  0.87523  0.59651  Biso   1.000  H
  C68      1.0000 0.01147  0.14407  0.34752  Biso   1.000  C
  H69      1.0000 0.98047  0.25963  0.43600  Biso   1.000  H
  C69      1.0000 0.05319  0.99770  0.43733  Biso   1.000  C
  H70      1.0000 0.05008  0.01522  0.58592  Biso   1.000  H
  N16      1.0000 0.75029  0.00980  0.25787  Biso   1.000  N
  C70      1.0000 0.84088  0.88072  0.35737  Biso   1.000  C
  H71      1.0000 0.90941  0.79811  0.45347  Biso   1.000  H
  N17      1.0000 0.99518  0.20077  0.26024  Biso   1.000  N
  C71      1.0000 0.03867  0.04602  0.34789  Biso   1.000  C
  H72      1.0000 0.07138  0.93209  0.43762  Biso   1.000  H
  C72      1.0000 0.79409  0.08038  0.20130  Biso   1.000  C
  C73      1.0000 0.66179  0.97350  0.23033  Biso   1.000  C
  H73      1.0000 0.86021  0.84977  0.30007  Biso   1.000  H
  C74      1.0000 0.92538  0.17123  0.20871  Biso   1.000  C
  C75      1.0000 0.04748  0.29028  0.24047  Biso   1.000  C
  H74      1.0000 0.04729  0.01269  0.28852  Biso   1.000  H
  C76      1.0000 0.77298  0.12937  0.11416  Biso   1.000  C
  N18      1.0000 0.87029  0.10131  0.24861  Biso   1.000  N
  H75      1.0000 0.64321  0.00661  0.17117  Biso   1.000  H
  H76      1.0000 0.66331  0.90321  0.21892  Biso   1.000  H
  H77      1.0000 0.62318  0.98783  0.28333  Biso   1.000  H
  C77      1.0000 0.90427  0.22007  0.12149  Biso   1.000  C
  H78      1.0000 0.03220  0.31782  0.17746  Biso   1.000  H
  H79      1.0000 0.03772  0.33860  0.29148  Biso   1.000  H
  H80      1.0000 0.10638  0.27217  0.23988  Biso   1.000  H
  C78      1.0000 0.82807  0.19921  0.07433  Biso   1.000  C
  H81      1.0000 0.72201  0.11542  0.08262  Biso   1.000  H
  H82      1.0000 0.88342  0.07103  0.30251  Biso   1.000  H
  H83      1.0000 0.94117  0.26690  0.09477  Biso   1.000  H
  H84      1.0000 0.81400  0.23202  0.01599  Biso   1.000  H
