data_image0
_cell_length_a       9.663
_cell_length_b       11.092
_cell_length_c       14.06
_cell_angle_alpha    83.59
_cell_angle_beta     70.53
_cell_angle_gamma    86

_symmetry_space_group_name_H-M    "P 1"
_symmetry_int_tables_number       1

loop_
  _symmetry_equiv_pos_as_xyz
  'x, y, z'

loop_
  _atom_site_label
  _atom_site_occupancy
  _atom_site_fract_x
  _atom_site_fract_y
  _atom_site_fract_z
  _atom_site_thermal_displace_type
  _atom_site_B_iso_or_equiv
  _atom_site_type_symbol
  C1       1.0000 0.63382  0.53748  0.62831  Biso   1.000  C
  N1       1.0000 0.72948  0.61895  0.54693  Biso   1.000  N
  H1       1.0000 0.68986  0.49478  0.66726  Biso   1.000  H
  H2       1.0000 0.59325  0.48028  0.59936  Biso   1.000  H
  H3       1.0000 0.55561  0.58438  0.67173  Biso   1.000  H
  C2       1.0000 0.66255  0.69041  0.48131  Biso   1.000  C
  C3       1.0000 0.86683  0.63821  0.54435  Biso   1.000  C
  N2       1.0000 0.69998  0.65761  0.38735  Biso   1.000  N
  C4       1.0000 0.56611  0.78442  0.51889  Biso   1.000  C
  N3       1.0000 0.94482  0.72608  0.47593  Biso   1.000  N
  C5       1.0000 0.93575  0.57183  0.60823  Biso   1.000  C
  C6       1.0000 0.64018  0.72324  0.32378  Biso   1.000  C
  C7       1.0000 0.50449  0.85019  0.45244  Biso   1.000  C
  H4       1.0000 0.54364  0.80295  0.58542  Biso   1.000  H
  C8       1.0000 0.08653  0.74805  0.46540  Biso   1.000  C
  H5       1.0000 0.90301  0.76951  0.43782  Biso   1.000  H
  H6       1.0000 0.88577  0.51098  0.65581  Biso   1.000  H
  C9       1.0000 0.07488  0.59619  0.60050  Biso   1.000  C
  N4       1.0000 0.68010  0.69025  0.22664  Biso   1.000  N
  C10      1.0000 0.53934  0.82135  0.35462  Biso   1.000  C
  H7       1.0000 0.43853  0.91451  0.47434  Biso   1.000  H
  N5       1.0000 0.15437  0.84150  0.39076  Biso   1.000  N
  C11      1.0000 0.15399  0.68570  0.52715  Biso   1.000  C
  H8       1.0000 0.11857  0.55338  0.64445  Biso   1.000  H
  C12      1.0000 0.79420  0.60126  0.19193  Biso   1.000  C
  C13      1.0000 0.60481  0.74515  0.15730  Biso   1.000  C
  H9       1.0000 0.49795  0.86507  0.30984  Biso   1.000  H
  C14      1.0000 0.18306  0.82742  0.28869  Biso   1.000  C
  C15      1.0000 0.17342  0.95820  0.42183  Biso   1.000  C
  H10      1.0000 0.24994  0.70157  0.52109  Biso   1.000  H
  C16      1.0000 0.76238  0.49425  0.16382  Biso   1.000  C
  N6       1.0000 0.92956  0.63120  0.18443  Biso   1.000  N
  H11      1.0000 0.53064  0.80255  0.19087  Biso   1.000  H
  H12      1.0000 0.55973  0.68296  0.13654  Biso   1.000  H
  H13      1.0000 0.67428  0.78589  0.09888  Biso   1.000  H
  N7       1.0000 0.16501  0.71778  0.26634  Biso   1.000  N
  C17      1.0000 0.23224  0.92554  0.21504  Biso   1.000  C
  H14      1.0000 0.23274  0.94699  0.46525  Biso   1.000  H
  H15      1.0000 0.07919  0.99292  0.45782  Biso   1.000  H
  H16      1.0000 0.22094  0.01164  0.36303  Biso   1.000  H
  C18      1.0000 0.87883  0.41311  0.12593  Biso   1.000  C
  H17      1.0000 0.66673  0.47721  0.16988  Biso   1.000  H
  C19      1.0000 0.03947  0.55063  0.15033  Biso   1.000  C
  C20      1.0000 0.19560  0.70175  0.16791  Biso   1.000  C
  C21      1.0000 0.26789  0.90474  0.11487  Biso   1.000  C
  H18      1.0000 0.24050  0.00210  0.23338  Biso   1.000  H
  H19      1.0000 0.86184  0.34077  0.10464  Biso   1.000  H
  C22      1.0000 0.01808  0.43840  0.11972  Biso   1.000  C
  N8       1.0000 0.17679  0.58266  0.14677  Biso   1.000  N
  C23      1.0000 0.24891  0.79167  0.09009  Biso   1.000  C
  H20      1.0000 0.30473  0.96676  0.06410  Biso   1.000  H
  H21      1.0000 0.09624  0.38349  0.09608  Biso   1.000  H
  C24      1.0000 0.30908  0.51455  0.09350  Biso   1.000  C
  H22      1.0000 0.27128  0.77638  0.02281  Biso   1.000  H
  H23      1.0000 0.28317  0.43606  0.08350  Biso   1.000  H
  H24      1.0000 0.37391  0.50496  0.13298  Biso   1.000  H
  H25      1.0000 0.35739  0.55769  0.02902  Biso   1.000  H
  C25      1.0000 0.36615  0.46235  0.37174  Biso   1.000  C
  N9       1.0000 0.27049  0.38098  0.45312  Biso   1.000  N
  H26      1.0000 0.31011  0.50505  0.33279  Biso   1.000  H
  H27      1.0000 0.40673  0.51955  0.40069  Biso   1.000  H
  H28      1.0000 0.44436  0.41545  0.32832  Biso   1.000  H
  C26      1.0000 0.13325  0.36162  0.45570  Biso   1.000  C
  C27      1.0000 0.33743  0.30942  0.51874  Biso   1.000  C
  C28      1.0000 0.06433  0.42800  0.39182  Biso   1.000  C
  N10      1.0000 0.05515  0.27375  0.52412  Biso   1.000  N
  N11      1.0000 0.30010  0.34222  0.61270  Biso   1.000  N
  C29      1.0000 0.43386  0.21542  0.48116  Biso   1.000  C
  H29      1.0000 0.11420  0.48885  0.34424  Biso   1.000  H
  C30      1.0000 0.92510  0.40364  0.39955  Biso   1.000  C
  H30      1.0000 0.09696  0.23033  0.56224  Biso   1.000  H
  C31      1.0000 0.91347  0.25188  0.53458  Biso   1.000  C
  C32      1.0000 0.35983  0.27660  0.67620  Biso   1.000  C
  C33      1.0000 0.49559  0.14964  0.54761  Biso   1.000  C
  H31      1.0000 0.45643  0.19697  0.41463  Biso   1.000  H
  H32      1.0000 0.88141  0.44645  0.35560  Biso   1.000  H
  C34      1.0000 0.84599  0.31413  0.47290  Biso   1.000  C
  N12      1.0000 0.84565  0.15834  0.60921  Biso   1.000  N
  N13      1.0000 0.31987  0.30958  0.77341  Biso   1.000  N
  C35      1.0000 0.46063  0.17857  0.64543  Biso   1.000  C
  H33      1.0000 0.56145  0.08532  0.52571  Biso   1.000  H
  H34      1.0000 0.75007  0.29836  0.47889  Biso   1.000  H
  C36      1.0000 0.81692  0.17242  0.71136  Biso   1.000  C
  C37      1.0000 0.82656  0.04163  0.57822  Biso   1.000  C
  C38      1.0000 0.20578  0.39858  0.80812  Biso   1.000  C
  C39      1.0000 0.39527  0.25469  0.84275  Biso   1.000  C
  H35      1.0000 0.50202  0.13485  0.69022  Biso   1.000  H
  N14      1.0000 0.83496  0.28215  0.73371  Biso   1.000  N
  C40      1.0000 0.76774  0.07429  0.78501  Biso   1.000  C
  H36      1.0000 0.77914  0.98820  0.63702  Biso   1.000  H
  H37      1.0000 0.76724  0.05284  0.53481  Biso   1.000  H
  H38      1.0000 0.92089  0.00691  0.54223  Biso   1.000  H
  N15      1.0000 0.07041  0.36872  0.81562  Biso   1.000  N
  C41      1.0000 0.23770  0.50558  0.83623  Biso   1.000  C
  H39      1.0000 0.46948  0.19729  0.80910  Biso   1.000  H
  H40      1.0000 0.44025  0.31688  0.86351  Biso   1.000  H
  H41      1.0000 0.32569  0.21404  0.90117  Biso   1.000  H
  C42      1.0000 0.80437  0.29808  0.83214  Biso   1.000  C
  H42      1.0000 0.75947  0.99782  0.76667  Biso   1.000  H
  C43      1.0000 0.73212  0.09510  0.88510  Biso   1.000  C
  C44      1.0000 0.96061  0.44920  0.84972  Biso   1.000  C
  C45      1.0000 0.12113  0.58681  0.87412  Biso   1.000  C
  H43      1.0000 0.33324  0.52271  0.83017  Biso   1.000  H
  N16      1.0000 0.82332  0.41718  0.85320  Biso   1.000  N
  C46      1.0000 0.75117  0.20817  0.90996  Biso   1.000  C
  H44      1.0000 0.69535  0.03308  0.93595  Biso   1.000  H
  C47      1.0000 0.98189  0.56153  0.88033  Biso   1.000  C
  H45      1.0000 0.13824  0.65906  0.89541  Biso   1.000  H
  C48      1.0000 0.69100  0.48528  0.90655  Biso   1.000  C
  H46      1.0000 0.72869  0.22346  0.97724  Biso   1.000  H
  H47      1.0000 0.90373  0.61634  0.90397  Biso   1.000  H
  H48      1.0000 0.71691  0.56377  0.91655  Biso   1.000  H
  H49      1.0000 0.62607  0.49488  0.86707  Biso   1.000  H
  H50      1.0000 0.64268  0.44223  0.97103  Biso   1.000  H
