data_image0
_cell_length_a       9.183
_cell_length_b       11.184
_cell_length_c       16.038
_cell_angle_alpha    97.71
_cell_angle_beta     92.98
_cell_angle_gamma    91.33

_symmetry_space_group_name_H-M    "P 1"
_symmetry_int_tables_number       1

loop_
  _symmetry_equiv_pos_as_xyz
  'x, y, z'

loop_
  _atom_site_label
  _atom_site_occupancy
  _atom_site_fract_x
  _atom_site_fract_y
  _atom_site_fract_z
  _atom_site_thermal_displace_type
  _atom_site_B_iso_or_equiv
  _atom_site_type_symbol
  C1       1.0000 0.41020  0.24720  0.50698  Biso   1.000  C
  N1       1.0000 0.32586  0.19637  0.56899  Biso   1.000  N
  H1       1.0000 0.41640  0.18815  0.45808  Biso   1.000  H
  H2       1.0000 0.36316  0.31730  0.49123  Biso   1.000  H
  H3       1.0000 0.50665  0.26972  0.53080  Biso   1.000  H
  C2       1.0000 0.26637  0.08495  0.55299  Biso   1.000  C
  C3       1.0000 0.30389  0.27062  0.64688  Biso   1.000  C
  N2       1.0000 0.19173  0.04367  0.61443  Biso   1.000  N
  C4       1.0000 0.27512  0.00774  0.47780  Biso   1.000  C
  C5       1.0000 0.42029  0.28933  0.70688  Biso   1.000  C
  C6       1.0000 0.17045  0.32070  0.66207  Biso   1.000  C
  H4       1.0000 0.18750  0.09102  0.66112  Biso   1.000  H
  C7       1.0000 0.12310  0.93433  0.60863  Biso   1.000  C
  H5       1.0000 0.32555  0.03107  0.43350  Biso   1.000  H
  C8       1.0000 0.20747  0.89674  0.47131  Biso   1.000  C
  H6       1.0000 0.51073  0.25650  0.69623  Biso   1.000  H
  C9       1.0000 0.39622  0.35897  0.78357  Biso   1.000  C
  C10      1.0000 0.14887  0.39056  0.73719  Biso   1.000  C
  H7       1.0000 0.09435  0.30691  0.62098  Biso   1.000  H
  N3       1.0000 0.05193  0.90900  0.67581  Biso   1.000  N
  C11      1.0000 0.13065  0.85672  0.53370  Biso   1.000  C
  H8       1.0000 0.21376  0.84489  0.42121  Biso   1.000  H
  N4       1.0000 0.51092  0.37413  0.84873  Biso   1.000  N
  C12      1.0000 0.26229  0.40986  0.79787  Biso   1.000  C
  H9       1.0000 0.05904  0.42468  0.74708  Biso   1.000  H
  C13      1.0000 0.96232  0.79773  0.67341  Biso   1.000  C
  C14      1.0000 0.05291  0.99501  0.74979  Biso   1.000  C
  H10      1.0000 0.08536  0.78052  0.52633  Biso   1.000  H
  C15      1.0000 0.50260  0.31282  0.91528  Biso   1.000  C
  C16      1.0000 0.62855  0.46373  0.84501  Biso   1.000  C
  H11      1.0000 0.24855  0.45749  0.84879  Biso   1.000  H
  H12      1.0000 0.97145  0.74781  0.62041  Biso   1.000  H
  H13      1.0000 0.99504  0.75487  0.71847  Biso   1.000  H
  H14      1.0000 0.86217  0.81787  0.67953  Biso   1.000  H
  C17      1.0000 0.94563  0.08151  0.75628  Biso   1.000  C
  C18      1.0000 0.15626  0.99022  0.81489  Biso   1.000  C
  N5       1.0000 0.39706  0.22438  0.91030  Biso   1.000  N
  C19      1.0000 0.59371  0.33282  0.98787  Biso   1.000  C
  H15      1.0000 0.69626  0.46379  0.89272  Biso   1.000  H
  H16      1.0000 0.67824  0.44382  0.79403  Biso   1.000  H
  H17      1.0000 0.58806  0.54228  0.84602  Biso   1.000  H
  H18      1.0000 0.87400  0.08226  0.71318  Biso   1.000  H
  C20      1.0000 0.94725  0.16538  0.82711  Biso   1.000  C
  C21      1.0000 0.15612  0.07631  0.88610  Biso   1.000  C
  H19      1.0000 0.22490  0.93020  0.81117  Biso   1.000  H
  H20      1.0000 0.34369  0.21032  0.86417  Biso   1.000  H
  C22      1.0000 0.36950  0.15667  0.97199  Biso   1.000  C
  H21      1.0000 0.67031  0.38971  0.99342  Biso   1.000  H
  C23      1.0000 0.56697  0.26580  0.05127  Biso   1.000  C
  C24      1.0000 0.05315  0.16424  0.89171  Biso   1.000  C
  H22      1.0000 0.87647  0.22371  0.83178  Biso   1.000  H
  N6       1.0000 0.26099  0.07168  0.95479  Biso   1.000  N
  C25      1.0000 0.45684  0.17857  0.04560  Biso   1.000  C
  H23      1.0000 0.62609  0.27987  0.10068  Biso   1.000  H
  H24      1.0000 0.05494  0.22283  0.93872  Biso   1.000  H
  C26      1.0000 0.22188  0.99904  0.01919  Biso   1.000  C
  H25      1.0000 0.44181  0.13544  0.09015  Biso   1.000  H
  H26      1.0000 0.20443  0.91681  0.99411  Biso   1.000  H
  H27      1.0000 0.30011  0.00306  0.06154  Biso   1.000  H
  H28      1.0000 0.13507  0.02925  0.04440  Biso   1.000  H
  C27      1.0000 0.58983  0.75276  0.49299  Biso   1.000  C
  N7       1.0000 0.67407  0.80359  0.43098  Biso   1.000  N
  H29      1.0000 0.58364  0.81180  0.54189  Biso   1.000  H
  H30      1.0000 0.63677  0.68267  0.50881  Biso   1.000  H
  H31      1.0000 0.49339  0.73033  0.46917  Biso   1.000  H
  C28      1.0000 0.69615  0.72943  0.35309  Biso   1.000  C
  C29      1.0000 0.73366  0.91501  0.44699  Biso   1.000  C
  C30      1.0000 0.57975  0.71071  0.29310  Biso   1.000  C
  C31      1.0000 0.82958  0.67926  0.33790  Biso   1.000  C
  N8       1.0000 0.80831  0.95630  0.38561  Biso   1.000  N
  C32      1.0000 0.72492  0.99230  0.52217  Biso   1.000  C
  C33      1.0000 0.60381  0.64099  0.21640  Biso   1.000  C
  H32      1.0000 0.48931  0.74347  0.30381  Biso   1.000  H
  C34      1.0000 0.85117  0.60940  0.26279  Biso   1.000  C
  H33      1.0000 0.90569  0.69314  0.37899  Biso   1.000  H
  H34      1.0000 0.81254  0.90904  0.33891  Biso   1.000  H
  C35      1.0000 0.87684  0.06574  0.39141  Biso   1.000  C
  H35      1.0000 0.67449  0.96889  0.56647  Biso   1.000  H
  C36      1.0000 0.79258  0.10332  0.52872  Biso   1.000  C
  N9       1.0000 0.48913  0.62594  0.15131  Biso   1.000  N
  C37      1.0000 0.73774  0.59010  0.20210  Biso   1.000  C
  H36      1.0000 0.94100  0.57528  0.25289  Biso   1.000  H
  N10      1.0000 0.94811  0.09097  0.32423  Biso   1.000  N
  C38      1.0000 0.86938  0.14333  0.46627  Biso   1.000  C
  H37      1.0000 0.78628  0.15508  0.57882  Biso   1.000  H
  C39      1.0000 0.37150  0.53633  0.15502  Biso   1.000  C
  C40      1.0000 0.49744  0.68723  0.08470  Biso   1.000  C
  H38      1.0000 0.75137  0.54247  0.15118  Biso   1.000  H
  C41      1.0000 0.94713  0.00504  0.25018  Biso   1.000  C
  C42      1.0000 0.03762  0.20233  0.32662  Biso   1.000  C
  H39      1.0000 0.91468  0.21954  0.47371  Biso   1.000  H
  H40      1.0000 0.30379  0.53618  0.10732  Biso   1.000  H
  H41      1.0000 0.32181  0.55624  0.20601  Biso   1.000  H
  H42      1.0000 0.41187  0.45769  0.15402  Biso   1.000  H
  N11      1.0000 0.60286  0.77558  0.08968  Biso   1.000  N
  C43      1.0000 0.40633  0.66723  0.01210  Biso   1.000  C
  C44      1.0000 0.84378  0.00983  0.18508  Biso   1.000  C
  C45      1.0000 0.05441  0.91854  0.24369  Biso   1.000  C
  H43      1.0000 0.02860  0.25225  0.37962  Biso   1.000  H
  H44      1.0000 0.00500  0.24509  0.28150  Biso   1.000  H
  H45      1.0000 0.13787  0.18210  0.32051  Biso   1.000  H
  H46      1.0000 0.65635  0.78973  0.13580  Biso   1.000  H
  C46      1.0000 0.63054  0.84329  0.02798  Biso   1.000  C
  H47      1.0000 0.32973  0.61027  0.00662  Biso   1.000  H
  C47      1.0000 0.43306  0.73425  0.94870  Biso   1.000  C
  C48      1.0000 0.84392  0.92374  0.11387  Biso   1.000  C
  H48      1.0000 0.77503  0.06976  0.18880  Biso   1.000  H
  C49      1.0000 0.05280  0.83459  0.17292  Biso   1.000  C
  H49      1.0000 0.12603  0.91770  0.28680  Biso   1.000  H
  N12      1.0000 0.73904  0.92828  0.04518  Biso   1.000  N
  C50      1.0000 0.54310  0.82149  0.95444  Biso   1.000  C
  H50      1.0000 0.37395  0.72018  0.89930  Biso   1.000  H
  C51      1.0000 0.94678  0.83582  0.10833  Biso   1.000  C
  H51      1.0000 0.12357  0.77634  0.16820  Biso   1.000  H
  C52      1.0000 0.77805  0.00093  0.98084  Biso   1.000  C
  H52      1.0000 0.55823  0.86452  0.90982  Biso   1.000  H
  H53      1.0000 0.94510  0.77723  0.06132  Biso   1.000  H
  H54      1.0000 0.69993  0.99699  0.93843  Biso   1.000  H
  H55      1.0000 0.86497  0.97072  0.95564  Biso   1.000  H
  H56      1.0000 0.79561  0.08317  0.00592  Biso   1.000  H
