data_image0
_cell_length_a       10.337
_cell_length_b       13.229
_cell_length_c       13.339
_cell_angle_alpha    85.4
_cell_angle_beta     79.62
_cell_angle_gamma    81.55

_symmetry_space_group_name_H-M    "P 1"
_symmetry_int_tables_number       1

loop_
  _symmetry_equiv_pos_as_xyz
  'x, y, z'

loop_
  _atom_site_label
  _atom_site_occupancy
  _atom_site_fract_x
  _atom_site_fract_y
  _atom_site_fract_z
  _atom_site_thermal_displace_type
  _atom_site_B_iso_or_equiv
  _atom_site_type_symbol
  C1       1.0000 0.57007  0.56975  0.63020  Biso   1.000  C
  C2       1.0000 0.45058  0.54503  0.68607  Biso   1.000  C
  C3       1.0000 0.68653  0.50145  0.62852  Biso   1.000  C
  O1       1.0000 0.57298  0.66528  0.57913  Biso   1.000  O
  S1       1.0000 0.29389  0.61408  0.67294  Biso   1.000  S
  C4       1.0000 0.45085  0.45223  0.74454  Biso   1.000  C
  C5       1.0000 0.68268  0.40867  0.68516  Biso   1.000  C
  S2       1.0000 0.83710  0.51885  0.54478  Biso   1.000  S
  C6       1.0000 0.56660  0.66909  0.47448  Biso   1.000  C
  C7       1.0000 0.30671  0.74564  0.67905  Biso   1.000  C
  H1       1.0000 0.37266  0.43615  0.78515  Biso   1.000  H
  C8       1.0000 0.56563  0.38488  0.74225  Biso   1.000  C
  H2       1.0000 0.75975  0.36248  0.68439  Biso   1.000  H
  C9       1.0000 0.86915  0.64443  0.55959  Biso   1.000  C
  H3       1.0000 0.63335  0.61745  0.44097  Biso   1.000  H
  H4       1.0000 0.48006  0.65500  0.46532  Biso   1.000  H
  C10      1.0000 0.59003  0.77364  0.42731  Biso   1.000  C
  C11      1.0000 0.33811  0.78335  0.76401  Biso   1.000  C
  C12      1.0000 0.27095  0.81273  0.60050  Biso   1.000  C
  H5       1.0000 0.56408  0.32250  0.77981  Biso   1.000  H
  C13      1.0000 0.87517  0.68071  0.65371  Biso   1.000  C
  C14      1.0000 0.90273  0.70521  0.47082  Biso   1.000  C
  O2       1.0000 0.59745  0.84313  0.49188  Biso   1.000  O
  O3       1.0000 0.60150  0.79399  0.33861  Biso   1.000  O
  C15      1.0000 0.34308  0.88716  0.76767  Biso   1.000  C
  O4       1.0000 0.36343  0.71586  0.84576  Biso   1.000  O
  C16      1.0000 0.27099  0.91633  0.60516  Biso   1.000  C
  H6       1.0000 0.24696  0.78773  0.54417  Biso   1.000  H
  C17      1.0000 0.90448  0.77908  0.65905  Biso   1.000  C
  O5       1.0000 0.85184  0.62045  0.74286  Biso   1.000  O
  C18      1.0000 0.93817  0.79985  0.47570  Biso   1.000  C
  H7       1.0000 0.90110  0.68081  0.40769  Biso   1.000  H
  H8       1.0000 0.59362  0.81624  0.54967  Biso   1.000  H
  C19      1.0000 0.30826  0.95278  0.68668  Biso   1.000  C
  S3       1.0000 0.37234  0.94297  0.87629  Biso   1.000  S
  C20      1.0000 0.24908  0.71535  0.92400  Biso   1.000  C
  H9       1.0000 0.24549  0.96134  0.55280  Biso   1.000  H
  C21      1.0000 0.93574  0.83818  0.56875  Biso   1.000  C
  S4       1.0000 0.92147  0.82877  0.77462  Biso   1.000  S
  C22      1.0000 0.95303  0.53711  0.75454  Biso   1.000  C
  H10      1.0000 0.96388  0.83847  0.41586  Biso   1.000  H
  H11      1.0000 0.31076  0.02261  0.68851  Biso   1.000  H
  C23      1.0000 0.52880  0.88141  0.90056  Biso   1.000  C
  H12      1.0000 0.23246  0.77993  0.95697  Biso   1.000  H
  H13      1.0000 0.17259  0.70965  0.89308  Biso   1.000  H
  C24      1.0000 0.26471  0.62936  0.00285  Biso   1.000  C
  H14      1.0000 0.95510  0.90427  0.57180  Biso   1.000  H
  C25      1.0000 0.76517  0.83025  0.85690  Biso   1.000  C
  H15      1.0000 0.92570  0.47447  0.73760  Biso   1.000  H
  C26      1.0000 0.97927  0.52633  0.86095  Biso   1.000  C
  H16      1.0000 0.03377  0.54856  0.70798  Biso   1.000  H
  C27      1.0000 0.64572  0.87460  0.82759  Biso   1.000  C
  C28      1.0000 0.53679  0.84752  0.00056  Biso   1.000  C
  O6       1.0000 0.35361  0.55377  0.97415  Biso   1.000  O
  O7       1.0000 0.19193  0.63288  0.08422  Biso   1.000  O
  C29      1.0000 0.76847  0.79612  0.95728  Biso   1.000  C
  O8       1.0000 0.91405  0.57625  0.92965  Biso   1.000  O
  O9       1.0000 0.07789  0.45427  0.87202  Biso   1.000  O
  O10      1.0000 0.64610  0.90498  0.72607  Biso   1.000  O
  C30      1.0000 0.65411  0.80679  0.02941  Biso   1.000  C
  H17      1.0000 0.45980  0.85254  0.04926  Biso   1.000  H
  H18      1.0000 0.35539  0.50947  0.02063  Biso   1.000  H
  H19      1.0000 0.84817  0.76594  0.97636  Biso   1.000  H
  H20      1.0000 0.08402  0.44511  0.93255  Biso   1.000  H
  C31      1.0000 0.61419  0.01189  0.69989  Biso   1.000  C
  H21      1.0000 0.65720  0.78614  0.09735  Biso   1.000  H
  H22      1.0000 0.59194  0.01994  0.63180  Biso   1.000  H
  H23      1.0000 0.53636  0.03939  0.74691  Biso   1.000  H
  C32      1.0000 0.72408  0.07194  0.70294  Biso   1.000  C
  O11      1.0000 0.73004  0.09817  0.79087  Biso   1.000  O
  O12      1.0000 0.80271  0.09100  0.63058  Biso   1.000  O
  H24      1.0000 0.79488  0.12799  0.78790  Biso   1.000  H
  C33      1.0000 0.42992  0.43018  0.36975  Biso   1.000  C
  C34      1.0000 0.31345  0.49848  0.37151  Biso   1.000  C
  C35      1.0000 0.54951  0.45490  0.31388  Biso   1.000  C
  O13      1.0000 0.42711  0.33466  0.42082  Biso   1.000  O
  S5       1.0000 0.16291  0.48101  0.45517  Biso   1.000  S
  C36      1.0000 0.31741  0.59127  0.31479  Biso   1.000  C
  C37      1.0000 0.54914  0.54771  0.25541  Biso   1.000  C
  S6       1.0000 0.70620  0.38586  0.32701  Biso   1.000  S
  C38      1.0000 0.43349  0.33085  0.52547  Biso   1.000  C
  C39      1.0000 0.13094  0.35551  0.44036  Biso   1.000  C
  C40      1.0000 0.43436  0.61506  0.25770  Biso   1.000  C
  H25      1.0000 0.24025  0.63746  0.31556  Biso   1.000  H
  H26      1.0000 0.62734  0.56379  0.21480  Biso   1.000  H
  C41      1.0000 0.69328  0.25429  0.32090  Biso   1.000  C
  H27      1.0000 0.36674  0.38249  0.55898  Biso   1.000  H
  H28      1.0000 0.51992  0.34494  0.53470  Biso   1.000  H
  C42      1.0000 0.41006  0.22621  0.57272  Biso   1.000  C
  C43      1.0000 0.12481  0.31922  0.34632  Biso   1.000  C
  C44      1.0000 0.09724  0.29473  0.52921  Biso   1.000  C
  H29      1.0000 0.43601  0.67736  0.22022  Biso   1.000  H
  C45      1.0000 0.66187  0.21658  0.23602  Biso   1.000  C
  C46      1.0000 0.72902  0.18720  0.39952  Biso   1.000  C
  O14      1.0000 0.40254  0.15681  0.50807  Biso   1.000  O
  O15      1.0000 0.39857  0.20594  0.66142  Biso   1.000  O
  C47      1.0000 0.09552  0.22086  0.34090  Biso   1.000  C
  O16      1.0000 0.14815  0.37949  0.25709  Biso   1.000  O
  C48      1.0000 0.06183  0.20009  0.52425  Biso   1.000  C
  H30      1.0000 0.09899  0.31913  0.59226  Biso   1.000  H
  C49      1.0000 0.65691  0.11278  0.23228  Biso   1.000  C
  O17      1.0000 0.63666  0.28408  0.15419  Biso   1.000  O
  C50      1.0000 0.72900  0.08360  0.39479  Biso   1.000  C
  H31      1.0000 0.75305  0.21213  0.45578  Biso   1.000  H
  H32      1.0000 0.40647  0.18370  0.45028  Biso   1.000  H
  C51      1.0000 0.06435  0.16175  0.43120  Biso   1.000  C
  S7       1.0000 0.07862  0.17116  0.22533  Biso   1.000  S
  C52      1.0000 0.04697  0.46282  0.24541  Biso   1.000  C
  H33      1.0000 0.03612  0.16147  0.58409  Biso   1.000  H
  S8       1.0000 0.62775  0.05697  0.12366  Biso   1.000  S
  C53      1.0000 0.69173  0.04716  0.31327  Biso   1.000  C
  C54      1.0000 0.75100  0.28459  0.07603  Biso   1.000  C
  H34      1.0000 0.75450  0.03860  0.44715  Biso   1.000  H
  H35      1.0000 0.04497  0.09566  0.42822  Biso   1.000  H
  C55      1.0000 0.23480  0.16968  0.14312  Biso   1.000  C
  H36      1.0000 0.07428  0.52546  0.26243  Biso   1.000  H
  C56      1.0000 0.02073  0.47360  0.13900  Biso   1.000  C
  H37      1.0000 0.96632  0.45138  0.29197  Biso   1.000  H
  C57      1.0000 0.47119  0.11853  0.09938  Biso   1.000  C
  H38      1.0000 0.68921  0.97733  0.31151  Biso   1.000  H
  H39      1.0000 0.76754  0.22001  0.04297  Biso   1.000  H
  H40      1.0000 0.82750  0.29029  0.10686  Biso   1.000  H
  C58      1.0000 0.73528  0.37057  0.99710  Biso   1.000  C
  C59      1.0000 0.35427  0.12534  0.17236  Biso   1.000  C
  C60      1.0000 0.23162  0.20382  0.04267  Biso   1.000  C
  O18      1.0000 0.08595  0.42368  0.07030  Biso   1.000  O
  O19      1.0000 0.92218  0.54567  0.12801  Biso   1.000  O
  C61      1.0000 0.46321  0.15242  0.99939  Biso   1.000  C
  O20      1.0000 0.64646  0.44617  0.02588  Biso   1.000  O
  O21      1.0000 0.80807  0.36705  0.91573  Biso   1.000  O
  O22      1.0000 0.35397  0.09496  0.27396  Biso   1.000  O
  H41      1.0000 0.15192  0.23399  0.02359  Biso   1.000  H
  C62      1.0000 0.34598  0.19314  0.97054  Biso   1.000  C
  H42      1.0000 0.91607  0.55483  0.06740  Biso   1.000  H
  H43      1.0000 0.54021  0.14732  0.95069  Biso   1.000  H
  H44      1.0000 0.64460  0.49047  0.97931  Biso   1.000  H
  C63      1.0000 0.38581  0.98805  0.30006  Biso   1.000  C
  H45      1.0000 0.34280  0.21379  0.90260  Biso   1.000  H
  H46      1.0000 0.40804  0.98000  0.36823  Biso   1.000  H
  H47      1.0000 0.46361  0.96054  0.25312  Biso   1.000  H
  C64      1.0000 0.27592  0.92800  0.29701  Biso   1.000  C
  O23      1.0000 0.27005  0.90176  0.20907  Biso   1.000  O
  O24      1.0000 0.19738  0.90894  0.36937  Biso   1.000  O
  H48      1.0000 0.20510  0.87194  0.21213  Biso   1.000  H
