data_image0
_cell_length_a       10.08
_cell_length_b       10.19
_cell_length_c       20.368
_cell_angle_alpha    99
_cell_angle_beta     90.3
_cell_angle_gamma    115.45

_symmetry_space_group_name_H-M    "P 1"
_symmetry_int_tables_number       1

loop_
  _symmetry_equiv_pos_as_xyz
  'x, y, z'

loop_
  _atom_site_label
  _atom_site_occupancy
  _atom_site_fract_x
  _atom_site_fract_y
  _atom_site_fract_z
  _atom_site_thermal_displace_type
  _atom_site_B_iso_or_equiv
  _atom_site_type_symbol
  O1       1.0000 0.45400  0.32842  0.46093  Biso   1.000  O
  C1       1.0000 0.35081  0.20235  0.43270  Biso   1.000  C
  H1       1.0000 0.44625  0.33999  0.50128  Biso   1.000  H
  C2       1.0000 0.35836  0.16577  0.35964  Biso   1.000  C
  O2       1.0000 0.25854  0.11600  0.46133  Biso   1.000  O
  O3       1.0000 0.43922  0.29416  0.33066  Biso   1.000  O
  H2       1.0000 0.40475  0.09943  0.35141  Biso   1.000  H
  H3       1.0000 0.25892  0.11461  0.33819  Biso   1.000  H
  C3       1.0000 0.45665  0.25620  0.26438  Biso   1.000  C
  C4       1.0000 0.34744  0.22842  0.21505  Biso   1.000  C
  C5       1.0000 0.58538  0.24557  0.24682  Biso   1.000  C
  S1       1.0000 0.17857  0.23409  0.23381  Biso   1.000  S
  C6       1.0000 0.36502  0.18303  0.14922  Biso   1.000  C
  C7       1.0000 0.59935  0.19873  0.18034  Biso   1.000  C
  S2       1.0000 0.72381  0.27134  0.30777  Biso   1.000  S
  C8       1.0000 0.22659  0.41506  0.27660  Biso   1.000  C
  C9       1.0000 0.48906  0.16593  0.13236  Biso   1.000  C
  H4       1.0000 0.29204  0.16407  0.11611  Biso   1.000  H
  H5       1.0000 0.68438  0.18967  0.16852  Biso   1.000  H
  C10      1.0000 0.78523  0.45461  0.35116  Biso   1.000  C
  C11      1.0000 0.31625  0.54147  0.25121  Biso   1.000  C
  C12      1.0000 0.15586  0.43058  0.33380  Biso   1.000  C
  H6       1.0000 0.49808  0.13205  0.08828  Biso   1.000  H
  C13      1.0000 0.83374  0.57507  0.31829  Biso   1.000  C
  C14      1.0000 0.80331  0.47857  0.42028  Biso   1.000  C
  C15      1.0000 0.33414  0.67962  0.28308  Biso   1.000  C
  O4       1.0000 0.38965  0.52864  0.19530  Biso   1.000  O
  H7       1.0000 0.09734  0.34752  0.35161  Biso   1.000  H
  C16      1.0000 0.17180  0.56680  0.36408  Biso   1.000  C
  C17      1.0000 0.89874  0.71856  0.35470  Biso   1.000  C
  O5       1.0000 0.81696  0.55342  0.24952  Biso   1.000  O
  H8       1.0000 0.76964  0.39868  0.44263  Biso   1.000  H
  C18      1.0000 0.87073  0.61987  0.45579  Biso   1.000  C
  C19      1.0000 0.25957  0.69020  0.33934  Biso   1.000  C
  S3       1.0000 0.43005  0.84364  0.25017  Biso   1.000  S
  C20      1.0000 0.30497  0.50575  0.13536  Biso   1.000  C
  H9       1.0000 0.12236  0.57538  0.40178  Biso   1.000  H
  S4       1.0000 0.97974  0.87604  0.31585  Biso   1.000  S
  C21      1.0000 0.91820  0.73929  0.42363  Biso   1.000  C
  C22      1.0000 0.93868  0.54435  0.21755  Biso   1.000  C
  H10      1.0000 0.88430  0.63492  0.50203  Biso   1.000  H
  H11      1.0000 0.26959  0.78218  0.36039  Biso   1.000  H
  C23      1.0000 0.60192  0.84699  0.22917  Biso   1.000  C
  H12      1.0000 0.27695  0.58581  0.13581  Biso   1.000  H
  H13      1.0000 0.21570  0.41408  0.13132  Biso   1.000  H
  C24      1.0000 0.39398  0.49922  0.07750  Biso   1.000  C
  C25      1.0000 0.84043  0.86141  0.25815  Biso   1.000  C
  H14      1.0000 0.96369  0.83450  0.44821  Biso   1.000  H
  H15      1.0000 0.95361  0.46290  0.22942  Biso   1.000  H
  C26      1.0000 0.90939  0.52145  0.14359  Biso   1.000  C
  H16      1.0000 0.02741  0.63476  0.23231  Biso   1.000  H
  C27      1.0000 0.64032  0.86139  0.16448  Biso   1.000  C
  C28      1.0000 0.70452  0.85159  0.27675  Biso   1.000  C
  O6       1.0000 0.51900  0.51836  0.08199  Biso   1.000  O
  O7       1.0000 0.31589  0.46995  0.02155  Biso   1.000  O
  C29      1.0000 0.87480  0.87498  0.19271  Biso   1.000  C
  O8       1.0000 0.78775  0.51856  0.11995  Biso   1.000  O
  O9       1.0000 0.99470  0.50747  0.10708  Biso   1.000  O
  C30      1.0000 0.77659  0.87726  0.14663  Biso   1.000  C
  H17      1.0000 0.57283  0.86048  0.13281  Biso   1.000  H
  O10      1.0000 0.66693  0.84159  0.34128  Biso   1.000  O
  H18      1.0000 0.36707  0.46978  0.99037  Biso   1.000  H
  H19      1.0000 0.96599  0.88264  0.17999  Biso   1.000  H
  H20      1.0000 0.73969  0.52959  0.15082  Biso   1.000  H
  H21      1.0000 0.80224  0.88939  0.10349  Biso   1.000  H
  C31      1.0000 0.73851  0.97529  0.38856  Biso   1.000  C
  H22      1.0000 0.82008  0.97383  0.41330  Biso   1.000  H
  C32      1.0000 0.63131  0.99048  0.43515  Biso   1.000  C
  H23      1.0000 0.77732  0.05904  0.36552  Biso   1.000  H
  O11      1.0000 0.50937  0.89333  0.43714  Biso   1.000  O
  O12      1.0000 0.68700  0.12000  0.47475  Biso   1.000  O
  H24      1.0000 0.62808  0.12232  0.50193  Biso   1.000  H
  O13      1.0000 0.54617  0.67161  0.53908  Biso   1.000  O
  C33      1.0000 0.64930  0.79780  0.56731  Biso   1.000  C
  H25      1.0000 0.55390  0.66003  0.49869  Biso   1.000  H
  C34      1.0000 0.64185  0.83435  0.64033  Biso   1.000  C
  O14      1.0000 0.74161  0.88402  0.53863  Biso   1.000  O
  O15      1.0000 0.56084  0.70586  0.66930  Biso   1.000  O
  H26      1.0000 0.59547  0.90072  0.64860  Biso   1.000  H
  H27      1.0000 0.74125  0.88542  0.66182  Biso   1.000  H
  C35      1.0000 0.54351  0.74384  0.73563  Biso   1.000  C
  C36      1.0000 0.41483  0.75458  0.75319  Biso   1.000  C
  C37      1.0000 0.65278  0.77172  0.78496  Biso   1.000  C
  S5       1.0000 0.27631  0.72880  0.69224  Biso   1.000  S
  C38      1.0000 0.40086  0.80140  0.81962  Biso   1.000  C
  C39      1.0000 0.63519  0.81711  0.85079  Biso   1.000  C
  S6       1.0000 0.82164  0.76605  0.76621  Biso   1.000  S
  C40      1.0000 0.21484  0.54542  0.64885  Biso   1.000  C
  H28      1.0000 0.31584  0.81047  0.83149  Biso   1.000  H
  C41      1.0000 0.51115  0.83421  0.86765  Biso   1.000  C
  H29      1.0000 0.70817  0.83608  0.88391  Biso   1.000  H
  C42      1.0000 0.77362  0.58506  0.72337  Biso   1.000  C
  C43      1.0000 0.19690  0.52158  0.57973  Biso   1.000  C
  C44      1.0000 0.16636  0.42505  0.68167  Biso   1.000  C
  H30      1.0000 0.50213  0.86808  0.91169  Biso   1.000  H
  C45      1.0000 0.68386  0.45867  0.74880  Biso   1.000  C
  C46      1.0000 0.84426  0.56956  0.66621  Biso   1.000  C
  C47      1.0000 0.12949  0.38028  0.54422  Biso   1.000  C
  H31      1.0000 0.23047  0.60146  0.55739  Biso   1.000  H
  C48      1.0000 0.10147  0.28158  0.64531  Biso   1.000  C
  O16      1.0000 0.18315  0.44672  0.75050  Biso   1.000  O
  C49      1.0000 0.66592  0.32042  0.71693  Biso   1.000  C
  O17      1.0000 0.61056  0.47151  0.80471  Biso   1.000  O
  H32      1.0000 0.90282  0.65252  0.64841  Biso   1.000  H
  C50      1.0000 0.82836  0.43324  0.63594  Biso   1.000  C
  H33      1.0000 0.11586  0.36512  0.49799  Biso   1.000  H
  C51      1.0000 0.08201  0.26085  0.57639  Biso   1.000  C
  S7       1.0000 0.02038  0.12411  0.68416  Biso   1.000  S
  C52      1.0000 0.06154  0.45579  0.78247  Biso   1.000  C
  S8       1.0000 0.57017  0.15651  0.74985  Biso   1.000  S
  C53      1.0000 0.74059  0.30983  0.66067  Biso   1.000  C
  C54      1.0000 0.69525  0.49439  0.86466  Biso   1.000  C
  H34      1.0000 0.87775  0.42475  0.59818  Biso   1.000  H
  H35      1.0000 0.03643  0.16565  0.55180  Biso   1.000  H
  C55      1.0000 0.15973  0.13862  0.74187  Biso   1.000  C
  H36      1.0000 0.04645  0.53714  0.77060  Biso   1.000  H
  C56      1.0000 0.09082  0.47869  0.85643  Biso   1.000  C
  H37      1.0000 0.97280  0.36538  0.76770  Biso   1.000  H
  C57      1.0000 0.39830  0.15315  0.77084  Biso   1.000  C
  H38      1.0000 0.73052  0.21796  0.63963  Biso   1.000  H
  H39      1.0000 0.72322  0.41423  0.86421  Biso   1.000  H
  H40      1.0000 0.78437  0.58595  0.86870  Biso   1.000  H
  C58      1.0000 0.60624  0.50092  0.92251  Biso   1.000  C
  C59      1.0000 0.12542  0.12517  0.80730  Biso   1.000  C
  C60      1.0000 0.29565  0.14845  0.72327  Biso   1.000  C
  O18      1.0000 0.21237  0.48158  0.88007  Biso   1.000  O
  O19      1.0000 0.00536  0.49255  0.89289  Biso   1.000  O
  C61      1.0000 0.35984  0.13865  0.83553  Biso   1.000  C
  O20      1.0000 0.48120  0.48177  0.91797  Biso   1.000  O
  O21      1.0000 0.68417  0.53006  0.97842  Biso   1.000  O
  H41      1.0000 0.03423  0.11751  0.82002  Biso   1.000  H
  C62      1.0000 0.22361  0.12286  0.85334  Biso   1.000  C
  O22      1.0000 0.33324  0.15844  0.65873  Biso   1.000  O
  H42      1.0000 0.26047  0.47044  0.84920  Biso   1.000  H
  H43      1.0000 0.42739  0.13967  0.86720  Biso   1.000  H
  H44      1.0000 0.63299  0.53023  0.00959  Biso   1.000  H
  H45      1.0000 0.19783  0.11064  0.89653  Biso   1.000  H
  C63      1.0000 0.26166  0.02474  0.61145  Biso   1.000  C
  H46      1.0000 0.17999  0.02620  0.58671  Biso   1.000  H
  C64      1.0000 0.36880  0.00966  0.56487  Biso   1.000  C
  H47      1.0000 0.22280  0.94111  0.63449  Biso   1.000  H
  O23      1.0000 0.49070  0.10670  0.56287  Biso   1.000  O
  O24      1.0000 0.31306  0.88003  0.52527  Biso   1.000  O
  H48      1.0000 0.37209  0.87772  0.49809  Biso   1.000  H
