data_image0
_cell_length_a       9.694
_cell_length_b       13.199
_cell_length_c       17.445
_cell_angle_alpha    101.32
_cell_angle_beta     92.89
_cell_angle_gamma    93.07

_symmetry_space_group_name_H-M    "P 1"
_symmetry_int_tables_number       1

loop_
  _symmetry_equiv_pos_as_xyz
  'x, y, z'

loop_
  _atom_site_label
  _atom_site_occupancy
  _atom_site_fract_x
  _atom_site_fract_y
  _atom_site_fract_z
  _atom_site_thermal_displace_type
  _atom_site_B_iso_or_equiv
  _atom_site_type_symbol
  C1       1.0000 0.80577  0.52456  0.53583  Biso   1.000  C
  C2       1.0000 0.81364  0.46979  0.46308  Biso   1.000  C
  C3       1.0000 0.79340  0.63169  0.54878  Biso   1.000  C
  H1       1.0000 0.80849  0.49100  0.57801  Biso   1.000  H
  C4       1.0000 0.81351  0.52005  0.40310  Biso   1.000  C
  H2       1.0000 0.81918  0.39840  0.45418  Biso   1.000  H
  C5       1.0000 0.78795  0.68131  0.48751  Biso   1.000  C
  H3       1.0000 0.78878  0.66915  0.59962  Biso   1.000  H
  H4       1.0000 0.82378  0.48284  0.35291  Biso   1.000  H
  C6       1.0000 0.79858  0.62591  0.41382  Biso   1.000  C
  C7       1.0000 0.77074  0.79246  0.49840  Biso   1.000  C
  H5       1.0000 0.79574  0.65851  0.37112  Biso   1.000  H
  O1       1.0000 0.76201  0.83926  0.57373  Biso   1.000  O
  O2       1.0000 0.76091  0.84019  0.44493  Biso   1.000  O
  C8       1.0000 0.73861  0.94585  0.58720  Biso   1.000  C
  C9       1.0000 0.60589  0.97486  0.59277  Biso   1.000  C
  C10      1.0000 0.85226  0.01653  0.59599  Biso   1.000  C
  C11      1.0000 0.48575  0.89432  0.58861  Biso   1.000  C
  C12      1.0000 0.58599  0.08000  0.60161  Biso   1.000  C
  C13      1.0000 0.99680  0.98234  0.59640  Biso   1.000  C
  C14      1.0000 0.82756  0.11974  0.60472  Biso   1.000  C
  H6       1.0000 0.39996  0.92900  0.58949  Biso   1.000  H
  H7       1.0000 0.48493  0.84592  0.53888  Biso   1.000  H
  C15      1.0000 0.48997  0.83416  0.65392  Biso   1.000  C
  H8       1.0000 0.49703  0.10301  0.60431  Biso   1.000  H
  C16      1.0000 0.69657  0.14902  0.60641  Biso   1.000  C
  C17      1.0000 0.03688  0.92863  0.66288  Biso   1.000  C
  H9       1.0000 0.00820  0.93549  0.54708  Biso   1.000  H
  H10      1.0000 0.06025  0.04244  0.59933  Biso   1.000  H
  H11      1.0000 0.90123  0.16923  0.60940  Biso   1.000  H
  C18      1.0000 0.50118  0.88290  0.73258  Biso   1.000  C
  C19      1.0000 0.48186  0.72745  0.63769  Biso   1.000  C
  Br1      1.0000 0.66340  0.29115  0.61426  Biso   1.000  Br
  C20      1.0000 0.02165  0.97326  0.74119  Biso   1.000  C
  C21      1.0000 0.09315  0.83290  0.64829  Biso   1.000  C
  O3       1.0000 0.51375  0.98927  0.75039  Biso   1.000  O
  C22      1.0000 0.50684  0.82866  0.79303  Biso   1.000  C
  C23      1.0000 0.48453  0.67043  0.69592  Biso   1.000  C
  H12      1.0000 0.47450  0.69272  0.58568  Biso   1.000  H
  O4       1.0000 0.96623  0.06953  0.75783  Biso   1.000  O
  C24      1.0000 0.05456  0.92437  0.80322  Biso   1.000  C
  H13      1.0000 0.10619  0.80122  0.59693  Biso   1.000  H
  C25      1.0000 0.13038  0.78376  0.70822  Biso   1.000  C
  C26      1.0000 0.38749  0.03865  0.76070  Biso   1.000  C
  C27      1.0000 0.49798  0.72174  0.77341  Biso   1.000  C
  C28      1.0000 0.51934  0.88314  0.87790  Biso   1.000  C
  H14      1.0000 0.47742  0.59852  0.68332  Biso   1.000  H
  C29      1.0000 0.06373  0.15675  0.77323  Biso   1.000  C
  C30      1.0000 0.03255  0.97361  0.88722  Biso   1.000  C
  C31      1.0000 0.11029  0.82860  0.78501  Biso   1.000  C
  H15      1.0000 0.16917  0.72000  0.69691  Biso   1.000  H
  H16      1.0000 0.40642  0.11235  0.77259  Biso   1.000  H
  H17      1.0000 0.34170  0.01733  0.80299  Biso   1.000  H
  H18      1.0000 0.32888  0.01950  0.71343  Biso   1.000  H
  H19      1.0000 0.50107  0.68363  0.81300  Biso   1.000  H
  H20      1.0000 0.52696  0.83145  0.91030  Biso   1.000  H
  H21      1.0000 0.43496  0.91768  0.89003  Biso   1.000  H
  C32      1.0000 0.64142  0.96241  0.89999  Biso   1.000  C
  H22      1.0000 0.01550  0.21912  0.78389  Biso   1.000  H
  H23      1.0000 0.11712  0.15681  0.72831  Biso   1.000  H
  H24      1.0000 0.12433  0.15300  0.81769  Biso   1.000  H
  C33      1.0000 0.88823  0.00630  0.90297  Biso   1.000  C
  H25      1.0000 0.05563  0.92503  0.92019  Biso   1.000  H
  H26      1.0000 0.09654  0.03399  0.90268  Biso   1.000  H
  H27      1.0000 0.13440  0.79413  0.82490  Biso   1.000  H
  C34      1.0000 0.77531  0.93502  0.88903  Biso   1.000  C
  C35      1.0000 0.62199  0.06602  0.93121  Biso   1.000  C
  C36      1.0000 0.86787  0.10899  0.93361  Biso   1.000  C
  O5       1.0000 0.79808  0.83063  0.86004  Biso   1.000  O
  C37      1.0000 0.73583  0.13502  0.94802  Biso   1.000  C
  H28      1.0000 0.53365  0.08794  0.94040  Biso   1.000  H
  H29      1.0000 0.94165  0.15863  0.94403  Biso   1.000  H
  C38      1.0000 0.81330  0.77084  0.91322  Biso   1.000  C
  Br2      1.0000 0.70683  0.27466  0.99476  Biso   1.000  Br
  O6       1.0000 0.80626  0.80096  0.98199  Biso   1.000  O
  C39      1.0000 0.84275  0.66331  0.87632  Biso   1.000  C
  C40      1.0000 0.84445  0.63300  0.79883  Biso   1.000  C
  C41      1.0000 0.86701  0.59686  0.92529  Biso   1.000  C
  H30      1.0000 0.82850  0.68042  0.76691  Biso   1.000  H
  C42      1.0000 0.86963  0.53222  0.76509  Biso   1.000  C
  C43      1.0000 0.88973  0.49431  0.89202  Biso   1.000  C
  H31      1.0000 0.86847  0.61895  0.97941  Biso   1.000  H
  H32      1.0000 0.87430  0.51202  0.71120  Biso   1.000  H
  C44      1.0000 0.88763  0.46269  0.81359  Biso   1.000  C
  H33      1.0000 0.90646  0.44743  0.92429  Biso   1.000  H
  H34      1.0000 0.89829  0.39355  0.79221  Biso   1.000  H
  C45      1.0000 0.19450  0.47555  0.46420  Biso   1.000  C
  C46      1.0000 0.20685  0.36832  0.45119  Biso   1.000  C
  H35      1.0000 0.19177  0.50903  0.42202  Biso   1.000  H
  C47      1.0000 0.18661  0.53023  0.53689  Biso   1.000  C
  C48      1.0000 0.21231  0.31872  0.51252  Biso   1.000  C
  H36      1.0000 0.21148  0.33095  0.40041  Biso   1.000  H
  C49      1.0000 0.18675  0.48005  0.59693  Biso   1.000  C
  H37      1.0000 0.18107  0.60162  0.54579  Biso   1.000  H
  C50      1.0000 0.22952  0.20765  0.50163  Biso   1.000  C
  C51      1.0000 0.20168  0.37412  0.58621  Biso   1.000  C
  H38      1.0000 0.17658  0.51719  0.64712  Biso   1.000  H
  O7       1.0000 0.23825  0.16077  0.42630  Biso   1.000  O
  O8       1.0000 0.23945  0.15984  0.55510  Biso   1.000  O
  H39      1.0000 0.20452  0.34152  0.62891  Biso   1.000  H
  C52      1.0000 0.26165  0.05424  0.41277  Biso   1.000  C
  C53      1.0000 0.39437  0.02523  0.40721  Biso   1.000  C
  C54      1.0000 0.14800  0.98350  0.40404  Biso   1.000  C
  C55      1.0000 0.51450  0.10571  0.41142  Biso   1.000  C
  C56      1.0000 0.41426  0.92002  0.39836  Biso   1.000  C
  C57      1.0000 0.00346  0.01769  0.40363  Biso   1.000  C
  C58      1.0000 0.17269  0.88029  0.39531  Biso   1.000  C
  C59      1.0000 0.51029  0.16595  0.34611  Biso   1.000  C
  H40      1.0000 0.60029  0.07102  0.41049  Biso   1.000  H
  H41      1.0000 0.51532  0.15409  0.46109  Biso   1.000  H
  H42      1.0000 0.50323  0.89702  0.39572  Biso   1.000  H
  C60      1.0000 0.30368  0.85101  0.39362  Biso   1.000  C
  C61      1.0000 0.96337  0.07138  0.33709  Biso   1.000  C
  H43      1.0000 0.94001  0.95759  0.40070  Biso   1.000  H
  H44      1.0000 0.99216  0.06452  0.45289  Biso   1.000  H
  H45      1.0000 0.09903  0.83080  0.39063  Biso   1.000  H
  C62      1.0000 0.49907  0.11711  0.26739  Biso   1.000  C
  C63      1.0000 0.51840  0.27264  0.36228  Biso   1.000  C
  Br3      1.0000 0.33685  0.70887  0.38571  Biso   1.000  Br
  C64      1.0000 0.97860  0.02683  0.25878  Biso   1.000  C
  C65      1.0000 0.90710  0.16711  0.35168  Biso   1.000  C
  C66      1.0000 0.49342  0.17144  0.20700  Biso   1.000  C
  O9       1.0000 0.48660  0.01075  0.24958  Biso   1.000  O
  C67      1.0000 0.51573  0.32960  0.30412  Biso   1.000  C
  H46      1.0000 0.52585  0.30730  0.41429  Biso   1.000  H
  C68      1.0000 0.94570  0.07573  0.19681  Biso   1.000  C
  O10      1.0000 0.03403  0.93048  0.24214  Biso   1.000  O
  C69      1.0000 0.86988  0.21635  0.29181  Biso   1.000  C
  H47      1.0000 0.89407  0.19881  0.40310  Biso   1.000  H
  C70      1.0000 0.48092  0.11689  0.12213  Biso   1.000  C
  C71      1.0000 0.50227  0.27829  0.22662  Biso   1.000  C
  C72      1.0000 0.61277  0.96144  0.23927  Biso   1.000  C
  H48      1.0000 0.52284  0.40151  0.31671  Biso   1.000  H
  C73      1.0000 0.96780  0.02642  0.11281  Biso   1.000  C
  C74      1.0000 0.88996  0.17143  0.21502  Biso   1.000  C
  C75      1.0000 0.93653  0.84328  0.22680  Biso   1.000  C
  H49      1.0000 0.83109  0.28003  0.30312  Biso   1.000  H
  C76      1.0000 0.35883  0.03760  0.09999  Biso   1.000  C
  H50      1.0000 0.47339  0.16857  0.08968  Biso   1.000  H
  H51      1.0000 0.56530  0.08243  0.11000  Biso   1.000  H
  H52      1.0000 0.49919  0.31640  0.18703  Biso   1.000  H
  H53      1.0000 0.59384  0.88774  0.22738  Biso   1.000  H
  H54      1.0000 0.65855  0.98268  0.19698  Biso   1.000  H
  H55      1.0000 0.67138  0.98053  0.28660  Biso   1.000  H
  C77      1.0000 0.11202  0.99372  0.09700  Biso   1.000  C
  H56      1.0000 0.90371  0.96603  0.09729  Biso   1.000  H
  H57      1.0000 0.94462  0.07499  0.07978  Biso   1.000  H
  H58      1.0000 0.86585  0.20589  0.17508  Biso   1.000  H
  H59      1.0000 0.98475  0.78089  0.21608  Biso   1.000  H
  H60      1.0000 0.88314  0.84322  0.27172  Biso   1.000  H
  H61      1.0000 0.87592  0.84702  0.18228  Biso   1.000  H
  C78      1.0000 0.22494  0.06500  0.11094  Biso   1.000  C
  C79      1.0000 0.37837  0.93401  0.06882  Biso   1.000  C
  C80      1.0000 0.13238  0.89103  0.06636  Biso   1.000  C
  O11      1.0000 0.20217  0.16940  0.13999  Biso   1.000  O
  C81      1.0000 0.26442  0.86501  0.05201  Biso   1.000  C
  H62      1.0000 0.46661  0.91209  0.05963  Biso   1.000  H
  H63      1.0000 0.05861  0.84140  0.05600  Biso   1.000  H
  C82      1.0000 0.18696  0.22919  0.08681  Biso   1.000  C
  Br4      1.0000 0.29342  0.72535  0.00521  Biso   1.000  Br
  O12      1.0000 0.19399  0.19907  0.01804  Biso   1.000  O
  C83      1.0000 0.15761  0.33672  0.12371  Biso   1.000  C
  C84      1.0000 0.15591  0.36703  0.20120  Biso   1.000  C
  C85      1.0000 0.13325  0.40323  0.07468  Biso   1.000  C
  H64      1.0000 0.17175  0.31961  0.23312  Biso   1.000  H
  C86      1.0000 0.13073  0.46779  0.23488  Biso   1.000  C
  C87      1.0000 0.11053  0.50572  0.10801  Biso   1.000  C
  H65      1.0000 0.13189  0.38108  0.02062  Biso   1.000  H
  H66      1.0000 0.12596  0.48801  0.28883  Biso   1.000  H
  C88      1.0000 0.11273  0.53732  0.18638  Biso   1.000  C
  H67      1.0000 0.09379  0.55258  0.07568  Biso   1.000  H
  H68      1.0000 0.10197  0.60648  0.20782  Biso   1.000  H
