data_image0
_cell_length_a       18.417
_cell_length_b       20.223
_cell_length_c       21.134
_cell_angle_alpha    101.47
_cell_angle_beta     109.67
_cell_angle_gamma    114.63

_symmetry_space_group_name_H-M    "P 1"
_symmetry_int_tables_number       1

loop_
  _symmetry_equiv_pos_as_xyz
  'x, y, z'

loop_
  _atom_site_label
  _atom_site_occupancy
  _atom_site_fract_x
  _atom_site_fract_y
  _atom_site_fract_z
  _atom_site_thermal_displace_type
  _atom_site_B_iso_or_equiv
  _atom_site_type_symbol
  C1       1.0000 0.46770  0.12979  0.65925  Biso   1.000  C
  C2       1.0000 0.38098  0.09201  0.65017  Biso   1.000  C
  H1       1.0000 0.47752  0.11782  0.61815  Biso   1.000  H
  C3       1.0000 0.54357  0.18671  0.72892  Biso   1.000  C
  C4       1.0000 0.30778  0.03261  0.57853  Biso   1.000  C
  C5       1.0000 0.36677  0.11211  0.71086  Biso   1.000  C
  C6       1.0000 0.52743  0.20308  0.78765  Biso   1.000  C
  H2       1.0000 0.60328  0.21241  0.73456  Biso   1.000  H
  C7       1.0000 0.25225  0.98611  0.52008  Biso   1.000  C
  C8       1.0000 0.44013  0.16797  0.77922  Biso   1.000  C
  H3       1.0000 0.30717  0.08761  0.70523  Biso   1.000  H
  C9       1.0000 0.59926  0.26090  0.86574  Biso   1.000  C
  C10      1.0000 0.18587  0.92623  0.44757  Biso   1.000  C
  C11      1.0000 0.43418  0.19529  0.84785  Biso   1.000  C
  C12      1.0000 0.58403  0.21398  0.91325  Biso   1.000  C
  C13      1.0000 0.57055  0.32197  0.88523  Biso   1.000  C
  H4       1.0000 0.66234  0.28610  0.87225  Biso   1.000  H
  C14      1.0000 0.20436  0.93410  0.38955  Biso   1.000  C
  C15      1.0000 0.10577  0.86194  0.43388  Biso   1.000  C
  C16      1.0000 0.49525  0.17947  0.90394  Biso   1.000  C
  H5       1.0000 0.37073  0.16999  0.84062  Biso   1.000  H
  C17      1.0000 0.48203  0.28475  0.87291  Biso   1.000  C
  C18      1.0000 0.64642  0.20373  0.96152  Biso   1.000  C
  C19      1.0000 0.62273  0.40289  0.90673  Biso   1.000  C
  H6       1.0000 0.25943  0.97770  0.39837  Biso   1.000  H
  C20      1.0000 0.14240  0.87853  0.31999  Biso   1.000  C
  C21      1.0000 0.04316  0.80522  0.36416  Biso   1.000  C
  H7       1.0000 0.09357  0.85683  0.47345  Biso   1.000  H
  C22      1.0000 0.47060  0.13827  0.94461  Biso   1.000  C
  C23      1.0000 0.44345  0.32876  0.88254  Biso   1.000  C
  H8       1.0000 0.70573  0.22575  0.96655  Biso   1.000  H
  C24      1.0000 0.62342  0.16176  0.00316  Biso   1.000  C
  C25      1.0000 0.58425  0.44768  0.91554  Biso   1.000  C
  H9       1.0000 0.68362  0.42713  0.91533  Biso   1.000  H
  H10      1.0000 0.15429  0.88534  0.28070  Biso   1.000  H
  C26      1.0000 0.06337  0.81341  0.30527  Biso   1.000  C
  C27      1.0000 0.96102  0.73984  0.34999  Biso   1.000  C
  C28      1.0000 0.53751  0.13045  0.99523  Biso   1.000  C
  H11      1.0000 0.41105  0.11568  0.93935  Biso   1.000  H
  H12      1.0000 0.38344  0.30418  0.87636  Biso   1.000  H
  C29      1.0000 0.49534  0.41245  0.90214  Biso   1.000  C
  H13      1.0000 0.66648  0.15478  0.03660  Biso   1.000  H
  H14      1.0000 0.61960  0.50355  0.93103  Biso   1.000  H
  H15      1.0000 0.02279  0.77434  0.25678  Biso   1.000  H
  C30      1.0000 0.89356  0.69060  0.34375  Biso   1.000  C
  C31      1.0000 0.51150  0.09048  0.04131  Biso   1.000  C
  C32      1.0000 0.45280  0.45754  0.90263  Biso   1.000  C
  C33      1.0000 0.80869  0.63146  0.33636  Biso   1.000  C
  C34      1.0000 0.48958  0.05939  0.08170  Biso   1.000  C
  C35      1.0000 0.41469  0.49373  0.89913  Biso   1.000  C
  C36      1.0000 0.73889  0.58642  0.33357  Biso   1.000  C
  C37      1.0000 0.46344  0.02603  0.12707  Biso   1.000  C
  C38      1.0000 0.36594  0.53409  0.89125  Biso   1.000  C
  C39      1.0000 0.65783  0.53563  0.33160  Biso   1.000  C
  C40      1.0000 0.51925  0.01018  0.17649  Biso   1.000  C
  C41      1.0000 0.38053  0.00695  0.12368  Biso   1.000  C
  C42      1.0000 0.41030  0.61584  0.92485  Biso   1.000  C
  C43      1.0000 0.27199  0.49157  0.84741  Biso   1.000  C
  C44      1.0000 0.59988  0.45422  0.28015  Biso   1.000  C
  C45      1.0000 0.62960  0.56261  0.37965  Biso   1.000  C
  C46      1.0000 0.49246  0.97624  0.22087  Biso   1.000  C
  H16      1.0000 0.57645  0.02274  0.17939  Biso   1.000  H
  C47      1.0000 0.35240  0.97213  0.16817  Biso   1.000  C
  H17      1.0000 0.34194  0.01776  0.09040  Biso   1.000  H
  C48      1.0000 0.36360  0.65515  0.91565  Biso   1.000  C
  H18      1.0000 0.47409  0.64568  0.95484  Biso   1.000  H
  C49      1.0000 0.22335  0.52837  0.83745  Biso   1.000  C
  H19      1.0000 0.24082  0.43554  0.82382  Biso   1.000  H
  H20      1.0000 0.61723  0.43375  0.24726  Biso   1.000  H
  C50      1.0000 0.52000  0.40605  0.27857  Biso   1.000  C
  C51      1.0000 0.54926  0.51341  0.37795  Biso   1.000  C
  H21      1.0000 0.66668  0.61615  0.41418  Biso   1.000  H
  H22      1.0000 0.53123  0.96570  0.25415  Biso   1.000  H
  C52      1.0000 0.40888  0.95711  0.21775  Biso   1.000  C
  C53      1.0000 0.26448  0.95445  0.16489  Biso   1.000  C
  C54      1.0000 0.27033  0.61158  0.87242  Biso   1.000  C
  H23      1.0000 0.39531  0.71124  0.93875  Biso   1.000  H
  C55      1.0000 0.12682  0.48248  0.79033  Biso   1.000  C
  H24      1.0000 0.48241  0.35236  0.24458  Biso   1.000  H
  C56      1.0000 0.49331  0.43486  0.32645  Biso   1.000  C
  C57      1.0000 0.52276  0.54532  0.42786  Biso   1.000  C
  H25      1.0000 0.39094  0.93420  0.24906  Biso   1.000  H
  C58      1.0000 0.19419  0.93901  0.16007  Biso   1.000  C
  H26      1.0000 0.23792  0.63808  0.86634  Biso   1.000  H
  C59      1.0000 0.04677  0.44149  0.75284  Biso   1.000  C
  H27      1.0000 0.43712  0.40127  0.32410  Biso   1.000  H
  C60      1.0000 0.49916  0.57210  0.46634  Biso   1.000  C
  C61      1.0000 0.11086  0.92101  0.15389  Biso   1.000  C
  C62      1.0000 0.95587  0.39528  0.71196  Biso   1.000  C
  C63      1.0000 0.47549  0.61043  0.51258  Biso   1.000  C
  C64      1.0000 0.03707  0.90313  0.14568  Biso   1.000  C
  C65      1.0000 0.87485  0.35217  0.67573  Biso   1.000  C
  C66      1.0000 0.54029  0.68742  0.56944  Biso   1.000  C
  C67      1.0000 0.38678  0.57403  0.50317  Biso   1.000  C
  C68      1.0000 0.94640  0.88154  0.13489  Biso   1.000  C
  C69      1.0000 0.77627  0.30102  0.63435  Biso   1.000  C
  C70      1.0000 0.51395  0.72603  0.60847  Biso   1.000  C
  H28      1.0000 0.60208  0.71183  0.58017  Biso   1.000  H
  H29      1.0000 0.34391  0.52113  0.46836  Biso   1.000  H
  C71      1.0000 0.35948  0.61343  0.54367  Biso   1.000  C
  C72      1.0000 0.92220  0.87394  0.18820  Biso   1.000  C
  C73      1.0000 0.88462  0.86944  0.06840  Biso   1.000  C
  C74      1.0000 0.72419  0.32893  0.60266  Biso   1.000  C
  C75      1.0000 0.73713  0.22294  0.62986  Biso   1.000  C
  C76      1.0000 0.57703  0.80989  0.66905  Biso   1.000  C
  C77      1.0000 0.42651  0.69196  0.59703  Biso   1.000  C
  H30      1.0000 0.29877  0.58881  0.53573  Biso   1.000  H
  H31      1.0000 0.96468  0.87960  0.23286  Biso   1.000  H
  C78      1.0000 0.83981  0.85866  0.18010  Biso   1.000  C
  C79      1.0000 0.79683  0.85225  0.05521  Biso   1.000  C
  H32      1.0000 0.90109  0.87254  0.03047  Biso   1.000  H
  C80      1.0000 0.63259  0.27938  0.56704  Biso   1.000  C
  H33      1.0000 0.75118  0.38160  0.60535  Biso   1.000  H
  C81      1.0000 0.64467  0.17440  0.59533  Biso   1.000  C
  H34      1.0000 0.77448  0.20369  0.65055  Biso   1.000  H
  C82      1.0000 0.56291  0.80208  0.73467  Biso   1.000  C
  H35      1.0000 0.64161  0.83437  0.67945  Biso   1.000  H
  C83      1.0000 0.53285  0.85579  0.64212  Biso   1.000  C
  C84      1.0000 0.40820  0.74596  0.64212  Biso   1.000  C
  H36      1.0000 0.82521  0.85545  0.21879  Biso   1.000  H
  C85      1.0000 0.77561  0.84734  0.11109  Biso   1.000  C
  C86      1.0000 0.72986  0.83853  0.98593  Biso   1.000  C
  C87      1.0000 0.58986  0.20110  0.56195  Biso   1.000  C
  H37      1.0000 0.59597  0.29860  0.54476  Biso   1.000  H
  C88      1.0000 0.60461  0.09532  0.59347  Biso   1.000  C
  C89      1.0000 0.47361  0.76879  0.72186  Biso   1.000  C
  C90      1.0000 0.62921  0.82217  0.80155  Biso   1.000  C
  C91      1.0000 0.44311  0.82070  0.62653  Biso   1.000  C
  C92      1.0000 0.57494  0.92361  0.63194  Biso   1.000  C
  H38      1.0000 0.34335  0.72121  0.63134  Biso   1.000  H
  H39      1.0000 0.71728  0.83623  0.10397  Biso   1.000  H
  C93      1.0000 0.67531  0.82685  0.92813  Biso   1.000  C
  H40      1.0000 0.52581  0.16752  0.53655  Biso   1.000  H
  C94      1.0000 0.56871  0.03243  0.59725  Biso   1.000  C
  C95      1.0000 0.44971  0.75616  0.77714  Biso   1.000  C
  C96      1.0000 0.60829  0.80977  0.85863  Biso   1.000  C
  H41      1.0000 0.69013  0.84457  0.81014  Biso   1.000  H
  C97      1.0000 0.39141  0.85370  0.59894  Biso   1.000  C
  C98      1.0000 0.52414  0.95859  0.60546  Biso   1.000  C
  H42      1.0000 0.63654  0.94690  0.64223  Biso   1.000  H
  H43      1.0000 0.38873  0.73345  0.76833  Biso   1.000  H
  C99      1.0000 0.52001  0.77859  0.84555  Biso   1.000  C
  H44      1.0000 0.32958  0.82932  0.58778  Biso   1.000  H
  C100     1.0000 0.43355  0.92218  0.58893  Biso   1.000  C
  H45      1.0000 0.50631  0.77197  0.88413  Biso   1.000  H
  H46      1.0000 0.39976  0.94502  0.57027  Biso   1.000  H
  C101     1.0000 0.53208  0.87005  0.34068  Biso   1.000  C
  C102     1.0000 0.45618  0.81311  0.27096  Biso   1.000  C
  C103     1.0000 0.61880  0.90783  0.34977  Biso   1.000  C
  H47      1.0000 0.52227  0.88202  0.38178  Biso   1.000  H
  C104     1.0000 0.47230  0.79676  0.21229  Biso   1.000  C
  H48      1.0000 0.39650  0.78743  0.26538  Biso   1.000  H
  C105     1.0000 0.63302  0.88773  0.28907  Biso   1.000  C
  C106     1.0000 0.69197  0.96721  0.42135  Biso   1.000  C
  C107     1.0000 0.40053  0.73894  0.13419  Biso   1.000  C
  C108     1.0000 0.55962  0.83184  0.22066  Biso   1.000  C
  H49      1.0000 0.69258  0.91221  0.29466  Biso   1.000  H
  C109     1.0000 0.74754  0.01373  0.47986  Biso   1.000  C
  C110     1.0000 0.42923  0.67788  0.11471  Biso   1.000  C
  H50      1.0000 0.33739  0.71374  0.12768  Biso   1.000  H
  C111     1.0000 0.41576  0.78586  0.08669  Biso   1.000  C
  C112     1.0000 0.56561  0.80455  0.15209  Biso   1.000  C
  C113     1.0000 0.81392  0.07361  0.55237  Biso   1.000  C
  C114     1.0000 0.37705  0.59695  0.09320  Biso   1.000  C
  C115     1.0000 0.51772  0.71507  0.12697  Biso   1.000  C
  C116     1.0000 0.50453  0.82037  0.09599  Biso   1.000  C
  C117     1.0000 0.35337  0.79611  0.03842  Biso   1.000  C
  H51      1.0000 0.62900  0.82985  0.15931  Biso   1.000  H
  C118     1.0000 0.79539  0.06572  0.61033  Biso   1.000  C
  C119     1.0000 0.89401  0.13790  0.56605  Biso   1.000  C
  C120     1.0000 0.41554  0.55216  0.08439  Biso   1.000  C
  H52      1.0000 0.31616  0.57271  0.08461  Biso   1.000  H
  C121     1.0000 0.55634  0.67108  0.11739  Biso   1.000  C
  C122     1.0000 0.52910  0.86154  0.05528  Biso   1.000  C
  H53      1.0000 0.29405  0.77409  0.03338  Biso   1.000  H
  C123     1.0000 0.37628  0.83806  0.99672  Biso   1.000  C
  H54      1.0000 0.74028  0.02209  0.60157  Biso   1.000  H
  C124     1.0000 0.85738  0.12131  0.67994  Biso   1.000  C
  C125     1.0000 0.95662  0.19462  0.63578  Biso   1.000  C
  H55      1.0000 0.90621  0.14302  0.52648  Biso   1.000  H
  C126     1.0000 0.50444  0.58739  0.09780  Biso   1.000  C
  H56      1.0000 0.38019  0.49629  0.06890  Biso   1.000  H
  H57      1.0000 0.61634  0.69566  0.12358  Biso   1.000  H
  C127     1.0000 0.46228  0.86939  0.00471  Biso   1.000  C
  H58      1.0000 0.58874  0.88417  0.06058  Biso   1.000  H
  H59      1.0000 0.33330  0.84506  0.96333  Biso   1.000  H
  H60      1.0000 0.84550  0.11450  0.71924  Biso   1.000  H
  C128     1.0000 0.93639  0.18637  0.69466  Biso   1.000  C
  C129     1.0000 0.03877  0.26000  0.64995  Biso   1.000  C
  C130     1.0000 0.54698  0.54230  0.09731  Biso   1.000  C
  C131     1.0000 0.48829  0.90936  0.95863  Biso   1.000  C
  H61      1.0000 0.97699  0.22550  0.74315  Biso   1.000  H
  C132     1.0000 0.10619  0.30922  0.65613  Biso   1.000  C
  C133     1.0000 0.58507  0.50605  0.10081  Biso   1.000  C
  C134     1.0000 0.51021  0.94045  0.91824  Biso   1.000  C
  C135     1.0000 0.19106  0.36836  0.66352  Biso   1.000  C
  C136     1.0000 0.63385  0.46575  0.10869  Biso   1.000  C
  C137     1.0000 0.53635  0.97381  0.87287  Biso   1.000  C
  C138     1.0000 0.26089  0.41342  0.66637  Biso   1.000  C
  C139     1.0000 0.58948  0.38400  0.07509  Biso   1.000  C
  C140     1.0000 0.72771  0.50825  0.15247  Biso   1.000  C
  C141     1.0000 0.48053  0.98966  0.82345  Biso   1.000  C
  C142     1.0000 0.61920  0.99289  0.87626  Biso   1.000  C
  C143     1.0000 0.34196  0.46421  0.66834  Biso   1.000  C
  C144     1.0000 0.63619  0.34469  0.08428  Biso   1.000  C
  H62      1.0000 0.52564  0.35416  0.04510  Biso   1.000  H
  C145     1.0000 0.77643  0.47148  0.16249  Biso   1.000  C
  H63      1.0000 0.75891  0.56422  0.17606  Biso   1.000  H
  H64      1.0000 0.42333  0.97710  0.82055  Biso   1.000  H
  C146     1.0000 0.50732  0.02360  0.77906  Biso   1.000  C
  H65      1.0000 0.65779  0.98208  0.90953  Biso   1.000  H
  C147     1.0000 0.64738  0.02771  0.83177  Biso   1.000  C
  C148     1.0000 0.39987  0.54560  0.71973  Biso   1.000  C
  C149     1.0000 0.37015  0.43721  0.62023  Biso   1.000  C
  C150     1.0000 0.72946  0.38826  0.12752  Biso   1.000  C
  H66      1.0000 0.60448  0.28860  0.06119  Biso   1.000  H
  C151     1.0000 0.87297  0.51736  0.20961  Biso   1.000  C
  H67      1.0000 0.46847  0.03411  0.74573  Biso   1.000  H
  C152     1.0000 0.59087  0.04271  0.78213  Biso   1.000  C
  C153     1.0000 0.73525  0.04539  0.83505  Biso   1.000  C
  H68      1.0000 0.38252  0.56607  0.75262  Biso   1.000  H
  C154     1.0000 0.47973  0.59379  0.72137  Biso   1.000  C
  C155     1.0000 0.45044  0.48641  0.62193  Biso   1.000  C
  H69      1.0000 0.33305  0.38369  0.58575  Biso   1.000  H
  H70      1.0000 0.76187  0.36176  0.13359  Biso   1.000  H
  C156     1.0000 0.95301  0.55835  0.24710  Biso   1.000  C
  H71      1.0000 0.60885  0.06564  0.75088  Biso   1.000  H
  C157     1.0000 0.80557  0.06078  0.83987  Biso   1.000  C
  H72      1.0000 0.51732  0.64748  0.75536  Biso   1.000  H
  C158     1.0000 0.50644  0.56496  0.67343  Biso   1.000  C
  C159     1.0000 0.47697  0.45452  0.57207  Biso   1.000  C
  C160     1.0000 0.04392  0.60456  0.28798  Biso   1.000  C
  C161     1.0000 0.88890  0.07877  0.84605  Biso   1.000  C
  H73      1.0000 0.56261  0.59858  0.67584  Biso   1.000  H
  C162     1.0000 0.50059  0.42772  0.53354  Biso   1.000  C
  C163     1.0000 0.12491  0.64765  0.32415  Biso   1.000  C
  C164     1.0000 0.96266  0.09671  0.85426  Biso   1.000  C
  C165     1.0000 0.52430  0.38941  0.48735  Biso   1.000  C
  C166     1.0000 0.22351  0.69882  0.36558  Biso   1.000  C
  C167     1.0000 0.05338  0.11831  0.86504  Biso   1.000  C
  C168     1.0000 0.45950  0.31242  0.43049  Biso   1.000  C
  C169     1.0000 0.61301  0.42581  0.49677  Biso   1.000  C
  C170     1.0000 0.27559  0.67091  0.39727  Biso   1.000  C
  C171     1.0000 0.26266  0.77690  0.37007  Biso   1.000  C
  C172     1.0000 0.07759  0.12591  0.81174  Biso   1.000  C
  C173     1.0000 0.11517  0.13040  0.93154  Biso   1.000  C
  C174     1.0000 0.48583  0.27381  0.39147  Biso   1.000  C
  H74      1.0000 0.39771  0.28802  0.41976  Biso   1.000  H
  C175     1.0000 0.64031  0.38641  0.45627  Biso   1.000  C
  H75      1.0000 0.65587  0.47871  0.53157  Biso   1.000  H
  C176     1.0000 0.36716  0.72044  0.43284  Biso   1.000  C
  H76      1.0000 0.24861  0.61824  0.39459  Biso   1.000  H
  C177     1.0000 0.35508  0.82542  0.40455  Biso   1.000  C
  H77      1.0000 0.22531  0.79615  0.34938  Biso   1.000  H
  H78      1.0000 0.03510  0.12024  0.76708  Biso   1.000  H
  C178     1.0000 0.15998  0.14118  0.81984  Biso   1.000  C
  C179     1.0000 0.20295  0.14759  0.94472  Biso   1.000  C
  H79      1.0000 0.09870  0.12730  0.96946  Biso   1.000  H
  C180     1.0000 0.42275  0.18995  0.33089  Biso   1.000  C
  C181     1.0000 0.57317  0.30780  0.40285  Biso   1.000  C
  H80      1.0000 0.70098  0.41101  0.46415  Biso   1.000  H
  C182     1.0000 0.40987  0.79875  0.43799  Biso   1.000  C
  H81      1.0000 0.40382  0.70124  0.45517  Biso   1.000  H
  C183     1.0000 0.39517  0.90452  0.40646  Biso   1.000  C
  H82      1.0000 0.17457  0.14439  0.78114  Biso   1.000  H
  C184     1.0000 0.22418  0.15251  0.88885  Biso   1.000  C
  C185     1.0000 0.26993  0.16131  0.01401  Biso   1.000  C
  C186     1.0000 0.46690  0.14403  0.35776  Biso   1.000  C
  C187     1.0000 0.43682  0.19776  0.26527  Biso   1.000  C
  H83      1.0000 0.35818  0.16547  0.32049  Biso   1.000  H
  C188     1.0000 0.59155  0.25386  0.35776  Biso   1.000  C
  H84      1.0000 0.47398  0.83232  0.46338  Biso   1.000  H
  C189     1.0000 0.43107  0.96742  0.40269  Biso   1.000  C
  H85      1.0000 0.28250  0.16361  0.89596  Biso   1.000  H
  C190     1.0000 0.32447  0.17299  0.07180  Biso   1.000  C
  C191     1.0000 0.42485  0.07623  0.36799  Biso   1.000  C
  C192     1.0000 0.55659  0.17912  0.37335  Biso   1.000  C
  C193     1.0000 0.52612  0.23105  0.27807  Biso   1.000  C
  C194     1.0000 0.37057  0.17767  0.19839  Biso   1.000  C
  H86      1.0000 0.65643  0.27863  0.36859  Biso   1.000  H
  C195     1.0000 0.47564  0.04125  0.39448  Biso   1.000  C
  C196     1.0000 0.39150  0.19007  0.14131  Biso   1.000  C
  H87      1.0000 0.36321  0.05292  0.35765  Biso   1.000  H
  C197     1.0000 0.60832  0.14615  0.40099  Biso   1.000  C
  C198     1.0000 0.55008  0.24368  0.22280  Biso   1.000  C
  H88      1.0000 0.30965  0.15527  0.18980  Biso   1.000  H
  C199     1.0000 0.56620  0.07763  0.41095  Biso   1.000  C
  C200     1.0000 0.47978  0.22125  0.15439  Biso   1.000  C
  H89      1.0000 0.67021  0.17052  0.41216  Biso   1.000  H
  H90      1.0000 0.61106  0.26639  0.23161  Biso   1.000  H
  H91      1.0000 0.60002  0.05482  0.42967  Biso   1.000  H
  H92      1.0000 0.49348  0.22787  0.11580  Biso   1.000  H
  Ne1      1.0000 0.00174  0.00379  0.75024  Biso   1.000  Ne
  He1      1.0000 0.02564  0.89723  0.81398  Biso   1.000  He
  He2      1.0000 0.06188  0.06839  0.89384  Biso   1.000  He
  He3      1.0000 0.94002  0.96170  0.62631  Biso   1.000  He
  Ar1      1.0000 0.00319  0.00448  0.75053  Biso   1.000  Ar
  Ne2      1.0000 0.99803  0.99604  0.24968  Biso   1.000  Ne
  He4      1.0000 0.99224  0.91223  0.27446  Biso   1.000  He
  He5      1.0000 0.97961  0.99302  0.19223  Biso   1.000  He
  He6      1.0000 0.97968  0.99557  0.19296  Biso   1.000  He
  Ar2      1.0000 0.99657  0.99535  0.24939  Biso   1.000  Ar
