data_image0
_cell_length_a       11.774
_cell_length_b       13.147
_cell_length_c       19.45
_cell_angle_alpha    89.34
_cell_angle_beta     77.56
_cell_angle_gamma    83.02

_symmetry_space_group_name_H-M    "P 1"
_symmetry_int_tables_number       1

loop_
  _symmetry_equiv_pos_as_xyz
  'x, y, z'

loop_
  _atom_site_label
  _atom_site_occupancy
  _atom_site_fract_x
  _atom_site_fract_y
  _atom_site_fract_z
  _atom_site_thermal_displace_type
  _atom_site_B_iso_or_equiv
  _atom_site_type_symbol
  C1       1.0000 0.77741  0.56788  0.59059  Biso   1.000  C
  C2       1.0000 0.70069  0.66570  0.62018  Biso   1.000  C
  H1       1.0000 0.73419  0.50827  0.60470  Biso   1.000  H
  H2       1.0000 0.79613  0.57026  0.53851  Biso   1.000  H
  C3       1.0000 0.89024  0.55514  0.61729  Biso   1.000  C
  C4       1.0000 0.61862  0.66449  0.68326  Biso   1.000  C
  C5       1.0000 0.71730  0.75877  0.58696  Biso   1.000  C
  C6       1.0000 0.89417  0.50711  0.68089  Biso   1.000  C
  C7       1.0000 0.98988  0.59518  0.58074  Biso   1.000  C
  C8       1.0000 0.55388  0.75685  0.71207  Biso   1.000  C
  O1       1.0000 0.60529  0.57091  0.71391  Biso   1.000  O
  H3       1.0000 0.77360  0.76012  0.54399  Biso   1.000  H
  C9       1.0000 0.65260  0.84998  0.61560  Biso   1.000  C
  H4       1.0000 0.82673  0.47970  0.70638  Biso   1.000  H
  C10      1.0000 0.99516  0.49844  0.70807  Biso   1.000  C
  O2       1.0000 0.98019  0.64409  0.51893  Biso   1.000  O
  C11      1.0000 0.09165  0.58403  0.60691  Biso   1.000  C
  C12      1.0000 0.57041  0.84947  0.67968  Biso   1.000  C
  H5       1.0000 0.49731  0.75542  0.75488  Biso   1.000  H
  C13      1.0000 0.52414  0.56796  0.77862  Biso   1.000  C
  O3       1.0000 0.66463  0.94410  0.58506  Biso   1.000  O
  C14      1.0000 0.09576  0.53670  0.67068  Biso   1.000  C
  O4       1.0000 0.00308  0.45270  0.77125  Biso   1.000  O
  C15      1.0000 0.07540  0.69498  0.48449  Biso   1.000  C
  H6       1.0000 0.15991  0.60943  0.58059  Biso   1.000  H
  C16      1.0000 0.50168  0.94841  0.71122  Biso   1.000  C
  H7       1.0000 0.54849  0.60722  0.81433  Biso   1.000  H
  H8       1.0000 0.52095  0.49672  0.79353  Biso   1.000  H
  H9       1.0000 0.44639  0.59803  0.77299  Biso   1.000  H
  C17      1.0000 0.73987  0.94453  0.51761  Biso   1.000  C
  C18      1.0000 0.20733  0.52666  0.69869  Biso   1.000  C
  C19      1.0000 0.90450  0.40551  0.80685  Biso   1.000  C
  H10      1.0000 0.08927  0.74717  0.51629  Biso   1.000  H
  H11      1.0000 0.05690  0.72776  0.44210  Biso   1.000  H
  H12      1.0000 0.14575  0.64526  0.47138  Biso   1.000  H
  H13      1.0000 0.42631  0.93358  0.74108  Biso   1.000  H
  H14      1.0000 0.48404  0.99370  0.67289  Biso   1.000  H
  C20      1.0000 0.56769  0.00394  0.75540  Biso   1.000  C
  H15      1.0000 0.81968  0.91694  0.52082  Biso   1.000  H
  H16      1.0000 0.71261  0.90197  0.48491  Biso   1.000  H
  H17      1.0000 0.73950  0.01496  0.50039  Biso   1.000  H
  C21      1.0000 0.20980  0.61426  0.74808  Biso   1.000  C
  H18      1.0000 0.21426  0.46116  0.72402  Biso   1.000  H
  H19      1.0000 0.27562  0.52471  0.65862  Biso   1.000  H
  H20      1.0000 0.83708  0.45802  0.82138  Biso   1.000  H
  H21      1.0000 0.92299  0.37034  0.84850  Biso   1.000  H
  H22      1.0000 0.88556  0.35577  0.77520  Biso   1.000  H
  C22      1.0000 0.57032  0.97380  0.82396  Biso   1.000  C
  C23      1.0000 0.62780  0.08556  0.72792  Biso   1.000  C
  C24      1.0000 0.18241  0.60183  0.82028  Biso   1.000  C
  C25      1.0000 0.23908  0.70893  0.72160  Biso   1.000  C
  O5       1.0000 0.50662  0.89505  0.84945  Biso   1.000  O
  C26      1.0000 0.63360  0.02294  0.86319  Biso   1.000  C
  H23      1.0000 0.62633  0.10722  0.68132  Biso   1.000  H
  C27      1.0000 0.68948  0.13540  0.76736  Biso   1.000  C
  H24      1.0000 0.16332  0.53733  0.83860  Biso   1.000  H
  C28      1.0000 0.18233  0.68194  0.86703  Biso   1.000  C
  C29      1.0000 0.23792  0.78928  0.76846  Biso   1.000  C
  O6       1.0000 0.26696  0.71663  0.64988  Biso   1.000  O
  C30      1.0000 0.50694  0.86295  0.91927  Biso   1.000  C
  C31      1.0000 0.69588  0.10377  0.83470  Biso   1.000  C
  H25      1.0000 0.63482  0.00167  0.90990  Biso   1.000  H
  O7       1.0000 0.74925  0.21775  0.74198  Biso   1.000  O
  C32      1.0000 0.20974  0.77715  0.84081  Biso   1.000  C
  O8       1.0000 0.15640  0.67226  0.93880  Biso   1.000  O
  H26      1.0000 0.25696  0.85394  0.75019  Biso   1.000  H
  C33      1.0000 0.29577  0.81233  0.62145  Biso   1.000  C
  H27      1.0000 0.58707  0.83712  0.92280  Biso   1.000  H
  H28      1.0000 0.45664  0.80842  0.93127  Biso   1.000  H
  H29      1.0000 0.47732  0.92114  0.95192  Biso   1.000  H
  C34      1.0000 0.76886  0.15133  0.87830  Biso   1.000  C
  C35      1.0000 0.72572  0.26274  0.67947  Biso   1.000  C
  C36      1.0000 0.20464  0.86794  0.88878  Biso   1.000  C
  C37      1.0000 0.11100  0.58136  0.96597  Biso   1.000  C
  H30      1.0000 0.22958  0.86533  0.63782  Biso   1.000  H
  H31      1.0000 0.31279  0.80767  0.56990  Biso   1.000  H
  H32      1.0000 0.36488  0.82999  0.63698  Biso   1.000  H
  H33      1.0000 0.78990  0.21730  0.85729  Biso   1.000  H
  H34      1.0000 0.72160  0.16580  0.92659  Biso   1.000  H
  C38      1.0000 0.87974  0.08214  0.88215  Biso   1.000  C
  H35      1.0000 0.75672  0.21451  0.63988  Biso   1.000  H
  H36      1.0000 0.76335  0.32553  0.67057  Biso   1.000  H
  H37      1.0000 0.64093  0.27925  0.68448  Biso   1.000  H
  H38      1.0000 0.27552  0.90277  0.87298  Biso   1.000  H
  H39      1.0000 0.20298  0.84411  0.93738  Biso   1.000  H
  C39      1.0000 0.09625  0.94233  0.88768  Biso   1.000  C
  H40      1.0000 0.03811  0.57550  0.95060  Biso   1.000  H
  H41      1.0000 0.16826  0.52189  0.94849  Biso   1.000  H
  H42      1.0000 0.09540  0.58379  0.01747  Biso   1.000  H
  C40      1.0000 0.98797  0.08647  0.83865  Biso   1.000  C
  C41      1.0000 0.88221  0.00133  0.92917  Biso   1.000  C
  C42      1.0000 0.98749  0.93692  0.93091  Biso   1.000  C
  C43      1.0000 0.09185  0.02275  0.84050  Biso   1.000  C
  O9       1.0000 0.01545  0.15586  0.78510  Biso   1.000  O
  N1       1.0000 0.79172  0.96843  0.98024  Biso   1.000  N
  O10      1.0000 0.95963  0.86501  0.98151  Biso   1.000  O
  N2       1.0000 0.18195  0.05146  0.78710  Biso   1.000  N
  C44      1.0000 0.13265  0.12837  0.75788  Biso   1.000  C
  C45      1.0000 0.84147  0.88942  0.00805  Biso   1.000  C
  C46      1.0000 0.18757  0.18799  0.69896  Biso   1.000  C
  C47      1.0000 0.78676  0.82342  0.06260  Biso   1.000  C
  C48      1.0000 0.12127  0.25136  0.66062  Biso   1.000  C
  C49      1.0000 0.31019  0.18233  0.68184  Biso   1.000  C
  C50      1.0000 0.66578  0.83590  0.08682  Biso   1.000  C
  C51      1.0000 0.85601  0.74719  0.09135  Biso   1.000  C
  H43      1.0000 0.03810  0.25622  0.67242  Biso   1.000  H
  C52      1.0000 0.17659  0.30724  0.60533  Biso   1.000  C
  C53      1.0000 0.36428  0.23866  0.62650  Biso   1.000  C
  H44      1.0000 0.35591  0.13992  0.70822  Biso   1.000  H
  H45      1.0000 0.61862  0.88798  0.06797  Biso   1.000  H
  C54      1.0000 0.61459  0.77297  0.13795  Biso   1.000  C
  C55      1.0000 0.80291  0.68583  0.14437  Biso   1.000  C
  H46      1.0000 0.93857  0.73755  0.07471  Biso   1.000  H
  H47      1.0000 0.13123  0.35003  0.57901  Biso   1.000  H
  C56      1.0000 0.29806  0.30141  0.58796  Biso   1.000  C
  H48      1.0000 0.44739  0.23457  0.61481  Biso   1.000  H
  H49      1.0000 0.53182  0.78113  0.15359  Biso   1.000  H
  C57      1.0000 0.68232  0.69729  0.16717  Biso   1.000  C
  H50      1.0000 0.84983  0.63570  0.16507  Biso   1.000  H
  H51      1.0000 0.33554  0.34004  0.54999  Biso   1.000  H
  H52      1.0000 0.64599  0.65392  0.20251  Biso   1.000  H
  C58      1.0000 0.22264  0.43209  0.40940  Biso   1.000  C
  C59      1.0000 0.29927  0.33427  0.37981  Biso   1.000  C
  H53      1.0000 0.26577  0.49171  0.39529  Biso   1.000  H
  H54      1.0000 0.20392  0.42971  0.46148  Biso   1.000  H
  C60      1.0000 0.10980  0.44484  0.38270  Biso   1.000  C
  C61      1.0000 0.38133  0.33549  0.31678  Biso   1.000  C
  C62      1.0000 0.28275  0.24121  0.41303  Biso   1.000  C
  C63      1.0000 0.10588  0.49286  0.31910  Biso   1.000  C
  C64      1.0000 0.01015  0.40487  0.41925  Biso   1.000  C
  C65      1.0000 0.44607  0.24320  0.28792  Biso   1.000  C
  O11      1.0000 0.39467  0.42907  0.28608  Biso   1.000  O
  C66      1.0000 0.34735  0.15008  0.38439  Biso   1.000  C
  H55      1.0000 0.22635  0.23993  0.45600  Biso   1.000  H
  H56      1.0000 0.17331  0.52027  0.29361  Biso   1.000  H
  C67      1.0000 0.00488  0.50161  0.29192  Biso   1.000  C
  O12      1.0000 0.01976  0.35596  0.48107  Biso   1.000  O
  C68      1.0000 0.90832  0.41595  0.39308  Biso   1.000  C
  C69      1.0000 0.42963  0.15050  0.32031  Biso   1.000  C
  H57      1.0000 0.50273  0.24464  0.24511  Biso   1.000  H
  C70      1.0000 0.47590  0.43201  0.22137  Biso   1.000  C
  O13      1.0000 0.33532  0.05588  0.41498  Biso   1.000  O
  C71      1.0000 0.90429  0.46328  0.32931  Biso   1.000  C
  O14      1.0000 0.99696  0.54728  0.22874  Biso   1.000  O
  C72      1.0000 0.92457  0.30500  0.51550  Biso   1.000  C
  H58      1.0000 0.84013  0.39062  0.41941  Biso   1.000  H
  C73      1.0000 0.49836  0.05157  0.28877  Biso   1.000  C
  H59      1.0000 0.45152  0.39284  0.18572  Biso   1.000  H
  H60      1.0000 0.47898  0.50334  0.20652  Biso   1.000  H
  H61      1.0000 0.55356  0.40202  0.22700  Biso   1.000  H
  C74      1.0000 0.26008  0.05552  0.48238  Biso   1.000  C
  C75      1.0000 0.79263  0.47331  0.30130  Biso   1.000  C
  C76      1.0000 0.09547  0.59446  0.19314  Biso   1.000  C
  H62      1.0000 0.91069  0.25280  0.48370  Biso   1.000  H
  H63      1.0000 0.94306  0.27221  0.55789  Biso   1.000  H
  H64      1.0000 0.85430  0.35471  0.52861  Biso   1.000  H
  H65      1.0000 0.57373  0.06639  0.25891  Biso   1.000  H
  H66      1.0000 0.51601  0.00628  0.32710  Biso   1.000  H
  C77      1.0000 0.43226  0.99611  0.24459  Biso   1.000  C
  H67      1.0000 0.18026  0.08312  0.47922  Biso   1.000  H
  H68      1.0000 0.28744  0.09801  0.51508  Biso   1.000  H
  H69      1.0000 0.26045  0.98510  0.49960  Biso   1.000  H
  C78      1.0000 0.79023  0.38579  0.25191  Biso   1.000  C
  H70      1.0000 0.78569  0.53881  0.27602  Biso   1.000  H
  H71      1.0000 0.72441  0.47527  0.34142  Biso   1.000  H
  H72      1.0000 0.16287  0.54203  0.17861  Biso   1.000  H
  H73      1.0000 0.07697  0.62972  0.15149  Biso   1.000  H
  H74      1.0000 0.11440  0.64420  0.22479  Biso   1.000  H
  C79      1.0000 0.42965  0.02617  0.17603  Biso   1.000  C
  C80      1.0000 0.37223  0.91449  0.27207  Biso   1.000  C
  C81      1.0000 0.81755  0.39822  0.17971  Biso   1.000  C
  C82      1.0000 0.76087  0.29112  0.27839  Biso   1.000  C
  O15      1.0000 0.49343  0.10493  0.15054  Biso   1.000  O
  C83      1.0000 0.36643  0.97703  0.13685  Biso   1.000  C
  H75      1.0000 0.37372  0.89276  0.31867  Biso   1.000  H
  C84      1.0000 0.31047  0.86466  0.23263  Biso   1.000  C
  H76      1.0000 0.83672  0.46273  0.16139  Biso   1.000  H
  C85      1.0000 0.81769  0.31811  0.13301  Biso   1.000  C
  C86      1.0000 0.76204  0.21070  0.23153  Biso   1.000  C
  O16      1.0000 0.73299  0.28342  0.35011  Biso   1.000  O
  C87      1.0000 0.49311  0.13703  0.08072  Biso   1.000  C
  C88      1.0000 0.30417  0.89620  0.16529  Biso   1.000  C
  H77      1.0000 0.36514  0.99838  0.09009  Biso   1.000  H
  O17      1.0000 0.25077  0.78230  0.25807  Biso   1.000  O
  C89      1.0000 0.79030  0.22290  0.15918  Biso   1.000  C
  O18      1.0000 0.84355  0.32779  0.06119  Biso   1.000  O
  H78      1.0000 0.74299  0.14612  0.24980  Biso   1.000  H
  C90      1.0000 0.70418  0.18773  0.37854  Biso   1.000  C
  H79      1.0000 0.41288  0.16293  0.07719  Biso   1.000  H
  H80      1.0000 0.54339  0.19163  0.06872  Biso   1.000  H
  H81      1.0000 0.52272  0.07892  0.04807  Biso   1.000  H
  C91      1.0000 0.23110  0.84865  0.12169  Biso   1.000  C
  C92      1.0000 0.27424  0.73724  0.32052  Biso   1.000  C
  C93      1.0000 0.79531  0.13211  0.11121  Biso   1.000  C
  C94      1.0000 0.88902  0.41869  0.03407  Biso   1.000  C
  H82      1.0000 0.77035  0.13472  0.36222  Biso   1.000  H
  H83      1.0000 0.68717  0.19231  0.43009  Biso   1.000  H
  H84      1.0000 0.63508  0.16999  0.36301  Biso   1.000  H
  H85      1.0000 0.21007  0.78267  0.14270  Biso   1.000  H
  H86      1.0000 0.27836  0.83418  0.07340  Biso   1.000  H
  C95      1.0000 0.12021  0.91792  0.11784  Biso   1.000  C
  H87      1.0000 0.24324  0.78547  0.36011  Biso   1.000  H
  H88      1.0000 0.23670  0.67444  0.32942  Biso   1.000  H
  H89      1.0000 0.35911  0.72073  0.31551  Biso   1.000  H
  C96      1.0000 0.90380  0.05765  0.11232  Biso   1.000  C
  H90      1.0000 0.72453  0.09720  0.12701  Biso   1.000  H
  H91      1.0000 0.79698  0.15587  0.06261  Biso   1.000  H
  H92      1.0000 0.90456  0.41618  0.98252  Biso   1.000  H
  H93      1.0000 0.96194  0.42447  0.04939  Biso   1.000  H
  H94      1.0000 0.83170  0.47808  0.05150  Biso   1.000  H
  C97      1.0000 0.01199  0.91351  0.16134  Biso   1.000  C
  C98      1.0000 0.11775  0.99865  0.07082  Biso   1.000  C
  C99      1.0000 0.90818  0.97723  0.15955  Biso   1.000  C
  C100     1.0000 0.01255  0.06306  0.06908  Biso   1.000  C
  O19      1.0000 0.98460  0.84411  0.21489  Biso   1.000  O
  N3       1.0000 0.20824  0.03155  0.01975  Biso   1.000  N
  N4       1.0000 0.81809  0.94859  0.21289  Biso   1.000  N
  O20      1.0000 0.04041  0.13505  0.01848  Biso   1.000  O
  C101     1.0000 0.86739  0.87161  0.24211  Biso   1.000  C
  C102     1.0000 0.15858  0.11055  0.99194  Biso   1.000  C
  C103     1.0000 0.81236  0.81206  0.30109  Biso   1.000  C
  C104     1.0000 0.21326  0.17664  0.93744  Biso   1.000  C
  C105     1.0000 0.87869  0.74861  0.33937  Biso   1.000  C
  C106     1.0000 0.68984  0.81765  0.31820  Biso   1.000  C
  C107     1.0000 0.33417  0.16415  0.91317  Biso   1.000  C
  C108     1.0000 0.14394  0.25286  0.90864  Biso   1.000  C
  H95      1.0000 0.96184  0.74375  0.32763  Biso   1.000  H
  C109     1.0000 0.82335  0.69274  0.39471  Biso   1.000  C
  C110     1.0000 0.63568  0.76132  0.37349  Biso   1.000  C
  H96      1.0000 0.64404  0.86006  0.29182  Biso   1.000  H
  H97      1.0000 0.38134  0.11199  0.93202  Biso   1.000  H
  C111     1.0000 0.38537  0.22701  0.86204  Biso   1.000  C
  C112     1.0000 0.19705  0.31415  0.85562  Biso   1.000  C
  H98      1.0000 0.06136  0.26250  0.92533  Biso   1.000  H
  H99      1.0000 0.86881  0.64994  0.42098  Biso   1.000  H
  C113     1.0000 0.70199  0.69856  0.41203  Biso   1.000  C
  H100     1.0000 0.55256  0.76548  0.38518  Biso   1.000  H
  H101     1.0000 0.46823  0.21885  0.84640  Biso   1.000  H
  C114     1.0000 0.31772  0.30269  0.83282  Biso   1.000  C
  H102     1.0000 0.15022  0.36427  0.83492  Biso   1.000  H
  H103     1.0000 0.66451  0.65993  0.45000  Biso   1.000  H
  H104     1.0000 0.35397  0.34605  0.79748  Biso   1.000  H
