data_image0
_cell_length_a       8.73
_cell_length_b       9.001
_cell_length_c       17.867
_cell_angle_alpha    77.6
_cell_angle_beta     87.46
_cell_angle_gamma    72.3

_symmetry_space_group_name_H-M    "P 1"
_symmetry_int_tables_number       1

loop_
  _symmetry_equiv_pos_as_xyz
  'x, y, z'

loop_
  _atom_site_label
  _atom_site_occupancy
  _atom_site_fract_x
  _atom_site_fract_y
  _atom_site_fract_z
  _atom_site_thermal_displace_type
  _atom_site_B_iso_or_equiv
  _atom_site_type_symbol
  C1       1.0000 0.93358  0.44701  0.41248  Biso   1.000  C
  C2       1.0000 0.87943  0.53605  0.33922  Biso   1.000  C
  H1       1.0000 0.88547  0.48360  0.45518  Biso   1.000  H
  C3       1.0000 0.05578  0.30721  0.42222  Biso   1.000  C
  C4       1.0000 0.95360  0.47868  0.27669  Biso   1.000  C
  H2       1.0000 0.79587  0.63134  0.33257  Biso   1.000  H
  C5       1.0000 0.12884  0.25078  0.35860  Biso   1.000  C
  H3       1.0000 0.09040  0.24946  0.47129  Biso   1.000  H
  O1       1.0000 0.91457  0.54700  0.19936  Biso   1.000  O
  C6       1.0000 0.07693  0.33812  0.28683  Biso   1.000  C
  H4       1.0000 0.21196  0.15518  0.36490  Biso   1.000  H
  C7       1.0000 0.80324  0.68680  0.16950  Biso   1.000  C
  O2       1.0000 0.14816  0.27934  0.22246  Biso   1.000  O
  N1       1.0000 0.72908  0.79223  0.20974  Biso   1.000  N
  C8       1.0000 0.77256  0.70907  0.09108  Biso   1.000  C
  C9       1.0000 0.23881  0.36602  0.17999  Biso   1.000  C
  C10      1.0000 0.62389  0.92101  0.17179  Biso   1.000  C
  N2       1.0000 0.66731  0.83985  0.05440  Biso   1.000  N
  H5       1.0000 0.82733  0.63076  0.06471  Biso   1.000  H
  N3       1.0000 0.29184  0.45808  0.21300  Biso   1.000  N
  C11      1.0000 0.27238  0.35085  0.10478  Biso   1.000  C
  C12      1.0000 0.59051  0.94703  0.09492  Biso   1.000  C
  O3       1.0000 0.54167  0.03847  0.20882  Biso   1.000  O
  C13      1.0000 0.37868  0.53855  0.17087  Biso   1.000  C
  N4       1.0000 0.35878  0.43571  0.06248  Biso   1.000  N
  H6       1.0000 0.23477  0.28171  0.08409  Biso   1.000  H
  H7       1.0000 0.51367  0.04017  0.07091  Biso   1.000  H
  C14      1.0000 0.59503  0.04157  0.28047  Biso   1.000  C
  O4       1.0000 0.44004  0.63401  0.20383  Biso   1.000  O
  C15      1.0000 0.41230  0.53144  0.09509  Biso   1.000  C
  C16      1.0000 0.56227  0.94462  0.34518  Biso   1.000  C
  C17      1.0000 0.67450  0.15026  0.28391  Biso   1.000  C
  C18      1.0000 0.36255  0.67423  0.27009  Biso   1.000  C
  H8       1.0000 0.47206  0.59307  0.06689  Biso   1.000  H
  C19      1.0000 0.61116  0.95807  0.41638  Biso   1.000  C
  H9       1.0000 0.50858  0.87123  0.34209  Biso   1.000  H
  O5       1.0000 0.70020  0.25254  0.21793  Biso   1.000  O
  C20      1.0000 0.72145  0.16386  0.35447  Biso   1.000  C
  C21      1.0000 0.42627  0.59148  0.34100  Biso   1.000  C
  C22      1.0000 0.22302  0.79767  0.26281  Biso   1.000  C
  H10      1.0000 0.58991  0.89379  0.46120  Biso   1.000  H
  C23      1.0000 0.69031  0.06609  0.41947  Biso   1.000  C
  C24      1.0000 0.82340  0.18476  0.17242  Biso   1.000  C
  H11      1.0000 0.77338  0.23843  0.35779  Biso   1.000  H
  H12      1.0000 0.51995  0.50579  0.34570  Biso   1.000  H
  C25      1.0000 0.34888  0.63733  0.40560  Biso   1.000  C
  O6       1.0000 0.17375  0.86438  0.18652  Biso   1.000  O
  C26      1.0000 0.14578  0.84106  0.32799  Biso   1.000  C
  H13      1.0000 0.72395  0.07333  0.46688  Biso   1.000  H
  N5       1.0000 0.93433  0.05452  0.20521  Biso   1.000  N
  C27      1.0000 0.82218  0.25745  0.09630  Biso   1.000  C
  H14      1.0000 0.39256  0.58338  0.45398  Biso   1.000  H
  C28      1.0000 0.21060  0.75988  0.39901  Biso   1.000  C
  C29      1.0000 0.05070  0.99636  0.16010  Biso   1.000  C
  H15      1.0000 0.05064  0.92477  0.32352  Biso   1.000  H
  N6       1.0000 0.94120  0.19438  0.05147  Biso   1.000  N
  H16      1.0000 0.73982  0.34918  0.07601  Biso   1.000  H
  H17      1.0000 0.15951  0.78888  0.44280  Biso   1.000  H
  C30      1.0000 0.05500  0.06422  0.08277  Biso   1.000  C
  H18      1.0000 0.13829  0.01758  0.05308  Biso   1.000  H
  C31      1.0000 0.06636  0.55307  0.58748  Biso   1.000  C
  C32      1.0000 0.12047  0.46412  0.66079  Biso   1.000  C
  H19      1.0000 0.11446  0.51647  0.54477  Biso   1.000  H
  C33      1.0000 0.94415  0.69284  0.57779  Biso   1.000  C
  C34      1.0000 0.04629  0.52151  0.72327  Biso   1.000  C
  H20      1.0000 0.20406  0.36874  0.66738  Biso   1.000  H
  C35      1.0000 0.87110  0.74927  0.64142  Biso   1.000  C
  H21      1.0000 0.90954  0.75059  0.52872  Biso   1.000  H
  O7       1.0000 0.08536  0.45307  0.80060  Biso   1.000  O
  C36      1.0000 0.92301  0.66193  0.71318  Biso   1.000  C
  H22      1.0000 0.78798  0.84487  0.63511  Biso   1.000  H
  C37      1.0000 0.19669  0.31328  0.83046  Biso   1.000  C
  O8       1.0000 0.85178  0.72071  0.77755  Biso   1.000  O
  N7       1.0000 0.27085  0.20782  0.79028  Biso   1.000  N
  C38      1.0000 0.22737  0.29101  0.90887  Biso   1.000  C
  C39      1.0000 0.76112  0.63405  0.81997  Biso   1.000  C
  C40      1.0000 0.37605  0.07907  0.82817  Biso   1.000  C
  N8       1.0000 0.33259  0.16031  0.94562  Biso   1.000  N
  H23      1.0000 0.17260  0.36929  0.93530  Biso   1.000  H
  N9       1.0000 0.70810  0.54197  0.78701  Biso   1.000  N
  C41      1.0000 0.72751  0.64934  0.89517  Biso   1.000  C
  O9       1.0000 0.45827  0.96158  0.79119  Biso   1.000  O
  C42      1.0000 0.40939  0.05313  0.90509  Biso   1.000  C
  C43      1.0000 0.62125  0.46152  0.82908  Biso   1.000  C
  N10      1.0000 0.64115  0.56434  0.93753  Biso   1.000  N
  H24      1.0000 0.76517  0.71837  0.91587  Biso   1.000  H
  C44      1.0000 0.40491  0.95851  0.71949  Biso   1.000  C
  H25      1.0000 0.48623  0.96000  0.92911  Biso   1.000  H
  O10      1.0000 0.55989  0.36606  0.79612  Biso   1.000  O
  C45      1.0000 0.58760  0.46872  0.90492  Biso   1.000  C
  C46      1.0000 0.43766  0.05545  0.65477  Biso   1.000  C
  C47      1.0000 0.32543  0.84979  0.71610  Biso   1.000  C
  C48      1.0000 0.63739  0.32581  0.72992  Biso   1.000  C
  H26      1.0000 0.52800  0.40698  0.93312  Biso   1.000  H
  C49      1.0000 0.38877  0.04201  0.58358  Biso   1.000  C
  H27      1.0000 0.49135  0.12884  0.65787  Biso   1.000  H
  C50      1.0000 0.27848  0.83621  0.64549  Biso   1.000  C
  O11      1.0000 0.29974  0.74751  0.78208  Biso   1.000  O
  C51      1.0000 0.77699  0.20249  0.73720  Biso   1.000  C
  C52      1.0000 0.57363  0.40869  0.65901  Biso   1.000  C
  H28      1.0000 0.41011  0.10638  0.53881  Biso   1.000  H
  C53      1.0000 0.30959  0.93410  0.58048  Biso   1.000  C
  H29      1.0000 0.22656  0.76161  0.64222  Biso   1.000  H
  C54      1.0000 0.17650  0.81541  0.82759  Biso   1.000  C
  O12      1.0000 0.82630  0.13567  0.81349  Biso   1.000  O
  C55      1.0000 0.85415  0.15902  0.67197  Biso   1.000  C
  H30      1.0000 0.48011  0.49426  0.65431  Biso   1.000  H
  C56      1.0000 0.65106  0.36272  0.59441  Biso   1.000  C
  H31      1.0000 0.27599  0.92674  0.53308  Biso   1.000  H
  N11      1.0000 0.06560  0.94555  0.79475  Biso   1.000  N
  C57      1.0000 0.17772  0.74272  0.90371  Biso   1.000  C
  C58      1.0000 0.94924  0.00369  0.83992  Biso   1.000  C
  C59      1.0000 0.78930  0.24029  0.60101  Biso   1.000  C
  H32      1.0000 0.94941  0.07528  0.67650  Biso   1.000  H
  H33      1.0000 0.60734  0.41681  0.54598  Biso   1.000  H
  N12      1.0000 0.05885  0.80569  0.94848  Biso   1.000  N
  H34      1.0000 0.26011  0.65087  0.92401  Biso   1.000  H
  C60      1.0000 0.94505  0.93586  0.91719  Biso   1.000  C
  H35      1.0000 0.84050  0.21128  0.55721  Biso   1.000  H
  H36      1.0000 0.86161  0.98261  0.94688  Biso   1.000  H
