data_image0
_cell_length_a       16.8
_cell_length_b       7.392
_cell_length_c       14.202
_cell_angle_alpha    90
_cell_angle_beta     91.34
_cell_angle_gamma    90

_symmetry_space_group_name_H-M    "P 1"
_symmetry_int_tables_number       1

loop_
  _symmetry_equiv_pos_as_xyz
  'x, y, z'

loop_
  _atom_site_label
  _atom_site_occupancy
  _atom_site_fract_x
  _atom_site_fract_y
  _atom_site_fract_z
  _atom_site_thermal_displace_type
  _atom_site_B_iso_or_equiv
  _atom_site_type_symbol
  C1       1.0000 0.61443  0.55235  0.52845  Biso   1.000  C
  S1       1.0000 0.61519  0.32806  0.47647  Biso   1.000  S
  H1       1.0000 0.56010  0.58144  0.54711  Biso   1.000  H
  H2       1.0000 0.63010  0.64096  0.48098  Biso   1.000  H
  C2       1.0000 0.66913  0.56791  0.61241  Biso   1.000  C
  C3       1.0000 0.56822  0.19345  0.56620  Biso   1.000  C
  C4       1.0000 0.64633  0.57332  0.70242  Biso   1.000  C
  C5       1.0000 0.75513  0.58239  0.59078  Biso   1.000  C
  C6       1.0000 0.61370  0.01853  0.58458  Biso   1.000  C
  H3       1.0000 0.51353  0.16504  0.54592  Biso   1.000  H
  H4       1.0000 0.56604  0.26339  0.62473  Biso   1.000  H
  C7       1.0000 0.70720  0.58550  0.77954  Biso   1.000  C
  C8       1.0000 0.56198  0.57129  0.73524  Biso   1.000  C
  O1       1.0000 0.77559  0.58252  0.50880  Biso   1.000  O
  C9       1.0000 0.81535  0.60078  0.66805  Biso   1.000  C
  C10      1.0000 0.69055  0.04654  0.63917  Biso   1.000  C
  H5       1.0000 0.62530  0.96144  0.52422  Biso   1.000  H
  H6       1.0000 0.57993  0.93561  0.61973  Biso   1.000  H
  O2       1.0000 0.68595  0.58739  0.86117  Biso   1.000  O
  C11      1.0000 0.79272  0.59889  0.75806  Biso   1.000  C
  H7       1.0000 0.52585  0.56277  0.68122  Biso   1.000  H
  H8       1.0000 0.55433  0.46794  0.77609  Biso   1.000  H
  H9       1.0000 0.55135  0.68168  0.76961  Biso   1.000  H
  C12      1.0000 0.89984  0.62662  0.63924  Biso   1.000  C
  C13      1.0000 0.69093  0.06602  0.73644  Biso   1.000  C
  C14      1.0000 0.76270  0.05547  0.59402  Biso   1.000  C
  C15      1.0000 0.84912  0.61282  0.84046  Biso   1.000  C
  S2       1.0000 0.96361  0.43006  0.65248  Biso   1.000  S
  H10      1.0000 0.89972  0.66410  0.57303  Biso   1.000  H
  H11      1.0000 0.92314  0.72565  0.67664  Biso   1.000  H
  C16      1.0000 0.76120  0.09159  0.78644  Biso   1.000  C
  H12      1.0000 0.64263  0.06169  0.76841  Biso   1.000  H
  H13      1.0000 0.76330  0.04383  0.52810  Biso   1.000  H
  C17      1.0000 0.83433  0.08144  0.64354  Biso   1.000  C
  H14      1.0000 0.90320  0.62067  0.81842  Biso   1.000  H
  H15      1.0000 0.83691  0.72024  0.87660  Biso   1.000  H
  H16      1.0000 0.84394  0.50663  0.87991  Biso   1.000  H
  C18      1.0000 0.93054  0.28328  0.55712  Biso   1.000  C
  H17      1.0000 0.76060  0.10417  0.85230  Biso   1.000  H
  C19      1.0000 0.83250  0.09862  0.74045  Biso   1.000  C
  C20      1.0000 0.91115  0.09267  0.59128  Biso   1.000  C
  H18      1.0000 0.97229  0.27611  0.51021  Biso   1.000  H
  H19      1.0000 0.88303  0.33563  0.52641  Biso   1.000  H
  H20      1.0000 0.88021  0.11526  0.77517  Biso   1.000  H
  H21      1.0000 0.95471  0.05032  0.63269  Biso   1.000  H
  H22      1.0000 0.90794  0.01136  0.53690  Biso   1.000  H
  C21      1.0000 0.38563  0.44778  0.47161  Biso   1.000  C
  C22      1.0000 0.33088  0.43209  0.38759  Biso   1.000  C
  S3       1.0000 0.38481  0.67208  0.52352  Biso   1.000  S
  H23      1.0000 0.43991  0.41856  0.45288  Biso   1.000  H
  H24      1.0000 0.36990  0.35917  0.51901  Biso   1.000  H
  C23      1.0000 0.35374  0.42668  0.29757  Biso   1.000  C
  C24      1.0000 0.24488  0.41775  0.40921  Biso   1.000  C
  C25      1.0000 0.43179  0.80668  0.43379  Biso   1.000  C
  C26      1.0000 0.29287  0.41464  0.22045  Biso   1.000  C
  C27      1.0000 0.43809  0.42884  0.26475  Biso   1.000  C
  C28      1.0000 0.18466  0.39935  0.33202  Biso   1.000  C
  O3       1.0000 0.22447  0.41748  0.49119  Biso   1.000  O
  C29      1.0000 0.38631  0.98160  0.41541  Biso   1.000  C
  H25      1.0000 0.48654  0.83509  0.45407  Biso   1.000  H
  H26      1.0000 0.43403  0.73661  0.37533  Biso   1.000  H
  O4       1.0000 0.31405  0.41261  0.13882  Biso   1.000  O
  C30      1.0000 0.20734  0.40124  0.24200  Biso   1.000  C
  H27      1.0000 0.47422  0.43736  0.31877  Biso   1.000  H
  H28      1.0000 0.44568  0.53206  0.22390  Biso   1.000  H
  H29      1.0000 0.44872  0.31832  0.23038  Biso   1.000  H
  C31      1.0000 0.10017  0.37338  0.36075  Biso   1.000  C
  C32      1.0000 0.30945  0.95360  0.36082  Biso   1.000  C
  H30      1.0000 0.37470  0.03856  0.47584  Biso   1.000  H
  H31      1.0000 0.42014  0.06453  0.38033  Biso   1.000  H
  C33      1.0000 0.15089  0.38718  0.15953  Biso   1.000  C
  S4       1.0000 0.03639  0.56994  0.34751  Biso   1.000  S
  H32      1.0000 0.10035  0.33590  0.42703  Biso   1.000  H
  H33      1.0000 0.07693  0.27435  0.32342  Biso   1.000  H
  C34      1.0000 0.30914  0.93412  0.26363  Biso   1.000  C
  C35      1.0000 0.23737  0.94453  0.40597  Biso   1.000  C
  H34      1.0000 0.09680  0.37933  0.18157  Biso   1.000  H
  H35      1.0000 0.16309  0.27976  0.12340  Biso   1.000  H
  H36      1.0000 0.15612  0.49337  0.12009  Biso   1.000  H
  C36      1.0000 0.06947  0.71686  0.44288  Biso   1.000  C
  C37      1.0000 0.23880  0.90841  0.21355  Biso   1.000  C
  H37      1.0000 0.35744  0.93831  0.23158  Biso   1.000  H
  C38      1.0000 0.16574  0.91870  0.35646  Biso   1.000  C
  H38      1.0000 0.23671  0.95630  0.47189  Biso   1.000  H
  C39      1.0000 0.08891  0.90747  0.40872  Biso   1.000  C
  H39      1.0000 0.02772  0.72389  0.48978  Biso   1.000  H
  H40      1.0000 0.11704  0.66450  0.47358  Biso   1.000  H
  C40      1.0000 0.16751  0.90152  0.25954  Biso   1.000  C
  H41      1.0000 0.23941  0.89583  0.14770  Biso   1.000  H
  H42      1.0000 0.04530  0.94981  0.36730  Biso   1.000  H
  H43      1.0000 0.09213  0.98877  0.46309  Biso   1.000  H
  H44      1.0000 0.11980  0.88488  0.22482  Biso   1.000  H
  C41      1.0000 0.69086  0.43398  0.23637  Biso   1.000  C
  C42      1.0000 0.69055  0.45346  0.13917  Biso   1.000  C
  C43      1.0000 0.76120  0.40841  0.28645  Biso   1.000  C
  H45      1.0000 0.64263  0.43831  0.26842  Biso   1.000  H
  C44      1.0000 0.61370  0.48147  0.08459  Biso   1.000  C
  C45      1.0000 0.76263  0.44453  0.09403  Biso   1.000  C
  H46      1.0000 0.76060  0.39583  0.35230  Biso   1.000  H
  C46      1.0000 0.83249  0.40138  0.24045  Biso   1.000  C
  C47      1.0000 0.56821  0.30668  0.06621  Biso   1.000  C
  H47      1.0000 0.62530  0.53869  0.02423  Biso   1.000  H
  H48      1.0000 0.57993  0.56453  0.11973  Biso   1.000  H
  H49      1.0000 0.76329  0.45617  0.02810  Biso   1.000  H
  C48      1.0000 0.83433  0.41856  0.14354  Biso   1.000  C
  H50      1.0000 0.88020  0.38488  0.27518  Biso   1.000  H
  H51      1.0000 0.51347  0.33496  0.04592  Biso   1.000  H
  H52      1.0000 0.56598  0.23661  0.12473  Biso   1.000  H
  S5       1.0000 0.61519  0.17194  0.97648  Biso   1.000  S
  C49      1.0000 0.91109  0.40747  0.09128  Biso   1.000  C
  C50      1.0000 0.61437  0.94778  0.02845  Biso   1.000  C
  H53      1.0000 0.95471  0.44968  0.13269  Biso   1.000  H
  H54      1.0000 0.90787  0.48877  0.03691  Biso   1.000  H
  C51      1.0000 0.93053  0.21686  0.05712  Biso   1.000  C
  H55      1.0000 0.63010  0.85917  0.98098  Biso   1.000  H
  H56      1.0000 0.56010  0.91870  0.04712  Biso   1.000  H
  C52      1.0000 0.66913  0.93209  0.11241  Biso   1.000  C
  S6       1.0000 0.96361  0.06994  0.15249  Biso   1.000  S
  H57      1.0000 0.97229  0.22389  0.01021  Biso   1.000  H
  H58      1.0000 0.88296  0.16437  0.02641  Biso   1.000  H
  C53      1.0000 0.64626  0.92681  0.20242  Biso   1.000  C
  C54      1.0000 0.75513  0.91775  0.09079  Biso   1.000  C
  C55      1.0000 0.89984  0.87351  0.13924  Biso   1.000  C
  C56      1.0000 0.70719  0.91464  0.27954  Biso   1.000  C
  C57      1.0000 0.56191  0.92884  0.23524  Biso   1.000  C
  O5       1.0000 0.77553  0.91761  0.00880  Biso   1.000  O
  C58      1.0000 0.81534  0.89935  0.16798  Biso   1.000  C
  H59      1.0000 0.89972  0.83590  0.07297  Biso   1.000  H
  H60      1.0000 0.92307  0.77449  0.17657  Biso   1.000  H
  O6       1.0000 0.68595  0.91261  0.36117  Biso   1.000  O
  C59      1.0000 0.79266  0.90124  0.25799  Biso   1.000  C
  H61      1.0000 0.55433  0.03206  0.27609  Biso   1.000  H
  H62      1.0000 0.52578  0.93736  0.18122  Biso   1.000  H
  H63      1.0000 0.55128  0.81832  0.26961  Biso   1.000  H
  C60      1.0000 0.84911  0.88731  0.34047  Biso   1.000  C
  H64      1.0000 0.90320  0.87933  0.31842  Biso   1.000  H
  H65      1.0000 0.83691  0.77990  0.37660  Biso   1.000  H
  H66      1.0000 0.84388  0.99351  0.37991  Biso   1.000  H
  C61      1.0000 0.30914  0.56602  0.76362  Biso   1.000  C
  C62      1.0000 0.23881  0.59159  0.71355  Biso   1.000  C
  H67      1.0000 0.35744  0.56169  0.73158  Biso   1.000  H
  C63      1.0000 0.30952  0.54654  0.86089  Biso   1.000  C
  H68      1.0000 0.23941  0.60417  0.64769  Biso   1.000  H
  C64      1.0000 0.16752  0.59862  0.75961  Biso   1.000  C
  C65      1.0000 0.23738  0.55547  0.90604  Biso   1.000  C
  C66      1.0000 0.38637  0.51853  0.91540  Biso   1.000  C
  C67      1.0000 0.16574  0.58144  0.85645  Biso   1.000  C
  H69      1.0000 0.11980  0.61526  0.72481  Biso   1.000  H
  H70      1.0000 0.23671  0.54383  0.97189  Biso   1.000  H
  H71      1.0000 0.37477  0.46144  0.97583  Biso   1.000  H
  H72      1.0000 0.42014  0.43547  0.88033  Biso   1.000  H
  C68      1.0000 0.43179  0.69345  0.93386  Biso   1.000  C
  C69      1.0000 0.08892  0.59267  0.90871  Biso   1.000  C
  H73      1.0000 0.48654  0.66504  0.95414  Biso   1.000  H
  H74      1.0000 0.43403  0.76339  0.87533  Biso   1.000  H
  S7       1.0000 0.38482  0.82806  0.02352  Biso   1.000  S
  H75      1.0000 0.04536  0.55032  0.86730  Biso   1.000  H
  H76      1.0000 0.09213  0.51136  0.96309  Biso   1.000  H
  C70      1.0000 0.06953  0.78328  0.94287  Biso   1.000  C
  C71      1.0000 0.38564  0.05235  0.97161  Biso   1.000  C
  S8       1.0000 0.03640  0.93006  0.84751  Biso   1.000  S
  H77      1.0000 0.02772  0.77611  0.98978  Biso   1.000  H
  H78      1.0000 0.11704  0.83563  0.97358  Biso   1.000  H
  H79      1.0000 0.43991  0.08144  0.95287  Biso   1.000  H
  C72      1.0000 0.33088  0.06791  0.88758  Biso   1.000  C
  H80      1.0000 0.36991  0.14096  0.01901  Biso   1.000  H
  C73      1.0000 0.10017  0.12662  0.86082  Biso   1.000  C
  C74      1.0000 0.35374  0.07332  0.79757  Biso   1.000  C
  C75      1.0000 0.24488  0.08225  0.90921  Biso   1.000  C
  H81      1.0000 0.10035  0.16410  0.92702  Biso   1.000  H
  H82      1.0000 0.07693  0.22565  0.82342  Biso   1.000  H
  C76      1.0000 0.18472  0.10065  0.83201  Biso   1.000  C
  C77      1.0000 0.29287  0.08536  0.72045  Biso   1.000  C
  C78      1.0000 0.43809  0.07116  0.76475  Biso   1.000  C
  O7       1.0000 0.22448  0.08252  0.99119  Biso   1.000  O
  C79      1.0000 0.20735  0.09876  0.74200  Biso   1.000  C
  O8       1.0000 0.31406  0.08739  0.63882  Biso   1.000  O
  H83      1.0000 0.44574  0.96794  0.72390  Biso   1.000  H
  H84      1.0000 0.47422  0.06277  0.81884  Biso   1.000  H
  H85      1.0000 0.44872  0.18168  0.73038  Biso   1.000  H
  C80      1.0000 0.15090  0.11282  0.65959  Biso   1.000  C
  H86      1.0000 0.09681  0.12067  0.68164  Biso   1.000  H
  H87      1.0000 0.16310  0.22024  0.62339  Biso   1.000  H
  H88      1.0000 0.15613  0.00663  0.62008  Biso   1.000  H
