data_image0
_cell_length_a       17.385
_cell_length_b       17.425
_cell_length_c       17.479
_cell_angle_alpha    60.38
_cell_angle_beta     60.31
_cell_angle_gamma    60.17

_symmetry_space_group_name_H-M    "P 1"
_symmetry_int_tables_number       1

loop_
  _symmetry_equiv_pos_as_xyz
  'x, y, z'

loop_
  _atom_site_label
  _atom_site_occupancy
  _atom_site_fract_x
  _atom_site_fract_y
  _atom_site_fract_z
  _atom_site_thermal_displace_type
  _atom_site_B_iso_or_equiv
  _atom_site_type_symbol
  C1       1.0000 0.63107  0.76194  0.36068  Biso   1.000  C
  N1       1.0000 0.62664  0.69973  0.34834  Biso   1.000  N
  C2       1.0000 0.62994  0.85406  0.29429  Biso   1.000  C
  H1       1.0000 0.63541  0.74720  0.41870  Biso   1.000  H
  C3       1.0000 0.62833  0.61045  0.42093  Biso   1.000  C
  C4       1.0000 0.62549  0.92047  0.32037  Biso   1.000  C
  C5       1.0000 0.63164  0.88016  0.20328  Biso   1.000  C
  C6       1.0000 0.54312  0.58714  0.44444  Biso   1.000  C
  C7       1.0000 0.71995  0.53401  0.38962  Biso   1.000  C
  H2       1.0000 0.62522  0.61366  0.47791  Biso   1.000  H
  H3       1.0000 0.62624  0.90320  0.38084  Biso   1.000  H
  C8       1.0000 0.61997  0.01074  0.25977  Biso   1.000  C
  C9       1.0000 0.62834  0.97189  0.14129  Biso   1.000  C
  H4       1.0000 0.63488  0.83616  0.18390  Biso   1.000  H
  C10      1.0000 0.54526  0.49053  0.51780  Biso   1.000  C
  H5       1.0000 0.48476  0.63506  0.46780  Biso   1.000  H
  H6       1.0000 0.54297  0.58871  0.38704  Biso   1.000  H
  C11      1.0000 0.72158  0.44152  0.46473  Biso   1.000  C
  N2       1.0000 0.80113  0.55434  0.37072  Biso   1.000  N
  H7       1.0000 0.72422  0.53114  0.33181  Biso   1.000  H
  C12      1.0000 0.62435  0.03524  0.16939  Biso   1.000  C
  C13      1.0000 0.61069  0.08425  0.28718  Biso   1.000  C
  C14      1.0000 0.62903  0.99677  0.04777  Biso   1.000  C
  C15      1.0000 0.63915  0.41441  0.48830  Biso   1.000  C
  H8       1.0000 0.49286  0.47525  0.52721  Biso   1.000  H
  H9       1.0000 0.53635  0.49151  0.57791  Biso   1.000  H
  H10      1.0000 0.71875  0.44422  0.52143  Biso   1.000  H
  H11      1.0000 0.78134  0.39292  0.44444  Biso   1.000  H
  C16      1.0000 0.86057  0.56484  0.28808  Biso   1.000  C
  H12      1.0000 0.62466  0.09618  0.12671  Biso   1.000  H
  N3       1.0000 0.59756  0.07207  0.36870  Biso   1.000  N
  H13      1.0000 0.61484  0.14286  0.24073  Biso   1.000  H
  H14      1.0000 0.63606  0.94929  0.03048  Biso   1.000  H
  N4       1.0000 0.62067  0.07867  0.98870  Biso   1.000  N
  H15      1.0000 0.64125  0.35373  0.53963  Biso   1.000  H
  H16      1.0000 0.64424  0.40703  0.43314  Biso   1.000  H
  C17      1.0000 0.95005  0.57244  0.26228  Biso   1.000  C
  H17      1.0000 0.84514  0.56775  0.24143  Biso   1.000  H
  C18      1.0000 0.57857  0.15403  0.38774  Biso   1.000  C
  C19      1.0000 0.61720  0.09600  0.90000  Biso   1.000  C
  C20      1.0000 0.97627  0.57733  0.32498  Biso   1.000  C
  C21      1.0000 0.01223  0.57553  0.17302  Biso   1.000  C
  H18      1.0000 0.58065  0.20843  0.32839  Biso   1.000  H
  C22      1.0000 0.65479  0.13433  0.42212  Biso   1.000  C
  C23      1.0000 0.48139  0.17835  0.45908  Biso   1.000  C
  C24      1.0000 0.68787  0.14033  0.82308  Biso   1.000  C
  H19      1.0000 0.63138  0.03528  0.89477  Biso   1.000  H
  C25      1.0000 0.51709  0.15988  0.89846  Biso   1.000  C
  H20      1.0000 0.93313  0.57803  0.38572  Biso   1.000  H
  C26      1.0000 0.06261  0.58108  0.29799  Biso   1.000  C
  H21      1.0000 0.99475  0.57516  0.12971  Biso   1.000  H
  C27      1.0000 0.09921  0.57939  0.14673  Biso   1.000  C
  N5       1.0000 0.74577  0.11872  0.35022  Biso   1.000  N
  H22      1.0000 0.65627  0.07695  0.47868  Biso   1.000  H
  C28      1.0000 0.63319  0.21711  0.44729  Biso   1.000  C
  C29      1.0000 0.46086  0.25863  0.48300  Biso   1.000  C
  H23      1.0000 0.43357  0.19362  0.43391  Biso   1.000  H
  H24      1.0000 0.47709  0.12303  0.51640  Biso   1.000  H
  N6       1.0000 0.78108  0.07243  0.82217  Biso   1.000  N
  H25      1.0000 0.67930  0.19661  0.83235  Biso   1.000  H
  C30      1.0000 0.67833  0.16863  0.72900  Biso   1.000  C
  H26      1.0000 0.47206  0.12702  0.94867  Biso   1.000  H
  H27      1.0000 0.50068  0.21720  0.91018  Biso   1.000  H
  C31      1.0000 0.50899  0.18693  0.80599  Biso   1.000  C
  C32      1.0000 0.12533  0.58458  0.20851  Biso   1.000  C
  C33      1.0000 0.08524  0.58633  0.36661  Biso   1.000  C
  C34      1.0000 0.16691  0.58123  0.05307  Biso   1.000  C
  C35      1.0000 0.80777  0.03714  0.36389  Biso   1.000  C
  H28      1.0000 0.63735  0.27271  0.39032  Biso   1.000  H
  H29      1.0000 0.68047  0.20184  0.47310  Biso   1.000  H
  C36      1.0000 0.53450  0.24008  0.51933  Biso   1.000  C
  H30      1.0000 0.39807  0.27052  0.53112  Biso   1.000  H
  H31      1.0000 0.45950  0.31539  0.42693  Biso   1.000  H
  C37      1.0000 0.83780  0.09241  0.82977  Biso   1.000  C
  H32      1.0000 0.69507  0.11161  0.71680  Biso   1.000  H
  H33      1.0000 0.72288  0.20214  0.67865  Biso   1.000  H
  C38      1.0000 0.57755  0.23222  0.72795  Biso   1.000  C
  H34      1.0000 0.51914  0.13022  0.79720  Biso   1.000  H
  H35      1.0000 0.44468  0.23044  0.80585  Biso   1.000  H
  H36      1.0000 0.18444  0.59026  0.18913  Biso   1.000  H
  N7       1.0000 0.16586  0.58024  0.35141  Biso   1.000  N
  H37      1.0000 0.03716  0.59465  0.42331  Biso   1.000  H
  N8       1.0000 0.15079  0.57080  0.99491  Biso   1.000  N
  H38      1.0000 0.22400  0.59022  0.03487  Biso   1.000  H
  H39      1.0000 0.79109  0.98869  0.42024  Biso   1.000  H
  C39      1.0000 0.90176  0.01456  0.29848  Biso   1.000  C
  H40      1.0000 0.53198  0.18709  0.57861  Biso   1.000  H
  H41      1.0000 0.52071  0.29613  0.53168  Biso   1.000  H
  H42      1.0000 0.81678  0.15103  0.83695  Biso   1.000  H
  C40      1.0000 0.93278  0.03012  0.82789  Biso   1.000  C
  H43      1.0000 0.56328  0.29249  0.73277  Biso   1.000  H
  H44      1.0000 0.57269  0.24549  0.66819  Biso   1.000  H
  C41      1.0000 0.18058  0.57994  0.42679  Biso   1.000  C
  C42      1.0000 0.22611  0.56287  0.90739  Biso   1.000  C
  C43      1.0000 0.96705  0.92532  0.32672  Biso   1.000  C
  C44      1.0000 0.92677  0.07403  0.21019  Biso   1.000  C
  C45      1.0000 0.96423  0.93880  0.82935  Biso   1.000  C
  C46      1.0000 0.99396  0.05943  0.82907  Biso   1.000  C
  C47      1.0000 0.19889  0.67175  0.39339  Biso   1.000  C
  H45      1.0000 0.12279  0.57819  0.48314  Biso   1.000  H
  C48      1.0000 0.26387  0.49534  0.45120  Biso   1.000  C
  C49      1.0000 0.18971  0.63419  0.82489  Biso   1.000  C
  H46      1.0000 0.27961  0.57482  0.90167  Biso   1.000  H
  C50      1.0000 0.25782  0.46428  0.90927  Biso   1.000  C
  C51      1.0000 0.05624  0.90006  0.26681  Biso   1.000  C
  H47      1.0000 0.94886  0.88260  0.38753  Biso   1.000  H
  C52      1.0000 0.01853  0.04994  0.14673  Biso   1.000  C
  H48      1.0000 0.88157  0.13296  0.19080  Biso   1.000  H
  C53      1.0000 0.05513  0.87793  0.83019  Biso   1.000  C
  H49      1.0000 0.92322  0.91750  0.82977  Biso   1.000  H
  C54      1.0000 0.08228  0.00127  0.82949  Biso   1.000  C
  H50      1.0000 0.97321  0.12099  0.82956  Biso   1.000  H
  N9       1.0000 0.11804  0.75356  0.37623  Biso   1.000  N
  H51      1.0000 0.25495  0.67522  0.33544  Biso   1.000  H
  C55      1.0000 0.21684  0.67164  0.47101  Biso   1.000  C
  H52      1.0000 0.25054  0.43736  0.47352  Biso   1.000  H
  H53      1.0000 0.32012  0.49504  0.39443  Biso   1.000  H
  C56      1.0000 0.28375  0.49631  0.52533  Biso   1.000  C
  N10      1.0000 0.16844  0.72674  0.82426  Biso   1.000  N
  H54      1.0000 0.13246  0.62722  0.83235  Biso   1.000  H
  C57      1.0000 0.26843  0.61984  0.73395  Biso   1.000  C
  H55      1.0000 0.20403  0.45219  0.91701  Biso   1.000  H
  H56      1.0000 0.27982  0.41936  0.96332  Biso   1.000  H
  C58      1.0000 0.33741  0.44899  0.81917  Biso   1.000  C
  C59      1.0000 0.12975  0.81033  0.29311  Biso   1.000  C
  C60      1.0000 0.08287  0.96215  0.17518  Biso   1.000  C
  C61      1.0000 0.04517  0.11535  0.05328  Biso   1.000  C
  C62      1.0000 0.08454  0.78314  0.83117  Biso   1.000  C
  C63      1.0000 0.11407  0.91089  0.82935  Biso   1.000  C
  C64      1.0000 0.14668  0.03177  0.83089  Biso   1.000  C
  H57      1.0000 0.22898  0.72975  0.45071  Biso   1.000  H
  H58      1.0000 0.16026  0.67031  0.52749  Biso   1.000  H
  C65      1.0000 0.30048  0.58721  0.49430  Biso   1.000  C
  H59      1.0000 0.34007  0.44212  0.53719  Biso   1.000  H
  H60      1.0000 0.22995  0.49059  0.58412  Biso   1.000  H
  H61      1.0000 0.24522  0.66364  0.68046  Biso   1.000  H
  H62      1.0000 0.32199  0.63331  0.72461  Biso   1.000  H
  C66      1.0000 0.30072  0.51876  0.73855  Biso   1.000  C
  H63      1.0000 0.39250  0.45900  0.81171  Biso   1.000  H
  H64      1.0000 0.35703  0.38422  0.82140  Biso   1.000  H
  H65      1.0000 0.18827  0.79437  0.24610  Biso   1.000  H
  H66      1.0000 0.14456  0.94394  0.13320  Biso   1.000  H
  H67      1.0000 0.99771  0.17185  0.03403  Biso   1.000  H
  N11      1.0000 0.12840  0.10067  0.99658  Biso   1.000  N
  H68      1.0000 0.03963  0.76279  0.83730  Biso   1.000  H
  H69      1.0000 0.17635  0.87123  0.82866  Biso   1.000  H
  H70      1.0000 0.20601  0.98752  0.83668  Biso   1.000  H
  N12      1.0000 0.12575  0.11508  0.82461  Biso   1.000  N
  H71      1.0000 0.31039  0.58832  0.54479  Biso   1.000  H
  H72      1.0000 0.35779  0.59013  0.43879  Biso   1.000  H
  H73      1.0000 0.24729  0.50631  0.74581  Biso   1.000  H
  H74      1.0000 0.35080  0.51034  0.67935  Biso   1.000  H
  C67      1.0000 0.14846  0.17439  0.91081  Biso   1.000  C
  C68      1.0000 0.19519  0.13609  0.82852  Biso   1.000  C
  C69      1.0000 0.21239  0.21072  0.91018  Biso   1.000  C
  H75      1.0000 0.08830  0.22669  0.90509  Biso   1.000  H
  H76      1.0000 0.25176  0.07907  0.83612  Biso   1.000  H
  C70      1.0000 0.22166  0.21492  0.73549  Biso   1.000  C
  H77      1.0000 0.17950  0.23750  0.96109  Biso   1.000  H
  H78      1.0000 0.26958  0.15790  0.92169  Biso   1.000  H
  C71      1.0000 0.23995  0.28421  0.81868  Biso   1.000  C
  H79      1.0000 0.25450  0.19073  0.68256  Biso   1.000  H
  H80      1.0000 0.16401  0.26791  0.72565  Biso   1.000  H
  C72      1.0000 0.28656  0.24902  0.73918  Biso   1.000  C
  H81      1.0000 0.18330  0.33929  0.80997  Biso   1.000  H
  H82      1.0000 0.28324  0.30462  0.81980  Biso   1.000  H
  H83      1.0000 0.34558  0.19661  0.74546  Biso   1.000  H
  H84      1.0000 0.30269  0.29965  0.68025  Biso   1.000  H
  C73      1.0000 0.53788  0.68924  0.64082  Biso   1.000  C
  N13      1.0000 0.45581  0.74210  0.65602  Biso   1.000  N
  H85      1.0000 0.58340  0.70933  0.58300  Biso   1.000  H
  C74      1.0000 0.56890  0.59598  0.70804  Biso   1.000  C
  C75      1.0000 0.43111  0.83122  0.58070  Biso   1.000  C
  C76      1.0000 0.66107  0.53493  0.67938  Biso   1.000  C
  C77      1.0000 0.50590  0.56757  0.79682  Biso   1.000  C
  C78      1.0000 0.36558  0.82780  0.55099  Biso   1.000  C
  C79      1.0000 0.38788  0.91229  0.61383  Biso   1.000  C
  H86      1.0000 0.48967  0.83712  0.52638  Biso   1.000  H
  H87      1.0000 0.70345  0.55420  0.61864  Biso   1.000  H
  C80      1.0000 0.68919  0.44381  0.74312  Biso   1.000  C
  C81      1.0000 0.53500  0.47727  0.85951  Biso   1.000  C
  H88      1.0000 0.44357  0.60899  0.81502  Biso   1.000  H
  H89      1.0000 0.30960  0.81690  0.60560  Biso   1.000  H
  H90      1.0000 0.39754  0.77482  0.52693  Biso   1.000  H
  C82      1.0000 0.33467  0.91909  0.47512  Biso   1.000  C
  N14      1.0000 0.45681  0.91700  0.63461  Biso   1.000  N
  H91      1.0000 0.33210  0.90457  0.67143  Biso   1.000  H
  C83      1.0000 0.35780  0.00489  0.53879  Biso   1.000  C
  C84      1.0000 0.62727  0.41768  0.83022  Biso   1.000  C
  C85      1.0000 0.78706  0.37933  0.71223  Biso   1.000  C
  C86      1.0000 0.46648  0.44895  0.95003  Biso   1.000  C
  H92      1.0000 0.38990  0.92711  0.41821  Biso   1.000  H
  H93      1.0000 0.28930  0.91605  0.45908  Biso   1.000  H
  C87      1.0000 0.29058  0.00014  0.50713  Biso   1.000  C
  C88      1.0000 0.43840  0.91150  0.71474  Biso   1.000  C
  H94      1.0000 0.41383  0.01653  0.48474  Biso   1.000  H
  H95      1.0000 0.32495  0.05721  0.56404  Biso   1.000  H
  H96      1.0000 0.64742  0.35708  0.87248  Biso   1.000  H
  N15      1.0000 0.84328  0.39829  0.63301  Biso   1.000  N
  H97      1.0000 0.80690  0.32007  0.75644  Biso   1.000  H
  H98      1.0000 0.40778  0.49507  0.96802  Biso   1.000  H
  N16      1.0000 0.48130  0.36668  0.00540  Biso   1.000  N
  H99      1.0000 0.23165  0.99533  0.55992  Biso   1.000  H
  H100     1.0000 0.27437  0.05839  0.45594  Biso   1.000  H
  H101     1.0000 0.38027  0.90358  0.75993  Biso   1.000  H
  C89      1.0000 0.50237  0.91642  0.74410  Biso   1.000  C
  C90      1.0000 0.93896  0.32731  0.61578  Biso   1.000  C
  C91      1.0000 0.40589  0.34764  0.08846  Biso   1.000  C
  C92      1.0000 0.59118  0.91751  0.68433  Biso   1.000  C
  C93      1.0000 0.47448  0.91821  0.83238  Biso   1.000  C
  H102     1.0000 0.94259  0.27189  0.67380  Biso   1.000  H
  C94      1.0000 0.95125  0.29855  0.53963  Biso   1.000  C
  C95      1.0000 0.00622  0.36804  0.58802  Biso   1.000  C
  H103     1.0000 0.34909  0.40538  0.08651  Biso   1.000  H
  C96      1.0000 0.38365  0.26757  0.09536  Biso   1.000  C
  C97      1.0000 0.43110  0.32066  0.17194  Biso   1.000  C
  C98      1.0000 0.65221  0.92008  0.71181  Biso   1.000  C
  H104     1.0000 0.61132  0.91650  0.62331  Biso   1.000  H
  H105     1.0000 0.41314  0.91780  0.87409  Biso   1.000  H
  C99      1.0000 0.53399  0.92036  0.86112  Biso   1.000  C
  H106     1.0000 0.93766  0.35473  0.48572  Biso   1.000  H
  H107     1.0000 0.90737  0.26502  0.56383  Biso   1.000  H
  C100     1.0000 0.05755  0.23155  0.50818  Biso   1.000  C
  N17      1.0000 0.99678  0.38983  0.66383  Biso   1.000  N
  H108     1.0000 0.99708  0.42723  0.53419  Biso   1.000  H
  C101     1.0000 0.11012  0.30034  0.55804  Biso   1.000  C
  H109     1.0000 0.37936  0.28307  0.03462  Biso   1.000  H
  H110     1.0000 0.43798  0.20934  0.10380  Biso   1.000  H
  C102     1.0000 0.29878  0.24717  0.16852  Biso   1.000  C
  N18      1.0000 0.44328  0.39827  0.16831  Biso   1.000  N
  C103     1.0000 0.34840  0.29516  0.26155  Biso   1.000  C
  H111     1.0000 0.49017  0.26535  0.17256  Biso   1.000  H
  C104     1.0000 0.62382  0.91962  0.80149  Biso   1.000  C
  C105     1.0000 0.74772  0.92340  0.64570  Biso   1.000  C
  C106     1.0000 0.50381  0.92216  0.95540  Biso   1.000  C
  C107     1.0000 0.12388  0.26780  0.48433  Biso   1.000  C
  H112     1.0000 0.06635  0.17132  0.55992  Biso   1.000  H
  H113     1.0000 0.06844  0.21815  0.45420  Biso   1.000  H
  C108     1.0000 0.98218  0.47464  0.64821  Biso   1.000  C
  H114     1.0000 0.15477  0.33336  0.53258  Biso   1.000  H
  H115     1.0000 0.12298  0.24541  0.61299  Biso   1.000  H
  H116     1.0000 0.29228  0.19365  0.16873  Biso   1.000  H
  H117     1.0000 0.24128  0.30246  0.16336  Biso   1.000  H
  C109     1.0000 0.32209  0.22196  0.25562  Biso   1.000  C
  C110     1.0000 0.52051  0.38665  0.16322  Biso   1.000  C
  H118     1.0000 0.29301  0.35253  0.26671  Biso   1.000  H
  H119     1.0000 0.36690  0.26698  0.31741  Biso   1.000  H
  H120     1.0000 0.66589  0.91876  0.82171  Biso   1.000  H
  N19      1.0000 0.79973  0.93459  0.66508  Biso   1.000  N
  H121     1.0000 0.76901  0.91649  0.58712  Biso   1.000  H
  H122     1.0000 0.54981  0.91389  0.97583  Biso   1.000  H
  N20      1.0000 0.42131  0.93404  0.00994  Biso   1.000  N
  H123     1.0000 0.12283  0.32158  0.42568  Biso   1.000  H
  H124     1.0000 0.18676  0.21951  0.47191  Biso   1.000  H
  H125     1.0000 0.97579  0.52009  0.59012  Biso   1.000  H
  C111     1.0000 0.97517  0.50349  0.71725  Biso   1.000  C
  H126     1.0000 0.37541  0.16211  0.26057  Biso   1.000  H
  H127     1.0000 0.26735  0.20982  0.31141  Biso   1.000  H
  C112     1.0000 0.54441  0.45485  0.16085  Biso   1.000  C
  H128     1.0000 0.56810  0.32783  0.16085  Biso   1.000  H
  C113     1.0000 0.89028  0.94252  0.59221  Biso   1.000  C
  C114     1.0000 0.39723  0.93868  0.09962  Biso   1.000  C
  C115     1.0000 0.97276  0.44261  0.80742  Biso   1.000  C
  C116     1.0000 0.97377  0.59322  0.69075  Biso   1.000  C
  C117     1.0000 0.48226  0.54226  0.16036  Biso   1.000  C
  C118     1.0000 0.63170  0.43464  0.16252  Biso   1.000  C
  H129     1.0000 0.89696  0.93434  0.53628  Biso   1.000  H
  C119     1.0000 0.96998  0.86989  0.62743  Biso   1.000  C
  C120     1.0000 0.89190  0.03933  0.56550  Biso   1.000  C
  H130     1.0000 0.45391  0.93736  0.10241  Biso   1.000  H
  C121     1.0000 0.37263  0.84983  0.17654  Biso   1.000  C
  C122     1.0000 0.31827  0.02587  0.11684  Biso   1.000  C
  H131     1.0000 0.97219  0.38146  0.82611  Biso   1.000  H
  C123     1.0000 0.97119  0.47028  0.86983  Biso   1.000  C
  C124     1.0000 0.96858  0.62478  0.75400  Biso   1.000  C
  H132     1.0000 0.97636  0.63423  0.62889  Biso   1.000  H
  C125     1.0000 0.50007  0.61607  0.16043  Biso   1.000  C
  H133     1.0000 0.42208  0.55685  0.15987  Biso   1.000  H
  C126     1.0000 0.65590  0.50436  0.16196  Biso   1.000  C
  H134     1.0000 0.67686  0.37393  0.16426  Biso   1.000  H
  N21      1.0000 0.97439  0.77590  0.64660  Biso   1.000  N
  H135     1.0000 0.96061  0.87528  0.68601  Biso   1.000  H
  C127     1.0000 0.06269  0.88340  0.55490  Biso   1.000  C
  H136     1.0000 0.84187  0.08742  0.53788  Biso   1.000  H
  H137     1.0000 0.87795  0.04979  0.62254  Biso   1.000  H
  C128     1.0000 0.98453  0.05084  0.49744  Biso   1.000  C
  N22      1.0000 0.44702  0.76514  0.16796  Biso   1.000  N
  H138     1.0000 0.31960  0.84943  0.16873  Biso   1.000  H
  C129     1.0000 0.33866  0.84920  0.27494  Biso   1.000  C
  H139     1.0000 0.26564  0.03577  0.10150  Biso   1.000  H
  H140     1.0000 0.34004  0.08054  0.07591  Biso   1.000  H
  C130     1.0000 0.28162  0.01696  0.22731  Biso   1.000  C
  C131     1.0000 0.97052  0.56137  0.84201  Biso   1.000  C
  C132     1.0000 0.97271  0.40318  0.96482  Biso   1.000  C
  C133     1.0000 0.96507  0.71996  0.72882  Biso   1.000  C
  C134     1.0000 0.43032  0.70421  0.16154  Biso   1.000  C
  C135     1.0000 0.58829  0.58937  0.16294  Biso   1.000  C
  C136     1.0000 0.74938  0.47768  0.16901  Biso   1.000  C
  H141     1.0000 0.07290  0.87663  0.49730  Biso   1.000  H
  H142     1.0000 0.11485  0.83462  0.57882  Biso   1.000  H
  C137     1.0000 0.06197  0.98070  0.53251  Biso   1.000  C
  H143     1.0000 0.99577  0.04605  0.43844  Biso   1.000  H
  H144     1.0000 0.98258  0.11405  0.48370  Biso   1.000  H
  H145     1.0000 0.31820  0.79410  0.31957  Biso   1.000  H
  H146     1.0000 0.39113  0.84355  0.28763  Biso   1.000  H
  C138     1.0000 0.26003  0.93505  0.28902  Biso   1.000  C
  H147     1.0000 0.33099  0.01805  0.23923  Biso   1.000  H
  H148     1.0000 0.22498  0.07186  0.23895  Biso   1.000  H
  H149     1.0000 0.97118  0.57978  0.88441  Biso   1.000  H
  H150     1.0000 0.96371  0.34580  0.98511  Biso   1.000  H
  N23      1.0000 0.98496  0.41966  0.01865  Biso   1.000  N
  H151     1.0000 0.95559  0.73989  0.77562  Biso   1.000  H
  H152     1.0000 0.37169  0.71887  0.15764  Biso   1.000  H
  H153     1.0000 0.60288  0.63352  0.16566  Biso   1.000  H
  N24      1.0000 0.81070  0.39903  0.17221  Biso   1.000  N
  H154     1.0000 0.76229  0.52334  0.17117  Biso   1.000  H
  H155     1.0000 0.05374  0.98744  0.58942  Biso   1.000  H
  H156     1.0000 0.12227  0.98911  0.48502  Biso   1.000  H
  H157     1.0000 0.20593  0.93742  0.28163  Biso   1.000  H
  H158     1.0000 0.24096  0.93219  0.35374  Biso   1.000  H
  C139     1.0000 0.98247  0.34558  0.11273  Biso   1.000  C
  C140     1.0000 0.89498  0.38464  0.18393  Biso   1.000  C
  H159     1.0000 0.98139  0.28817  0.11370  Biso   1.000  H
  C141     1.0000 0.06832  0.32224  0.13212  Biso   1.000  C
  H160     1.0000 0.89330  0.44513  0.17884  Biso   1.000  H
  C142     1.0000 0.88951  0.31471  0.28386  Biso   1.000  C
  H161     1.0000 0.07359  0.38054  0.12263  Biso   1.000  H
  H162     1.0000 0.12519  0.29188  0.08804  Biso   1.000  H
  C143     1.0000 0.06211  0.25417  0.23581  Biso   1.000  C
  H163     1.0000 0.88812  0.25570  0.29007  Biso   1.000  H
  H164     1.0000 0.83182  0.34173  0.32982  Biso   1.000  H
  C144     1.0000 0.97852  0.29510  0.30137  Biso   1.000  C
  H165     1.0000 0.06197  0.19384  0.24383  Biso   1.000  H
  H166     1.0000 0.11787  0.24123  0.24816  Biso   1.000  H
  H167     1.0000 0.97937  0.35453  0.29467  Biso   1.000  H
  H168     1.0000 0.97611  0.25209  0.36567  Biso   1.000  H
  Ne1      1.0000 0.91904  0.86951  0.13570  Biso   1.000  Ne
  He1      1.0000 0.85054  0.80357  0.33716  Biso   1.000  He
  He2      1.0000 0.84933  0.06376  0.06121  Biso   1.000  He
  He3      1.0000 0.12950  0.81612  0.05760  Biso   1.000  He
  He4      1.0000 0.87030  0.79961  0.06261  Biso   1.000  He
  Ar1      1.0000 0.92433  0.87508  0.11916  Biso   1.000  Ar
  Ne2      1.0000 0.67459  0.61966  0.87154  Biso   1.000  Ne
  He5      1.0000 0.73349  0.69356  0.93989  Biso   1.000  He
  He6      1.0000 0.75175  0.41579  0.93897  Biso   1.000  He
  He7      1.0000 0.47927  0.68396  0.93073  Biso   1.000  He
  He8      1.0000 0.74457  0.68767  0.67539  Biso   1.000  He
  Ar2      1.0000 0.67840  0.62373  0.86798  Biso   1.000  Ar
