data_image0
_cell_length_a       11.314
_cell_length_b       11.314
_cell_length_c       36.7
_cell_angle_alpha    90
_cell_angle_beta     90
_cell_angle_gamma    120

_symmetry_space_group_name_H-M    "P 1"
_symmetry_int_tables_number       1

loop_
  _symmetry_equiv_pos_as_xyz
  'x, y, z'

loop_
  _atom_site_label
  _atom_site_occupancy
  _atom_site_fract_x
  _atom_site_fract_y
  _atom_site_fract_z
  _atom_site_thermal_displace_type
  _atom_site_B_iso_or_equiv
  _atom_site_type_symbol
  O1       1.0000 0.33790  0.42426  0.47913  Biso   1.000  O
  C1       1.0000 0.33606  0.36843  0.44684  Biso   1.000  C
  C2       1.0000 0.33544  0.54786  0.47850  Biso   1.000  C
  N1       1.0000 0.33331  0.43151  0.41670  Biso   1.000  N
  N2       1.0000 0.33698  0.25219  0.44913  Biso   1.000  N
  C3       1.0000 0.45792  0.66890  0.47866  Biso   1.000  C
  C4       1.0000 0.21100  0.54204  0.47866  Biso   1.000  C
  C5       1.0000 0.33053  0.36568  0.38649  Biso   1.000  C
  C6       1.0000 0.33328  0.20024  0.41670  Biso   1.000  C
  C7       1.0000 0.45213  0.78759  0.47850  Biso   1.000  C
  H1       1.0000 0.54084  0.67033  0.47891  Biso   1.000  H
  C8       1.0000 0.21240  0.66451  0.47850  Biso   1.000  C
  H2       1.0000 0.12948  0.45906  0.47891  Biso   1.000  H
  O2       1.0000 0.32871  0.41967  0.35420  Biso   1.000  O
  N3       1.0000 0.32967  0.24851  0.38420  Biso   1.000  N
  Cl1      1.0000 0.33324  0.04725  0.41670  Biso   1.000  Cl
  O3       1.0000 0.57565  0.91353  0.47913  Biso   1.000  O
  C9       1.0000 0.33109  0.78892  0.47866  Biso   1.000  C
  O4       1.0000 0.08638  0.66206  0.47913  Biso   1.000  O
  C10      1.0000 0.33119  0.54571  0.35482  Biso   1.000  C
  C11      1.0000 0.63145  0.96752  0.44684  Biso   1.000  C
  H3       1.0000 0.32961  0.87046  0.47891  Biso   1.000  H
  C12      1.0000 0.03241  0.66390  0.44684  Biso   1.000  C
  C13      1.0000 0.20877  0.54428  0.35466  Biso   1.000  C
  C14      1.0000 0.45568  0.66441  0.35466  Biso   1.000  C
  N4       1.0000 0.56845  0.90180  0.41670  Biso   1.000  N
  N5       1.0000 0.74784  0.08469  0.44913  Biso   1.000  N
  N6       1.0000 0.09822  0.66665  0.41670  Biso   1.000  N
  N7       1.0000 0.91528  0.66298  0.44913  Biso   1.000  N
  C15      1.0000 0.21455  0.66880  0.35482  Biso   1.000  C
  H4       1.0000 0.12580  0.46284  0.35444  Biso   1.000  H
  C16      1.0000 0.45424  0.78545  0.35482  Biso   1.000  C
  H5       1.0000 0.53711  0.66288  0.35444  Biso   1.000  H
  C17      1.0000 0.63423  0.96477  0.38649  Biso   1.000  C
  C18      1.0000 0.79968  0.13286  0.41670  Biso   1.000  C
  C19      1.0000 0.03516  0.66941  0.38649  Biso   1.000  C
  C20      1.0000 0.86700  0.66665  0.41670  Biso   1.000  C
  O5       1.0000 0.09097  0.67124  0.35420  Biso   1.000  O
  C21      1.0000 0.33557  0.79116  0.35466  Biso   1.000  C
  O6       1.0000 0.58030  0.90904  0.35420  Biso   1.000  O
  N8       1.0000 0.75140  0.08101  0.38420  Biso   1.000  N
  Cl2      1.0000 0.95277  0.28595  0.41670  Biso   1.000  Cl
  N9       1.0000 0.91895  0.67033  0.38420  Biso   1.000  N
  Cl3      1.0000 0.71400  0.66665  0.41670  Biso   1.000  Cl
  H6       1.0000 0.33707  0.87424  0.35444  Biso   1.000  H
  C22      1.0000 0.54207  0.33108  0.52134  Biso   1.000  C
  C23      1.0000 0.66446  0.45212  0.52150  Biso   1.000  C
  C24      1.0000 0.54786  0.21239  0.52150  Biso   1.000  C
  H7       1.0000 0.45910  0.32955  0.52109  Biso   1.000  H
  O7       1.0000 0.66209  0.57572  0.52087  Biso   1.000  O
  C25      1.0000 0.78893  0.45784  0.52134  Biso   1.000  C
  O8       1.0000 0.42434  0.08644  0.52087  Biso   1.000  O
  C26      1.0000 0.66885  0.21096  0.52134  Biso   1.000  C
  C27      1.0000 0.66387  0.63144  0.55316  Biso   1.000  C
  C28      1.0000 0.78759  0.33547  0.52150  Biso   1.000  C
  H8       1.0000 0.87051  0.54092  0.52109  Biso   1.000  H
  C29      1.0000 0.36848  0.03235  0.55316  Biso   1.000  C
  H9       1.0000 0.67038  0.12951  0.52109  Biso   1.000  H
  N10      1.0000 0.66301  0.74779  0.55087  Biso   1.000  N
  N11      1.0000 0.66668  0.56847  0.58330  Biso   1.000  N
  O9       1.0000 0.91361  0.33792  0.52087  Biso   1.000  O
  N12      1.0000 0.43145  0.09818  0.58330  Biso   1.000  N
  N13      1.0000 0.25224  0.91529  0.55087  Biso   1.000  N
  C30      1.0000 0.66666  0.79964  0.58330  Biso   1.000  C
  C31      1.0000 0.66941  0.63420  0.61351  Biso   1.000  C
  C32      1.0000 0.96758  0.33608  0.55316  Biso   1.000  C
  C33      1.0000 0.36576  0.03521  0.61351  Biso   1.000  C
  C34      1.0000 0.20031  0.86712  0.58330  Biso   1.000  C
  Cl4      1.0000 0.66666  0.95272  0.58330  Biso   1.000  Cl
  N14      1.0000 0.67032  0.75146  0.61580  Biso   1.000  N
  O10      1.0000 0.67122  0.58021  0.64580  Biso   1.000  O
  N15      1.0000 0.90177  0.33333  0.58330  Biso   1.000  N
  N16      1.0000 0.08471  0.33700  0.55087  Biso   1.000  N
  O11      1.0000 0.41969  0.09093  0.64580  Biso   1.000  O
  N17      1.0000 0.24859  0.91896  0.61580  Biso   1.000  N
  Cl5      1.0000 0.04722  0.71403  0.58330  Biso   1.000  Cl
  C35      1.0000 0.66880  0.45427  0.64518  Biso   1.000  C
  C36      1.0000 0.96483  0.33057  0.61351  Biso   1.000  C
  C37      1.0000 0.13290  0.33333  0.58330  Biso   1.000  C
  C38      1.0000 0.54566  0.21453  0.64518  Biso   1.000  C
  C39      1.0000 0.79122  0.45570  0.64534  Biso   1.000  C
  C40      1.0000 0.54431  0.33557  0.64534  Biso   1.000  C
  O12      1.0000 0.90902  0.32873  0.64580  Biso   1.000  O
  N18      1.0000 0.08104  0.32965  0.61580  Biso   1.000  N
  Cl6      1.0000 0.28598  0.33333  0.58330  Biso   1.000  Cl
  C41      1.0000 0.66437  0.20871  0.64534  Biso   1.000  C
  C42      1.0000 0.78544  0.33118  0.64518  Biso   1.000  C
  H10      1.0000 0.87419  0.53714  0.64556  Biso   1.000  H
  H11      1.0000 0.46288  0.33710  0.64556  Biso   1.000  H
  H12      1.0000 0.66292  0.12574  0.64556  Biso   1.000  H
  O13      1.0000 0.24697  0.24239  0.68755  Biso   1.000  O
  C43      1.0000 0.30091  0.29812  0.71981  Biso   1.000  C
  C44      1.0000 0.12092  0.11880  0.68817  Biso   1.000  C
  N19      1.0000 0.41812  0.41446  0.71752  Biso   1.000  N
  N20      1.0000 0.23513  0.23514  0.75003  Biso   1.000  N
  C45      1.0000 0.00224  0.12451  0.68798  Biso   1.000  C
  C46      1.0000 0.12240  0.99786  0.68798  Biso   1.000  C
  C47      1.0000 0.46632  0.46631  0.75003  Biso   1.000  C
  C48      1.0000 0.29813  0.30087  0.78019  Biso   1.000  C
  H13      1.0000 0.00374  0.20759  0.68777  Biso   1.000  H
  C49      1.0000 0.88131  0.00214  0.68817  Biso   1.000  C
  C50      1.0000 0.99783  0.87916  0.68817  Biso   1.000  C
  H14      1.0000 0.20375  0.99633  0.68777  Biso   1.000  H
  Cl7      1.0000 0.61935  0.61930  0.75003  Biso   1.000  Cl
  N21      1.0000 0.41448  0.41814  0.78248  Biso   1.000  N
  O14      1.0000 0.24232  0.24688  0.81245  Biso   1.000  O
  C51      1.0000 0.87541  0.87773  0.68798  Biso   1.000  C
  O15      1.0000 0.75773  0.00459  0.68755  Biso   1.000  O
  O16      1.0000 0.99544  0.75312  0.68755  Biso   1.000  O
  C52      1.0000 0.11881  0.12094  0.81183  Biso   1.000  C
  H15      1.0000 0.79243  0.79629  0.68777  Biso   1.000  H
  C53      1.0000 0.70193  0.00276  0.71981  Biso   1.000  C
  C54      1.0000 0.99726  0.69913  0.71981  Biso   1.000  C
  C55      1.0000 0.12460  0.00225  0.81202  Biso   1.000  C
  C56      1.0000 0.99781  0.12237  0.81202  Biso   1.000  C
  N22      1.0000 0.58563  0.00367  0.71752  Biso   1.000  N
  N23      1.0000 0.76489  0.00000  0.75003  Biso   1.000  N
  N24      1.0000 0.99648  0.58196  0.71752  Biso   1.000  N
  N25      1.0000 0.00012  0.76496  0.75003  Biso   1.000  N
  H16      1.0000 0.20756  0.00378  0.81223  Biso   1.000  H
  C57      1.0000 0.00226  0.88130  0.81183  Biso   1.000  C
  C58      1.0000 0.87922  0.99796  0.81183  Biso   1.000  C
  H17      1.0000 0.99628  0.20381  0.81223  Biso   1.000  H
  C59      1.0000 0.53368  0.00000  0.75003  Biso   1.000  C
  C60      1.0000 0.69913  0.99735  0.78019  Biso   1.000  C
  C61      1.0000 0.00001  0.53369  0.75003  Biso   1.000  C
  C62      1.0000 0.00279  0.70188  0.78019  Biso   1.000  C
  C63      1.0000 0.87773  0.87549  0.81202  Biso   1.000  C
  O17      1.0000 0.00463  0.75771  0.81245  Biso   1.000  O
  O18      1.0000 0.75310  0.99551  0.81245  Biso   1.000  O
  N26      1.0000 0.58192  0.99643  0.78248  Biso   1.000  N
  Cl8      1.0000 0.38068  0.00000  0.75003  Biso   1.000  Cl
  Cl9      1.0000 0.99997  0.38070  0.75003  Biso   1.000  Cl
  N27      1.0000 0.00362  0.58564  0.78248  Biso   1.000  N
  H18      1.0000 0.79629  0.79251  0.81223  Biso   1.000  H
  C64      1.0000 0.12456  0.12237  0.31202  Biso   1.000  C
  C65      1.0000 0.00214  0.12094  0.31183  Biso   1.000  C
  H19      1.0000 0.20753  0.20381  0.31223  Biso   1.000  H
  C66      1.0000 0.11874  0.99796  0.31183  Biso   1.000  C
  O19      1.0000 0.00456  0.24688  0.31245  Biso   1.000  O
  C67      1.0000 0.87774  0.00225  0.31202  Biso   1.000  C
  C68      1.0000 0.99776  0.87549  0.31202  Biso   1.000  C
  O20      1.0000 0.24241  0.99551  0.31245  Biso   1.000  O
  C69      1.0000 0.00274  0.30087  0.28019  Biso   1.000  C
  C70      1.0000 0.87905  0.88130  0.31183  Biso   1.000  C
  H20      1.0000 0.79621  0.00378  0.31223  Biso   1.000  H
  H21      1.0000 0.99640  0.79251  0.31223  Biso   1.000  H
  C71      1.0000 0.29821  0.99735  0.28019  Biso   1.000  C
  N28      1.0000 0.00366  0.41814  0.28248  Biso   1.000  N
  N29      1.0000 0.00002  0.23514  0.24997  Biso   1.000  N
  O21      1.0000 0.75308  0.75771  0.31245  Biso   1.000  O
  N30      1.0000 0.41451  0.99643  0.28248  Biso   1.000  N
  N31      1.0000 0.23511  0.00000  0.24997  Biso   1.000  N
  C72      1.0000 0.99999  0.46631  0.24997  Biso   1.000  C
  C73      1.0000 0.99730  0.29812  0.21981  Biso   1.000  C
  C74      1.0000 0.69909  0.70188  0.28019  Biso   1.000  C
  C75      1.0000 0.46632  0.00000  0.24997  Biso   1.000  C
  C76      1.0000 0.30092  0.00276  0.21981  Biso   1.000  C
  Cl10     1.0000 0.00008  0.61940  0.24997  Biso   1.000  Cl
  N32      1.0000 0.99634  0.41446  0.21752  Biso   1.000  N
  O22      1.0000 0.99551  0.24239  0.18755  Biso   1.000  O
  N33      1.0000 0.58202  0.58564  0.28248  Biso   1.000  N
  N34      1.0000 0.76484  0.76496  0.24997  Biso   1.000  N
  N35      1.0000 0.41814  0.00367  0.21752  Biso   1.000  N
  Cl11     1.0000 0.61941  0.00000  0.24997  Biso   1.000  Cl
  O23      1.0000 0.24695  0.00459  0.18755  Biso   1.000  O
  C77      1.0000 0.99788  0.11880  0.18817  Biso   1.000  C
  C78      1.0000 0.53365  0.53379  0.24997  Biso   1.000  C
  C79      1.0000 0.70187  0.69913  0.21981  Biso   1.000  C
  C80      1.0000 0.12092  0.00214  0.18817  Biso   1.000  C
  C81      1.0000 0.12227  0.12451  0.18798  Biso   1.000  C
  C82      1.0000 0.87545  0.99786  0.18798  Biso   1.000  C
  Cl12     1.0000 0.38074  0.38070  0.24997  Biso   1.000  Cl
  N36      1.0000 0.58557  0.58196  0.21752  Biso   1.000  N
  O24      1.0000 0.75768  0.75312  0.18755  Biso   1.000  O
  C83      1.0000 0.00233  0.87773  0.18798  Biso   1.000  C
  H22      1.0000 0.20385  0.20759  0.18777  Biso   1.000  H
  C84      1.0000 0.88133  0.87916  0.18817  Biso   1.000  C
  H23      1.0000 0.79258  0.99633  0.18777  Biso   1.000  H
  H24      1.0000 0.00385  0.79629  0.18777  Biso   1.000  H
  O25      1.0000 0.41971  0.32873  0.14580  Biso   1.000  O
  C85      1.0000 0.36574  0.33057  0.11351  Biso   1.000  C
  C86      1.0000 0.54574  0.33118  0.14518  Biso   1.000  C
  N37      1.0000 0.24853  0.32965  0.11580  Biso   1.000  N
  N38      1.0000 0.43147  0.33333  0.08330  Biso   1.000  N
  C87      1.0000 0.54425  0.20871  0.14534  Biso   1.000  C
  C88      1.0000 0.66439  0.45570  0.14534  Biso   1.000  C
  C89      1.0000 0.20034  0.33333  0.08330  Biso   1.000  C
  C90      1.0000 0.36850  0.33608  0.05316  Biso   1.000  C
  C91      1.0000 0.66878  0.21453  0.14518  Biso   1.000  C
  H25      1.0000 0.46282  0.12574  0.14556  Biso   1.000  H
  C92      1.0000 0.78538  0.45427  0.14518  Biso   1.000  C
  H26      1.0000 0.66286  0.53714  0.14556  Biso   1.000  H
  Cl13     1.0000 0.04725  0.33333  0.08330  Biso   1.000  Cl
  N39      1.0000 0.25220  0.33700  0.05087  Biso   1.000  N
  O26      1.0000 0.42431  0.33792  0.02087  Biso   1.000  O
  O27      1.0000 0.67115  0.09093  0.14580  Biso   1.000  O
  C93      1.0000 0.79117  0.33557  0.14534  Biso   1.000  C
  O28      1.0000 0.90898  0.58021  0.14580  Biso   1.000  O
  C94      1.0000 0.54788  0.33547  0.02150  Biso   1.000  C
  C95      1.0000 0.66945  0.03521  0.11351  Biso   1.000  C
  H27      1.0000 0.87423  0.33710  0.14556  Biso   1.000  H
  C96      1.0000 0.96479  0.63420  0.11351  Biso   1.000  C
  C97      1.0000 0.66882  0.45784  0.02134  Biso   1.000  C
  C98      1.0000 0.54202  0.21096  0.02134  Biso   1.000  C
  N40      1.0000 0.66664  0.09818  0.08330  Biso   1.000  N
  N41      1.0000 0.67037  0.91896  0.11580  Biso   1.000  N
  N42      1.0000 0.90179  0.56847  0.08330  Biso   1.000  N
  N43      1.0000 0.08105  0.75146  0.11580  Biso   1.000  N
  C99      1.0000 0.78758  0.45212  0.02150  Biso   1.000  C
  H28      1.0000 0.67040  0.54092  0.02109  Biso   1.000  H
  C100     1.0000 0.66444  0.21239  0.02150  Biso   1.000  C
  H29      1.0000 0.45905  0.12951  0.02109  Biso   1.000  H
  C101     1.0000 0.66387  0.03235  0.05316  Biso   1.000  C
  C102     1.0000 0.66663  0.86712  0.08330  Biso   1.000  C
  C103     1.0000 0.96757  0.63144  0.05316  Biso   1.000  C
  C104     1.0000 0.13289  0.79964  0.08330  Biso   1.000  C
  O29      1.0000 0.91354  0.57572  0.02087  Biso   1.000  O
  C105     1.0000 0.78893  0.33108  0.02134  Biso   1.000  C
  O30      1.0000 0.66210  0.08644  0.02087  Biso   1.000  O
  N44      1.0000 0.66305  0.91529  0.05087  Biso   1.000  N
  Cl14     1.0000 0.66672  0.71403  0.08330  Biso   1.000  Cl
  N45      1.0000 0.08470  0.74779  0.05087  Biso   1.000  N
  Cl15     1.0000 0.28598  0.95272  0.08330  Biso   1.000  Cl
  H30      1.0000 0.87045  0.32955  0.02109  Biso   1.000  H
  C106     1.0000 0.33551  0.54428  0.85466  Biso   1.000  C
  C107     1.0000 0.45425  0.66880  0.85482  Biso   1.000  C
  C108     1.0000 0.21452  0.54571  0.85482  Biso   1.000  C
  H31      1.0000 0.33704  0.46284  0.85444  Biso   1.000  H
  O31      1.0000 0.58028  0.67124  0.85420  Biso   1.000  O
  C109     1.0000 0.45560  0.79116  0.85466  Biso   1.000  C
  O32      1.0000 0.09095  0.41967  0.85420  Biso   1.000  O
  C110     1.0000 0.20873  0.66441  0.85466  Biso   1.000  C
  C111     1.0000 0.63424  0.66941  0.88649  Biso   1.000  C
  C112     1.0000 0.33121  0.78545  0.85482  Biso   1.000  C
  H32      1.0000 0.53717  0.87424  0.85444  Biso   1.000  H
  C113     1.0000 0.03515  0.36568  0.88649  Biso   1.000  C
  H33      1.0000 0.12576  0.66288  0.85444  Biso   1.000  H
  N46      1.0000 0.75146  0.67033  0.88420  Biso   1.000  N
  N47      1.0000 0.56843  0.66665  0.91670  Biso   1.000  N
  O33      1.0000 0.32875  0.90904  0.85420  Biso   1.000  O
  N48      1.0000 0.09820  0.43151  0.91670  Biso   1.000  N
  N49      1.0000 0.91894  0.24851  0.88420  Biso   1.000  N
  C114     1.0000 0.79965  0.66665  0.91670  Biso   1.000  C
  C115     1.0000 0.63149  0.66390  0.94684  Biso   1.000  C
  C116     1.0000 0.33054  0.96477  0.88649  Biso   1.000  C
  C117     1.0000 0.03237  0.36843  0.94684  Biso   1.000  C
  C118     1.0000 0.86705  0.20024  0.91670  Biso   1.000  C
  Cl16     1.0000 0.95265  0.66665  0.91670  Biso   1.000  Cl
  N50      1.0000 0.74779  0.66298  0.94913  Biso   1.000  N
  O34      1.0000 0.57568  0.66206  0.97913  Biso   1.000  O
  N51      1.0000 0.33335  0.90180  0.91670  Biso   1.000  N
  N52      1.0000 0.32971  0.08101  0.88420  Biso   1.000  N
  O35      1.0000 0.08636  0.42426  0.97913  Biso   1.000  O
  N53      1.0000 0.91521  0.25219  0.94913  Biso   1.000  N
  Cl17     1.0000 0.71401  0.04725  0.91670  Biso   1.000  Cl
  C119     1.0000 0.45211  0.66451  0.97850  Biso   1.000  C
  C120     1.0000 0.33607  0.96752  0.94684  Biso   1.000  C
  C121     1.0000 0.33318  0.13286  0.91670  Biso   1.000  C
  C122     1.0000 0.21241  0.54786  0.97850  Biso   1.000  C
  C123     1.0000 0.33103  0.54204  0.97866  Biso   1.000  C
  C124     1.0000 0.45783  0.78892  0.97866  Biso   1.000  C
  O36      1.0000 0.33789  0.91353  0.97913  Biso   1.000  O
  N54      1.0000 0.33693  0.08469  0.94913  Biso   1.000  N
  Cl18     1.0000 0.33336  0.28595  0.91670  Biso   1.000  Cl
  C125     1.0000 0.21097  0.66890  0.97866  Biso   1.000  C
  H34      1.0000 0.32958  0.45906  0.97891  Biso   1.000  H
  C126     1.0000 0.33546  0.78759  0.97850  Biso   1.000  C
  H35      1.0000 0.54085  0.87046  0.97891  Biso   1.000  H
  H36      1.0000 0.12949  0.67033  0.97891  Biso   1.000  H
