data_image0
_cell_length_a       23.483
_cell_length_b       16.693
_cell_length_c       13.011
_cell_angle_alpha    90
_cell_angle_beta     117.1
_cell_angle_gamma    90

_symmetry_space_group_name_H-M    "P 1"
_symmetry_int_tables_number       1

loop_
  _symmetry_equiv_pos_as_xyz
  'x, y, z'

loop_
  _atom_site_label
  _atom_site_occupancy
  _atom_site_fract_x
  _atom_site_fract_y
  _atom_site_fract_z
  _atom_site_thermal_displace_type
  _atom_site_B_iso_or_equiv
  _atom_site_type_symbol
  C1       1.0000 0.31995  0.13569  0.14971  Biso   1.000  C
  C2       1.0000 0.25608  0.13545  0.12139  Biso   1.000  C
  C3       1.0000 0.33578  0.13628  0.05992  Biso   1.000  C
  H1       1.0000 0.35191  0.13551  0.22793  Biso   1.000  H
  O1       1.0000 0.23908  0.13736  0.21265  Biso   1.000  O
  C4       1.0000 0.20829  0.13503  0.00932  Biso   1.000  C
  O2       1.0000 0.40110  0.13760  0.08573  Biso   1.000  O
  C5       1.0000 0.29041  0.13700  0.94647  Biso   1.000  C
  C6       1.0000 0.23785  0.06578  0.26022  Biso   1.000  C
  C7       1.0000 0.22723  0.13575  0.92359  Biso   1.000  C
  H2       1.0000 0.16439  0.13431  0.99197  Biso   1.000  H
  C8       1.0000 0.43008  0.06614  0.09998  Biso   1.000  C
  H3       1.0000 0.30230  0.13838  0.88578  Biso   1.000  H
  N1       1.0000 0.24383  0.00000  0.20919  Biso   1.000  N
  N2       1.0000 0.23033  0.07159  0.35579  Biso   1.000  N
  O3       1.0000 0.18029  0.13742  0.80712  Biso   1.000  O
  N3       1.0000 0.39568  0.00000  0.08331  Biso   1.000  N
  N4       1.0000 0.49216  0.07123  0.12812  Biso   1.000  N
  C9       1.0000 0.23785  0.93422  0.26022  Biso   1.000  C
  C10      1.0000 0.22810  0.00000  0.39672  Biso   1.000  C
  C11      1.0000 0.16135  0.06590  0.75368  Biso   1.000  C
  C12      1.0000 0.43008  0.93386  0.09998  Biso   1.000  C
  C13      1.0000 0.51820  0.00000  0.13952  Biso   1.000  C
  O4       1.0000 0.23908  0.86264  0.21265  Biso   1.000  O
  N5       1.0000 0.23033  0.92841  0.35579  Biso   1.000  N
  Cl1      1.0000 0.22168  0.00000  0.52415  Biso   1.000  Cl
  N6       1.0000 0.11994  0.07111  0.64308  Biso   1.000  N
  N7       1.0000 0.18606  0.00000  0.81464  Biso   1.000  N
  O5       1.0000 0.40110  0.86240  0.08573  Biso   1.000  O
  N8       1.0000 0.49216  0.92877  0.12812  Biso   1.000  N
  Cl2      1.0000 0.59873  0.00000  0.17241  Biso   1.000  Cl
  C14      1.0000 0.25608  0.86455  0.12139  Biso   1.000  C
  C15      1.0000 0.10298  0.00000  0.59396  Biso   1.000  C
  C16      1.0000 0.16135  0.93410  0.75368  Biso   1.000  C
  C17      1.0000 0.33578  0.86372  0.05992  Biso   1.000  C
  C18      1.0000 0.31995  0.86431  0.14971  Biso   1.000  C
  C19      1.0000 0.20829  0.86497  0.00932  Biso   1.000  C
  N9       1.0000 0.11994  0.92889  0.64308  Biso   1.000  N
  Cl3      1.0000 0.05344  0.00000  0.44710  Biso   1.000  Cl
  O6       1.0000 0.18029  0.86258  0.80712  Biso   1.000  O
  C20      1.0000 0.29041  0.86300  0.94647  Biso   1.000  C
  H4       1.0000 0.35191  0.86449  0.22793  Biso   1.000  H
  C21      1.0000 0.22723  0.86425  0.92359  Biso   1.000  C
  H5       1.0000 0.16439  0.86569  0.99197  Biso   1.000  H
  H6       1.0000 0.30230  0.86162  0.88578  Biso   1.000  H
  N10      1.0000 0.73035  0.42844  0.35579  Biso   1.000  N
  C22      1.0000 0.73787  0.43425  0.26022  Biso   1.000  C
  C23      1.0000 0.72812  0.50003  0.39672  Biso   1.000  C
  O7       1.0000 0.73910  0.36261  0.21265  Biso   1.000  O
  N11      1.0000 0.74385  0.50003  0.20919  Biso   1.000  N
  Cl4      1.0000 0.72166  0.50003  0.52415  Biso   1.000  Cl
  N12      1.0000 0.73035  0.57156  0.35579  Biso   1.000  N
  C24      1.0000 0.75606  0.36452  0.12139  Biso   1.000  C
  C25      1.0000 0.73787  0.56575  0.26022  Biso   1.000  C
  C26      1.0000 0.81993  0.36428  0.14971  Biso   1.000  C
  C27      1.0000 0.70827  0.36494  0.00932  Biso   1.000  C
  O8       1.0000 0.73910  0.63739  0.21265  Biso   1.000  O
  C28      1.0000 0.83576  0.36375  0.05992  Biso   1.000  C
  H7       1.0000 0.85189  0.36452  0.22793  Biso   1.000  H
  C29      1.0000 0.72725  0.36422  0.92359  Biso   1.000  C
  H8       1.0000 0.66437  0.36572  0.99197  Biso   1.000  H
  C30      1.0000 0.75606  0.63548  0.12139  Biso   1.000  C
  O9       1.0000 0.90108  0.36243  0.08573  Biso   1.000  O
  C31      1.0000 0.79039  0.36297  0.94647  Biso   1.000  C
  O10      1.0000 0.68031  0.36261  0.80712  Biso   1.000  O
  C32      1.0000 0.81993  0.63572  0.14971  Biso   1.000  C
  C33      1.0000 0.70827  0.63506  0.00932  Biso   1.000  C
  C34      1.0000 0.93006  0.43389  0.09998  Biso   1.000  C
  H9       1.0000 0.80228  0.36159  0.88578  Biso   1.000  H
  C35      1.0000 0.66133  0.43413  0.75368  Biso   1.000  C
  C36      1.0000 0.83576  0.63625  0.05992  Biso   1.000  C
  H10      1.0000 0.85189  0.63548  0.22793  Biso   1.000  H
  C37      1.0000 0.72725  0.63578  0.92359  Biso   1.000  C
  H11      1.0000 0.66437  0.63428  0.99197  Biso   1.000  H
  N13      1.0000 0.89566  0.50003  0.08331  Biso   1.000  N
  N14      1.0000 0.99214  0.42874  0.12812  Biso   1.000  N
  N15      1.0000 0.61992  0.42886  0.64308  Biso   1.000  N
  N16      1.0000 0.68608  0.50003  0.81464  Biso   1.000  N
  O11      1.0000 0.90108  0.63757  0.08573  Biso   1.000  O
  C38      1.0000 0.79039  0.63703  0.94647  Biso   1.000  C
  O12      1.0000 0.68031  0.63739  0.80712  Biso   1.000  O
  C39      1.0000 0.93006  0.56611  0.09998  Biso   1.000  C
  C40      1.0000 0.01818  0.50003  0.13952  Biso   1.000  C
  C41      1.0000 0.60300  0.50003  0.59396  Biso   1.000  C
  C42      1.0000 0.66133  0.56587  0.75368  Biso   1.000  C
  H12      1.0000 0.80228  0.63841  0.88578  Biso   1.000  H
  N17      1.0000 0.99214  0.57126  0.12812  Biso   1.000  N
  Cl5      1.0000 0.09871  0.50003  0.17241  Biso   1.000  Cl
  Cl6      1.0000 0.55342  0.50003  0.44710  Biso   1.000  Cl
  N18      1.0000 0.61992  0.57114  0.64308  Biso   1.000  N
  N19      1.0000 0.26964  0.42844  0.64416  Biso   1.000  N
  C43      1.0000 0.26215  0.43425  0.73982  Biso   1.000  C
  C44      1.0000 0.27190  0.50003  0.60332  Biso   1.000  C
  O13      1.0000 0.26091  0.36261  0.78739  Biso   1.000  O
  N20      1.0000 0.25614  0.50003  0.79076  Biso   1.000  N
  Cl7      1.0000 0.27833  0.50003  0.47580  Biso   1.000  Cl
  N21      1.0000 0.26964  0.57156  0.64416  Biso   1.000  N
  C45      1.0000 0.24389  0.36452  0.87856  Biso   1.000  C
  C46      1.0000 0.26215  0.56575  0.73982  Biso   1.000  C
  C47      1.0000 0.18009  0.36428  0.85033  Biso   1.000  C
  C48      1.0000 0.29170  0.36494  0.99071  Biso   1.000  C
  O14      1.0000 0.26091  0.63739  0.78739  Biso   1.000  O
  C49      1.0000 0.16425  0.36375  0.94012  Biso   1.000  C
  H13      1.0000 0.14812  0.36452  0.77211  Biso   1.000  H
  C50      1.0000 0.27276  0.36422  0.07645  Biso   1.000  C
  H14      1.0000 0.33560  0.36572  0.00807  Biso   1.000  H
  C51      1.0000 0.24389  0.63548  0.87856  Biso   1.000  C
  O15      1.0000 0.09891  0.36243  0.91422  Biso   1.000  O
  C52      1.0000 0.20962  0.36297  0.05357  Biso   1.000  C
  O16      1.0000 0.31970  0.36261  0.19291  Biso   1.000  O
  C53      1.0000 0.18009  0.63572  0.85033  Biso   1.000  C
  C54      1.0000 0.29170  0.63506  0.99071  Biso   1.000  C
  C55      1.0000 0.06993  0.43389  0.89997  Biso   1.000  C
  H15      1.0000 0.19773  0.36159  0.11426  Biso   1.000  H
  C56      1.0000 0.33864  0.43413  0.24636  Biso   1.000  C
  C57      1.0000 0.16425  0.63625  0.94012  Biso   1.000  C
  H16      1.0000 0.14812  0.63548  0.77211  Biso   1.000  H
  C58      1.0000 0.27276  0.63578  0.07645  Biso   1.000  C
  H17      1.0000 0.33560  0.63428  0.00807  Biso   1.000  H
  N22      1.0000 0.10435  0.50003  0.91672  Biso   1.000  N
  N23      1.0000 0.00787  0.42874  0.87191  Biso   1.000  N
  N24      1.0000 0.38010  0.42886  0.35695  Biso   1.000  N
  N25      1.0000 0.31391  0.50003  0.18532  Biso   1.000  N
  O17      1.0000 0.09891  0.63757  0.91422  Biso   1.000  O
  C59      1.0000 0.20962  0.63703  0.05357  Biso   1.000  C
  O18      1.0000 0.31970  0.63739  0.19291  Biso   1.000  O
  C60      1.0000 0.06993  0.56611  0.89997  Biso   1.000  C
  C61      1.0000 0.98183  0.50003  0.86052  Biso   1.000  C
  C62      1.0000 0.39701  0.50003  0.40608  Biso   1.000  C
  C63      1.0000 0.33864  0.56587  0.24636  Biso   1.000  C
  H18      1.0000 0.19773  0.63841  0.11426  Biso   1.000  H
  N26      1.0000 0.00787  0.57126  0.87191  Biso   1.000  N
  Cl8      1.0000 0.90131  0.50003  0.82762  Biso   1.000  Cl
  Cl9      1.0000 0.44660  0.50003  0.55294  Biso   1.000  Cl
  N27      1.0000 0.38010  0.57114  0.35695  Biso   1.000  N
  Ne1      1.0000 0.27870  0.00000  0.03936  Biso   1.000  Ne
  He1      1.0000 0.32369  1.00000  0.17300  Biso   1.000  He
  He2      1.0000 0.20913  0.00000  0.02787  Biso   1.000  He
  He3      1.0000 0.28533  1.00000  0.93662  Biso   1.000  He
  Ar1      1.0000 0.27870  0.00000  0.03936  Biso   1.000  Ar
  Ne2      1.0000 0.22131  0.50001  0.96065  Biso   1.000  Ne
  He4      1.0000 0.19923  0.50000  0.05965  Biso   1.000  He
  He5      1.0000 0.29171  0.50000  0.97236  Biso   1.000  He
  He6      1.0000 0.18311  0.50000  0.84371  Biso   1.000  He
  Ar2      1.0000 0.22645  0.50000  0.96532  Biso   1.000  Ar
  Ne3      1.0000 0.77869  0.50001  0.03936  Biso   1.000  Ne
  He7      1.0000 0.81884  0.50000  0.16102  Biso   1.000  He
  He8      1.0000 0.70910  0.50000  0.02783  Biso   1.000  He
  He9      1.0000 0.79738  0.50000  0.95577  Biso   1.000  He
  Ar3      1.0000 0.77357  0.50000  0.03472  Biso   1.000  Ar
