data_image0
_cell_length_a       11.778
_cell_length_b       22.356
_cell_length_c       27.73
_cell_angle_alpha    90
_cell_angle_beta     99.3
_cell_angle_gamma    90

_symmetry_space_group_name_H-M    "P 1"
_symmetry_int_tables_number       1

loop_
  _symmetry_equiv_pos_as_xyz
  'x, y, z'

loop_
  _atom_site_label
  _atom_site_occupancy
  _atom_site_fract_x
  _atom_site_fract_y
  _atom_site_fract_z
  _atom_site_thermal_displace_type
  _atom_site_B_iso_or_equiv
  _atom_site_type_symbol
  C1       1.0000 0.49463  0.62699  0.66003  Biso   1.000  C
  C2       1.0000 0.46016  0.57376  0.68860  Biso   1.000  C
  H1       1.0000 0.49884  0.61388  0.62623  Biso   1.000  H
  H2       1.0000 0.57254  0.64019  0.67512  Biso   1.000  H
  N1       1.0000 0.41687  0.67780  0.65784  Biso   1.000  N
  N2       1.0000 0.35245  0.55350  0.67552  Biso   1.000  N
  C3       1.0000 0.53791  0.54804  0.72537  Biso   1.000  C
  C4       1.0000 0.41361  0.70992  0.69902  Biso   1.000  C
  C5       1.0000 0.32716  0.68599  0.61574  Biso   1.000  C
  C6       1.0000 0.32028  0.50649  0.70030  Biso   1.000  C
  C7       1.0000 0.50479  0.49978  0.75010  Biso   1.000  C
  H3       1.0000 0.61365  0.56370  0.73340  Biso   1.000  H
  N3       1.0000 0.33657  0.75577  0.69536  Biso   1.000  N
  O1       1.0000 0.48082  0.69981  0.73753  Biso   1.000  O
  H4       1.0000 0.25793  0.66340  0.62100  Biso   1.000  H
  H5       1.0000 0.35369  0.66931  0.58640  Biso   1.000  H
  N4       1.0000 0.29675  0.74776  0.60700  Biso   1.000  N
  C8       1.0000 0.19858  0.48506  0.68528  Biso   1.000  C
  C9       1.0000 0.39430  0.47893  0.73753  Biso   1.000  C
  H6       1.0000 0.55692  0.48108  0.77532  Biso   1.000  H
  C10      1.0000 0.31989  0.78811  0.73834  Biso   1.000  C
  C11      1.0000 0.25682  0.76955  0.65023  Biso   1.000  C
  C12      1.0000 0.37908  0.78802  0.58661  Biso   1.000  C
  C13      1.0000 0.37206  0.78498  0.58000  Biso   1.000  C
  N5       1.0000 0.11255  0.53247  0.68075  Biso   1.000  N
  H7       1.0000 0.18067  0.45558  0.70962  Biso   1.000  H
  H8       1.0000 0.19287  0.46422  0.65352  Biso   1.000  H
  H9       1.0000 0.36885  0.44579  0.75431  Biso   1.000  H
  C14      1.0000 0.21041  0.77411  0.75763  Biso   1.000  C
  H10      1.0000 0.38586  0.77970  0.76443  Biso   1.000  H
  H11      1.0000 0.32093  0.83141  0.73103  Biso   1.000  H
  H12      1.0000 0.24619  0.81338  0.64749  Biso   1.000  H
  H13      1.0000 0.18095  0.75139  0.65210  Biso   1.000  H
  C15      1.0000 0.47905  0.81490  0.62465  Biso   1.000  C
  C16      1.0000 0.30805  0.83821  0.56038  Biso   1.000  C
  C17      1.0000 0.43610  0.75344  0.54971  Biso   1.000  C
  C18      1.0000 0.49030  0.78019  0.59889  Biso   1.000  C
  C19      1.0000 0.33013  0.85060  0.58069  Biso   1.000  C
  C20      1.0000 0.34533  0.76391  0.52581  Biso   1.000  C
  C21      1.0000 0.07835  0.55976  0.63237  Biso   1.000  C
  C22      1.0000 0.09945  0.56289  0.72219  Biso   1.000  C
  N6       1.0000 0.16199  0.72016  0.74799  Biso   1.000  N
  C23      1.0000 0.16494  0.81643  0.78497  Biso   1.000  C
  H14      1.0000 0.52446  0.78230  0.64179  Biso   1.000  H
  H15      1.0000 0.52857  0.83960  0.60752  Biso   1.000  H
  H16      1.0000 0.44670  0.83951  0.64830  Biso   1.000  H
  H17      1.0000 0.53144  0.81361  0.58650  Biso   1.000  H
  H18      1.0000 0.50160  0.78171  0.63459  Biso   1.000  H
  H19      1.0000 0.26382  0.85789  0.58292  Biso   1.000  H
  H20      1.0000 0.35944  0.86742  0.54861  Biso   1.000  H
  H21      1.0000 0.25516  0.82188  0.53250  Biso   1.000  H
  H22      1.0000 0.35615  0.87279  0.55402  Biso   1.000  H
  H23      1.0000 0.24581  0.85140  0.57642  Biso   1.000  H
  H24      1.0000 0.37807  0.73001  0.52840  Biso   1.000  H
  H25      1.0000 0.47263  0.78158  0.52990  Biso   1.000  H
  H26      1.0000 0.49442  0.72652  0.56710  Biso   1.000  H
  H27      1.0000 0.37031  0.72231  0.52340  Biso   1.000  H
  H28      1.0000 0.52011  0.74231  0.58840  Biso   1.000  H
  H29      1.0000 0.36183  0.86921  0.61201  Biso   1.000  H
  H30      1.0000 0.26247  0.76668  0.51422  Biso   1.000  H
  H31      1.0000 0.38642  0.78950  0.50571  Biso   1.000  H
  H32      1.0000 0.06554  0.52778  0.60741  Biso   1.000  H
  H33      1.0000 0.14174  0.58539  0.62491  Biso   1.000  H
  N7       1.0000 0.97541  0.59519  0.62959  Biso   1.000  N
  N8       1.0000 0.03905  0.61478  0.71586  Biso   1.000  N
  O2       1.0000 0.13721  0.54258  0.76319  Biso   1.000  O
  C24      1.0000 0.06651  0.70768  0.76637  Biso   1.000  C
  C25      1.0000 0.06640  0.80368  0.80313  Biso   1.000  C
  H34      1.0000 0.20153  0.85409  0.79121  Biso   1.000  H
  C26      1.0000 0.99618  0.63965  0.66745  Biso   1.000  C
  C27      1.0000 0.86117  0.56481  0.62389  Biso   1.000  C
  C28      1.0000 0.01259  0.64685  0.75789  Biso   1.000  C
  C29      1.0000 0.01593  0.74857  0.79366  Biso   1.000  C
  H35      1.0000 0.03343  0.83239  0.82202  Biso   1.000  H
  H36      1.0000 0.05278  0.66890  0.65890  Biso   1.000  H
  H37      1.0000 0.92368  0.66148  0.66880  Biso   1.000  H
  C30      1.0000 0.82705  0.54299  0.67190  Biso   1.000  C
  C31      1.0000 0.77288  0.61053  0.60050  Biso   1.000  C
  C32      1.0000 0.85983  0.51270  0.58892  Biso   1.000  C
  H38      1.0000 0.03737  0.62211  0.78730  Biso   1.000  H
  H39      1.0000 0.92807  0.65141  0.75420  Biso   1.000  H
  H40      1.0000 0.94716  0.73868  0.80572  Biso   1.000  H
  H41      1.0000 0.82708  0.57689  0.69430  Biso   1.000  H
  H42      1.0000 0.74994  0.52532  0.66540  Biso   1.000  H
  H43      1.0000 0.88235  0.51288  0.68670  Biso   1.000  H
  H44      1.0000 0.79453  0.62502  0.56991  Biso   1.000  H
  H45      1.0000 0.69677  0.59179  0.59370  Biso   1.000  H
  H46      1.0000 0.77045  0.64430  0.62290  Biso   1.000  H
  H47      1.0000 0.91163  0.48130  0.60412  Biso   1.000  H
  H48      1.0000 0.78155  0.49678  0.58110  Biso   1.000  H
  H49      1.0000 0.88548  0.52630  0.55881  Biso   1.000  H
  C33      1.0000 0.79531  0.76284  0.50615  Biso   1.000  C
  C34      1.0000 0.89495  0.80524  0.52212  Biso   1.000  C
  H50      1.0000 0.73922  0.78212  0.48101  Biso   1.000  H
  H51      1.0000 0.82411  0.72629  0.49281  Biso   1.000  H
  H52      1.0000 0.75849  0.75268  0.53432  Biso   1.000  H
  C35      1.0000 0.98646  0.77268  0.55822  Biso   1.000  C
  C36      1.0000 0.94655  0.82309  0.47765  Biso   1.000  C
  N9       1.0000 0.84592  0.85959  0.54298  Biso   1.000  N
  H53      1.0000 0.95294  0.75971  0.58661  Biso   1.000  H
  H54      1.0000 0.01391  0.73761  0.54222  Biso   1.000  H
  H55      1.0000 0.05107  0.79979  0.56893  Biso   1.000  H
  H56      1.0000 0.97163  0.78722  0.46211  Biso   1.000  H
  H57      1.0000 0.88863  0.84420  0.45440  Biso   1.000  H
  H58      1.0000 0.01266  0.84939  0.48762  Biso   1.000  H
  C37      1.0000 0.81356  0.85288  0.59049  Biso   1.000  C
  C38      1.0000 0.90266  0.91604  0.54214  Biso   1.000  C
  H59      1.0000 0.75149  0.88169  0.59381  Biso   1.000  H
  H60      1.0000 0.78254  0.81209  0.59330  Biso   1.000  H
  N10      1.0000 0.91038  0.86268  0.63072  Biso   1.000  N
  H61      1.0000 0.92699  0.92141  0.50991  Biso   1.000  H
  H62      1.0000 0.84757  0.94838  0.54620  Biso   1.000  H
  N11      1.0000 0.00389  0.92159  0.58058  Biso   1.000  N
  C39      1.0000 0.90211  0.83588  0.67750  Biso   1.000  C
  C40      1.0000 0.00276  0.89681  0.62539  Biso   1.000  C
  C41      1.0000 0.08421  0.97048  0.57748  Biso   1.000  C
  H63      1.0000 0.90438  0.79178  0.67410  Biso   1.000  H
  H64      1.0000 0.97018  0.84801  0.70132  Biso   1.000  H
  C42      1.0000 0.79445  0.85284  0.69781  Biso   1.000  C
  O3       1.0000 0.08469  0.90352  0.65930  Biso   1.000  O
  H65      1.0000 0.16294  0.95670  0.59071  Biso   1.000  H
  H66      1.0000 0.08271  0.98081  0.54273  Biso   1.000  H
  C43      1.0000 0.05830  0.02635  0.60489  Biso   1.000  C
  C44      1.0000 0.74294  0.81110  0.72354  Biso   1.000  C
  N12      1.0000 0.75477  0.90884  0.69036  Biso   1.000  N
  N13      1.0000 0.95207  0.04938  0.59301  Biso   1.000  N
  C45      1.0000 0.14059  0.05117  0.64062  Biso   1.000  C
  H67      1.0000 0.77293  0.77169  0.72781  Biso   1.000  H
  C46      1.0000 0.64652  0.82752  0.74302  Biso   1.000  C
  C47      1.0000 0.66075  0.92396  0.70925  Biso   1.000  C
  C48      1.0000 0.92637  0.09747  0.61830  Biso   1.000  C
  C49      1.0000 0.11295  0.10051  0.66617  Biso   1.000  C
  H68      1.0000 0.21551  0.03431  0.64742  Biso   1.000  H
  H69      1.0000 0.60984  0.79961  0.76132  Biso   1.000  H
  C50      1.0000 0.60457  0.88468  0.73563  Biso   1.000  C
  C51      1.0000 0.61782  0.98730  0.70242  Biso   1.000  C
  C52      1.0000 0.80600  0.12225  0.60408  Biso   1.000  C
  C53      1.0000 0.00367  0.12359  0.65499  Biso   1.000  C
  H70      1.0000 0.16804  0.11818  0.69091  Biso   1.000  H
  H71      1.0000 0.53811  0.89690  0.74842  Biso   1.000  H
  H72      1.0000 0.53564  0.98819  0.70622  Biso   1.000  H
  H73      1.0000 0.66073  0.01248  0.72862  Biso   1.000  H
  N14      1.0000 0.62922  0.01306  0.65561  Biso   1.000  N
  H74      1.0000 0.79682  0.13670  0.56991  Biso   1.000  H
  H75      1.0000 0.79684  0.15709  0.62509  Biso   1.000  H
  N15      1.0000 0.71476  0.07922  0.60817  Biso   1.000  N
  H76      1.0000 0.98164  0.15718  0.67231  Biso   1.000  H
  C54      1.0000 0.56257  0.98533  0.61230  Biso   1.000  C
  C55      1.0000 0.70351  0.05864  0.65338  Biso   1.000  C
  C56      1.0000 0.66266  0.04531  0.56542  Biso   1.000  C
  H77      1.0000 0.48517  0.97500  0.61932  Biso   1.000  H
  H78      1.0000 0.60071  0.94771  0.60500  Biso   1.000  H
  N16      1.0000 0.55036  0.02357  0.56995  Biso   1.000  N
  O4       1.0000 0.75614  0.08226  0.69083  Biso   1.000  O
  H79      1.0000 0.71283  0.01100  0.56071  Biso   1.000  H
  H80      1.0000 0.65694  0.07112  0.53611  Biso   1.000  H
  C57      1.0000 0.45215  0.06665  0.56378  Biso   1.000  C
  C58      1.0000 0.44505  0.10552  0.60872  Biso   1.000  C
  C59      1.0000 0.34268  0.02957  0.55300  Biso   1.000  C
  C60      1.0000 0.45849  0.10534  0.51952  Biso   1.000  C
  H81      1.0000 0.51447  0.13030  0.61599  Biso   1.000  H
  H82      1.0000 0.37712  0.13142  0.60222  Biso   1.000  H
  H83      1.0000 0.43911  0.07980  0.63682  Biso   1.000  H
  H84      1.0000 0.33639  0.00389  0.58110  Biso   1.000  H
  H85      1.0000 0.27598  0.05632  0.54682  Biso   1.000  H
  H86      1.0000 0.34520  0.00461  0.52413  Biso   1.000  H
  H87      1.0000 0.47247  0.07998  0.49223  Biso   1.000  H
  H88      1.0000 0.38566  0.12681  0.51042  Biso   1.000  H
  H89      1.0000 0.52140  0.13419  0.52731  Biso   1.000  H
  C61      1.0000 0.20472  0.23716  0.49387  Biso   1.000  C
  C62      1.0000 0.10508  0.19476  0.47790  Biso   1.000  C
  H90      1.0000 0.26081  0.21788  0.51901  Biso   1.000  H
  H91      1.0000 0.17592  0.27371  0.50721  Biso   1.000  H
  H92      1.0000 0.24163  0.24732  0.46570  Biso   1.000  H
  N17      1.0000 0.15419  0.14041  0.45704  Biso   1.000  N
  C63      1.0000 0.01357  0.22732  0.44180  Biso   1.000  C
  C64      1.0000 0.05357  0.17691  0.52237  Biso   1.000  C
  C65      1.0000 0.18655  0.14712  0.40953  Biso   1.000  C
  C66      1.0000 0.09746  0.08396  0.45788  Biso   1.000  C
  H93      1.0000 0.04709  0.24029  0.41340  Biso   1.000  H
  H94      1.0000 0.98612  0.26239  0.45780  Biso   1.000  H
  H95      1.0000 0.94904  0.20021  0.43109  Biso   1.000  H
  H96      1.0000 0.02840  0.21278  0.53790  Biso   1.000  H
  H97      1.0000 0.11140  0.15580  0.54561  Biso   1.000  H
  H98      1.0000 0.98745  0.15061  0.51240  Biso   1.000  H
  N18      1.0000 0.08965  0.13732  0.36930  Biso   1.000  N
  H99      1.0000 0.24863  0.11831  0.40620  Biso   1.000  H
  H100     1.0000 0.21749  0.18791  0.40672  Biso   1.000  H
  N19      1.0000 0.99614  0.07841  0.41943  Biso   1.000  N
  H101     1.0000 0.07313  0.07859  0.49011  Biso   1.000  H
  H102     1.0000 0.15255  0.05162  0.45382  Biso   1.000  H
  C67      1.0000 0.09801  0.16412  0.32252  Biso   1.000  C
  C68      1.0000 0.99735  0.10319  0.37463  Biso   1.000  C
  C69      1.0000 0.91582  0.02952  0.42254  Biso   1.000  C
  C70      1.0000 0.20566  0.14716  0.30221  Biso   1.000  C
  H103     1.0000 0.09573  0.20822  0.32592  Biso   1.000  H
  H104     1.0000 0.02993  0.15199  0.29870  Biso   1.000  H
  O5       1.0000 0.91534  0.09648  0.34072  Biso   1.000  O
  C71      1.0000 0.94181  0.97365  0.39513  Biso   1.000  C
  H105     1.0000 0.83717  0.04330  0.40931  Biso   1.000  H
  H106     1.0000 0.91732  0.01919  0.45729  Biso   1.000  H
  C72      1.0000 0.25717  0.18890  0.27648  Biso   1.000  C
  N20      1.0000 0.24534  0.09116  0.30966  Biso   1.000  N
  C73      1.0000 0.85953  0.94883  0.35939  Biso   1.000  C
  N21      1.0000 0.04796  0.95062  0.40701  Biso   1.000  N
  H107     1.0000 0.22710  0.22831  0.27220  Biso   1.000  H
  C74      1.0000 0.35351  0.17248  0.25700  Biso   1.000  C
  C75      1.0000 0.33928  0.07604  0.29077  Biso   1.000  C
  C76      1.0000 0.88717  0.89949  0.33385  Biso   1.000  C
  H108     1.0000 0.78452  0.96569  0.35260  Biso   1.000  H
  C77      1.0000 0.07375  0.90253  0.38172  Biso   1.000  C
  H109     1.0000 0.39019  0.20039  0.23869  Biso   1.000  H
  C78      1.0000 0.39546  0.11532  0.26438  Biso   1.000  C
  C79      1.0000 0.38229  0.01270  0.29760  Biso   1.000  C
  C80      1.0000 0.99636  0.87641  0.34503  Biso   1.000  C
  H110     1.0000 0.83208  0.88182  0.30911  Biso   1.000  H
  C81      1.0000 0.19403  0.87775  0.39594  Biso   1.000  C
  H111     1.0000 0.46192  0.10310  0.25159  Biso   1.000  H
  H112     1.0000 0.46439  0.01181  0.29380  Biso   1.000  H
  H113     1.0000 0.33930  0.98752  0.27140  Biso   1.000  H
  N22      1.0000 0.37081  0.98694  0.34441  Biso   1.000  N
  H114     1.0000 0.01839  0.84282  0.32771  Biso   1.000  H
  N23      1.0000 0.28527  0.92078  0.39184  Biso   1.000  N
  H115     1.0000 0.20321  0.86330  0.43010  Biso   1.000  H
  H116     1.0000 0.20319  0.84291  0.37492  Biso   1.000  H
  C82      1.0000 0.43755  0.01467  0.38771  Biso   1.000  C
  C83      1.0000 0.29660  0.94136  0.34664  Biso   1.000  C
  C84      1.0000 0.33746  0.95469  0.43460  Biso   1.000  C
  H117     1.0000 0.51494  0.02500  0.38070  Biso   1.000  H
  H118     1.0000 0.39932  0.05229  0.39502  Biso   1.000  H
  N24      1.0000 0.44976  0.97643  0.43007  Biso   1.000  N
  O6       1.0000 0.24389  0.91774  0.30918  Biso   1.000  O
  H119     1.0000 0.28720  0.98900  0.43931  Biso   1.000  H
  H120     1.0000 0.34309  0.92888  0.46391  Biso   1.000  H
  C85      1.0000 0.54788  0.93335  0.43624  Biso   1.000  C
  C86      1.0000 0.55496  0.89448  0.39126  Biso   1.000  C
  C87      1.0000 0.65743  0.97043  0.44702  Biso   1.000  C
  C88      1.0000 0.54162  0.89466  0.48050  Biso   1.000  C
  H121     1.0000 0.48564  0.86970  0.38402  Biso   1.000  H
  H122     1.0000 0.62291  0.86858  0.39780  Biso   1.000  H
  H123     1.0000 0.56092  0.92020  0.36319  Biso   1.000  H
  H124     1.0000 0.66364  0.99611  0.41892  Biso   1.000  H
  H125     1.0000 0.72414  0.94368  0.45320  Biso   1.000  H
  H126     1.0000 0.65483  0.99539  0.47589  Biso   1.000  H
  H127     1.0000 0.52764  0.92002  0.50779  Biso   1.000  H
  H128     1.0000 0.61445  0.87319  0.48959  Biso   1.000  H
  H129     1.0000 0.47863  0.86581  0.47271  Biso   1.000  H
  C89      1.0000 0.89552  0.38468  0.76439  Biso   1.000  C
  C90      1.0000 0.85357  0.32752  0.75701  Biso   1.000  C
  H130     1.0000 0.96197  0.39690  0.75160  Biso   1.000  H
  C91      1.0000 0.83933  0.42396  0.79078  Biso   1.000  C
  C92      1.0000 0.75715  0.31110  0.77649  Biso   1.000  C
  H131     1.0000 0.89025  0.29961  0.73870  Biso   1.000  H
  N25      1.0000 0.74540  0.40884  0.80967  Biso   1.000  N
  C93      1.0000 0.88235  0.48730  0.79761  Biso   1.000  C
  C94      1.0000 0.70572  0.35284  0.80221  Biso   1.000  C
  H132     1.0000 0.72716  0.27169  0.77221  Biso   1.000  H
  H133     1.0000 0.83935  0.51248  0.77141  Biso   1.000  H
  H134     1.0000 0.96445  0.48819  0.79381  Biso   1.000  H
  N26      1.0000 0.87087  0.51306  0.84442  Biso   1.000  N
  C95      1.0000 0.59798  0.33588  0.82253  Biso   1.000  C
  C96      1.0000 0.79658  0.55864  0.84665  Biso   1.000  C
  C97      1.0000 0.93752  0.48533  0.88772  Biso   1.000  C
  H135     1.0000 0.59579  0.29178  0.82593  Biso   1.000  H
  H136     1.0000 0.52999  0.34801  0.79871  Biso   1.000  H
  N27      1.0000 0.58971  0.36268  0.86931  Biso   1.000  N
  N28      1.0000 0.78533  0.57922  0.89185  Biso   1.000  N
  O7       1.0000 0.74395  0.58226  0.80919  Biso   1.000  O
  H137     1.0000 0.89938  0.44771  0.89503  Biso   1.000  H
  N29      1.0000 0.94973  0.52357  0.93008  Biso   1.000  N
  H138     1.0000 0.01492  0.47500  0.88071  Biso   1.000  H
  C98      1.0000 0.49733  0.39681  0.87464  Biso   1.000  C
  C99      1.0000 0.68661  0.35288  0.90954  Biso   1.000  C
  C100     1.0000 0.83751  0.54531  0.93461  Biso   1.000  C
  C101     1.0000 0.69409  0.62225  0.89595  Biso   1.000  C
  C102     1.0000 0.04794  0.56665  0.93625  Biso   1.000  C
  N30      1.0000 0.49612  0.42159  0.91944  Biso   1.000  N
  O8       1.0000 0.41540  0.40352  0.84073  Biso   1.000  O
  H139     1.0000 0.74868  0.38169  0.90621  Biso   1.000  H
  H140     1.0000 0.71755  0.31209  0.90673  Biso   1.000  H
  N31      1.0000 0.65425  0.35959  0.95704  Biso   1.000  N
  H141     1.0000 0.78726  0.51100  0.93932  Biso   1.000  H
  H142     1.0000 0.84315  0.57112  0.96391  Biso   1.000  H
  H143     1.0000 0.70327  0.63670  0.93011  Biso   1.000  H
  H144     1.0000 0.70323  0.65709  0.87490  Biso   1.000  H
  C103     1.0000 0.57372  0.59747  0.88173  Biso   1.000  C
  C104     1.0000 0.05502  0.60552  0.89127  Biso   1.000  C
  C105     1.0000 0.15740  0.52957  0.94703  Biso   1.000  C
  C106     1.0000 0.04160  0.60534  0.98050  Biso   1.000  C
  C107     1.0000 0.59752  0.41604  0.95788  Biso   1.000  C
  C108     1.0000 0.41588  0.47048  0.92255  Biso   1.000  C
  C109     1.0000 0.60514  0.30524  0.97791  Biso   1.000  C
  N32      1.0000 0.54802  0.54938  0.90702  Biso   1.000  N
  C110     1.0000 0.49642  0.62359  0.84504  Biso   1.000  C
  H145     1.0000 0.98570  0.63030  0.88403  Biso   1.000  H
  H146     1.0000 0.12297  0.63142  0.89781  Biso   1.000  H
  H147     1.0000 0.06090  0.57980  0.86320  Biso   1.000  H
  H148     1.0000 0.16361  0.50389  0.91893  Biso   1.000  H
  H149     1.0000 0.22411  0.55632  0.95321  Biso   1.000  H
  H150     1.0000 0.15480  0.50461  0.97590  Biso   1.000  H
  H151     1.0000 0.97869  0.63419  0.97272  Biso   1.000  H
  H152     1.0000 0.11442  0.62681  0.98960  Biso   1.000  H
  H153     1.0000 0.02761  0.57998  0.00780  Biso   1.000  H
  H154     1.0000 0.57319  0.42141  0.99011  Biso   1.000  H
  H155     1.0000 0.65260  0.44838  0.95383  Biso   1.000  H
  C111     1.0000 0.44179  0.52635  0.89514  Biso   1.000  C
  H156     1.0000 0.33715  0.45670  0.90932  Biso   1.000  H
  H157     1.0000 0.41738  0.48081  0.95730  Biso   1.000  H
  C112     1.0000 0.51363  0.27268  0.94181  Biso   1.000  C
  C113     1.0000 0.70478  0.26284  0.99388  Biso   1.000  C
  C114     1.0000 0.55354  0.32309  0.02238  Biso   1.000  C
  C115     1.0000 0.38714  0.60051  0.83386  Biso   1.000  C
  H158     1.0000 0.51844  0.65718  0.82772  Biso   1.000  H
  C116     1.0000 0.35950  0.55117  0.85940  Biso   1.000  C
  H159     1.0000 0.54714  0.25971  0.91341  Biso   1.000  H
  H160     1.0000 0.48618  0.23761  0.95781  Biso   1.000  H
  H161     1.0000 0.44902  0.29979  0.93110  Biso   1.000  H
  H162     1.0000 0.74169  0.25268  0.96570  Biso   1.000  H
  H163     1.0000 0.76087  0.28212  0.01902  Biso   1.000  H
  H164     1.0000 0.67597  0.22629  0.00722  Biso   1.000  H
  H165     1.0000 0.48742  0.34939  0.01241  Biso   1.000  H
  H166     1.0000 0.52846  0.28722  0.03791  Biso   1.000  H
  H167     1.0000 0.61146  0.34420  0.04562  Biso   1.000  H
  H168     1.0000 0.33205  0.61818  0.80912  Biso   1.000  H
  H169     1.0000 0.28458  0.53431  0.85261  Biso   1.000  H
  C117     1.0000 0.10459  0.61532  0.23563  Biso   1.000  C
  C118     1.0000 0.16078  0.57604  0.20924  Biso   1.000  C
  C119     1.0000 0.14654  0.67248  0.24301  Biso   1.000  C
  H170     1.0000 0.03814  0.60310  0.24841  Biso   1.000  H
  C120     1.0000 0.11777  0.51270  0.20241  Biso   1.000  C
  N33      1.0000 0.25471  0.59116  0.19035  Biso   1.000  N
  C121     1.0000 0.24288  0.68890  0.22353  Biso   1.000  C
  H171     1.0000 0.10978  0.70039  0.26131  Biso   1.000  H
  N34      1.0000 0.12925  0.48694  0.15560  Biso   1.000  N
  H172     1.0000 0.16068  0.48752  0.22861  Biso   1.000  H
  H173     1.0000 0.03558  0.51181  0.20621  Biso   1.000  H
  C122     1.0000 0.29440  0.64716  0.19780  Biso   1.000  C
  H174     1.0000 0.27295  0.72831  0.22781  Biso   1.000  H
  C123     1.0000 0.20345  0.44136  0.15337  Biso   1.000  C
  C124     1.0000 0.06251  0.51467  0.11229  Biso   1.000  C
  C125     1.0000 0.40205  0.66412  0.17749  Biso   1.000  C
  O9       1.0000 0.25608  0.41774  0.19082  Biso   1.000  O
  N35      1.0000 0.21478  0.42078  0.10817  Biso   1.000  N
  H175     1.0000 0.10074  0.55229  0.10499  Biso   1.000  H
  N36      1.0000 0.05030  0.47643  0.06994  Biso   1.000  N
  H176     1.0000 0.98511  0.52500  0.11931  Biso   1.000  H
  H177     1.0000 0.40432  0.70822  0.17409  Biso   1.000  H
  H178     1.0000 0.47013  0.65199  0.20131  Biso   1.000  H
  N37      1.0000 0.41041  0.63732  0.13071  Biso   1.000  N
  C126     1.0000 0.16260  0.45469  0.06541  Biso   1.000  C
  C127     1.0000 0.30603  0.37775  0.10407  Biso   1.000  C
  C128     1.0000 0.95218  0.43335  0.06377  Biso   1.000  C
  C129     1.0000 0.50270  0.60319  0.12538  Biso   1.000  C
  C130     1.0000 0.31350  0.64712  0.09048  Biso   1.000  C
  H179     1.0000 0.21277  0.48900  0.06070  Biso   1.000  H
  H180     1.0000 0.15688  0.42888  0.03610  Biso   1.000  H
  H181     1.0000 0.29685  0.36330  0.06991  Biso   1.000  H
  H182     1.0000 0.29679  0.34291  0.12508  Biso   1.000  H
  C131     1.0000 0.42631  0.40253  0.11829  Biso   1.000  C
  C132     1.0000 0.94510  0.39448  0.10875  Biso   1.000  C
  C133     1.0000 0.84271  0.47043  0.05299  Biso   1.000  C
  C134     1.0000 0.95843  0.39466  0.01951  Biso   1.000  C
  N38      1.0000 0.50391  0.57841  0.08058  Biso   1.000  N
  O10      1.0000 0.58472  0.59648  0.15929  Biso   1.000  O
  H183     1.0000 0.25143  0.61831  0.09380  Biso   1.000  H
  H184     1.0000 0.28248  0.68791  0.09329  Biso   1.000  H
  N39      1.0000 0.34586  0.64041  0.04297  Biso   1.000  N
  C135     1.0000 0.50369  0.37641  0.15498  Biso   1.000  C
  N40      1.0000 0.45201  0.45062  0.09300  Biso   1.000  N
  H185     1.0000 0.01441  0.36970  0.11599  Biso   1.000  H
  H186     1.0000 0.87715  0.36858  0.10221  Biso   1.000  H
  H187     1.0000 0.93913  0.42020  0.13681  Biso   1.000  H
  H188     1.0000 0.83642  0.49611  0.08109  Biso   1.000  H
  H189     1.0000 0.77592  0.44368  0.04681  Biso   1.000  H
  H190     1.0000 0.84523  0.49539  0.02412  Biso   1.000  H
  H191     1.0000 0.02142  0.36581  0.02730  Biso   1.000  H
  H192     1.0000 0.97242  0.42002  0.99222  Biso   1.000  H
  H193     1.0000 0.88561  0.37319  0.01041  Biso   1.000  H
  C136     1.0000 0.58424  0.52952  0.07747  Biso   1.000  C
  C137     1.0000 0.40260  0.58396  0.04213  Biso   1.000  C
  C138     1.0000 0.39489  0.69476  0.02211  Biso   1.000  C
  H194     1.0000 0.48159  0.34282  0.17230  Biso   1.000  H
  C139     1.0000 0.61289  0.39949  0.16616  Biso   1.000  C
  C140     1.0000 0.55833  0.47365  0.10488  Biso   1.000  C
  H195     1.0000 0.66288  0.54330  0.09070  Biso   1.000  H
  H196     1.0000 0.58273  0.51919  0.04272  Biso   1.000  H
  H197     1.0000 0.42693  0.57859  0.00990  Biso   1.000  H
  H198     1.0000 0.34751  0.55162  0.04619  Biso   1.000  H
  C141     1.0000 0.48640  0.72732  0.05821  Biso   1.000  C
  C142     1.0000 0.29534  0.73716  0.00614  Biso   1.000  C
  C143     1.0000 0.44649  0.67691  0.97764  Biso   1.000  C
  H199     1.0000 0.66806  0.38182  0.19090  Biso   1.000  H
  C144     1.0000 0.64061  0.44883  0.14061  Biso   1.000  C
  H200     1.0000 0.45289  0.74029  0.08661  Biso   1.000  H
  H201     1.0000 0.51394  0.76239  0.04221  Biso   1.000  H
  H202     1.0000 0.55101  0.70021  0.06892  Biso   1.000  H
  H203     1.0000 0.25843  0.74732  0.03431  Biso   1.000  H
  H204     1.0000 0.23925  0.71788  0.98100  Biso   1.000  H
  H205     1.0000 0.32414  0.77371  0.99280  Biso   1.000  H
  H206     1.0000 0.51261  0.65061  0.98761  Biso   1.000  H
  H207     1.0000 0.47166  0.71278  0.96211  Biso   1.000  H
  H208     1.0000 0.38866  0.65580  0.95440  Biso   1.000  H
  H209     1.0000 0.71554  0.46569  0.14741  Biso   1.000  H
