data_image0
_cell_length_a       8.643
_cell_length_b       22.391
_cell_length_c       20.983
_cell_angle_alpha    90
_cell_angle_beta     98.51
_cell_angle_gamma    90

_symmetry_space_group_name_H-M    "P 1"
_symmetry_int_tables_number       1

loop_
  _symmetry_equiv_pos_as_xyz
  'x, y, z'

loop_
  _atom_site_label
  _atom_site_occupancy
  _atom_site_fract_x
  _atom_site_fract_y
  _atom_site_fract_z
  _atom_site_thermal_displace_type
  _atom_site_B_iso_or_equiv
  _atom_site_type_symbol
  C1       1.0000 0.55599  0.37185  0.58047  Biso   1.000  C
  C2       1.0000 0.55965  0.30999  0.58356  Biso   1.000  C
  H1       1.0000 0.57555  0.39092  0.54313  Biso   1.000  H
  C3       1.0000 0.52466  0.40489  0.63078  Biso   1.000  C
  C4       1.0000 0.53639  0.28145  0.63734  Biso   1.000  C
  H2       1.0000 0.57839  0.28811  0.54780  Biso   1.000  H
  C5       1.0000 0.50132  0.37734  0.68981  Biso   1.000  C
  H3       1.0000 0.51819  0.44621  0.62693  Biso   1.000  H
  C6       1.0000 0.50840  0.31294  0.69372  Biso   1.000  C
  H4       1.0000 0.53863  0.23992  0.63811  Biso   1.000  H
  C7       1.0000 0.47488  0.41039  0.74407  Biso   1.000  C
  C8       1.0000 0.48913  0.28476  0.75121  Biso   1.000  C
  C9       1.0000 0.46897  0.38194  0.80296  Biso   1.000  C
  C10      1.0000 0.44506  0.47662  0.73930  Biso   1.000  C
  C11      1.0000 0.47575  0.31803  0.80672  Biso   1.000  C
  C12      1.0000 0.47759  0.21772  0.75482  Biso   1.000  C
  C13      1.0000 0.45199  0.41445  0.85973  Biso   1.000  C
  N1       1.0000 0.28415  0.48993  0.75034  Biso   1.000  N
  H5       1.0000 0.51884  0.49730  0.77111  Biso   1.000  H
  H6       1.0000 0.46002  0.49069  0.69690  Biso   1.000  H
  C14      1.0000 0.46581  0.29079  0.86729  Biso   1.000  C
  N2       1.0000 0.31786  0.20021  0.76431  Biso   1.000  N
  H7       1.0000 0.50227  0.20008  0.71531  Biso   1.000  H
  H8       1.0000 0.55246  0.20289  0.79029  Biso   1.000  H
  H9       1.0000 0.44898  0.45590  0.85842  Biso   1.000  H
  C15      1.0000 0.44009  0.38578  0.91548  Biso   1.000  C
  C16      1.0000 0.23979  0.53700  0.78499  Biso   1.000  C
  C17      1.0000 0.16125  0.45563  0.73256  Biso   1.000  C
  C18      1.0000 0.44779  0.32370  0.91953  Biso   1.000  C
  H10      1.0000 0.47186  0.24939  0.87090  Biso   1.000  H
  C19      1.0000 0.18953  0.23054  0.74398  Biso   1.000  C
  C20      1.0000 0.27785  0.15100  0.79689  Biso   1.000  C
  H11      1.0000 0.42661  0.40789  0.95172  Biso   1.000  H
  C21      1.0000 0.08692  0.53066  0.78783  Biso   1.000  C
  H12      1.0000 0.30395  0.56782  0.80320  Biso   1.000  H
  N3       1.0000 0.04016  0.47948  0.75492  Biso   1.000  N
  H13      1.0000 0.15998  0.42079  0.70841  Biso   1.000  H
  H14      1.0000 0.44035  0.30481  0.95841  Biso   1.000  H
  N4       1.0000 0.06965  0.20294  0.76325  Biso   1.000  N
  H15      1.0000 0.18428  0.26560  0.72003  Biso   1.000  H
  H16      1.0000 0.34562  0.12170  0.81583  Biso   1.000  H
  C22      1.0000 0.12425  0.15292  0.79641  Biso   1.000  C
  H17      1.0000 0.02460  0.55612  0.80821  Biso   1.000  H
  C23      1.0000 0.88497  0.45063  0.75000  Biso   1.000  C
  C24      1.0000 0.90899  0.22741  0.75535  Biso   1.000  C
  H18      1.0000 0.06471  0.12518  0.81520  Biso   1.000  H
  C25      1.0000 0.89559  0.39351  0.78792  Biso   1.000  C
  H19      1.0000 0.84593  0.44219  0.70509  Biso   1.000  H
  H20      1.0000 0.81188  0.47751  0.76619  Biso   1.000  H
  H21      1.0000 0.84008  0.19919  0.77222  Biso   1.000  H
  H22      1.0000 0.87126  0.23322  0.70991  Biso   1.000  H
  C26      1.0000 0.90539  0.28583  0.79009  Biso   1.000  C
  C27      1.0000 0.89062  0.33929  0.75670  Biso   1.000  C
  C28      1.0000 0.91412  0.39382  0.85399  Biso   1.000  C
  C29      1.0000 0.92301  0.28739  0.85587  Biso   1.000  C
  H23      1.0000 0.87707  0.33862  0.71188  Biso   1.000  H
  C30      1.0000 0.92787  0.34103  0.88743  Biso   1.000  C
  H24      1.0000 0.91732  0.42990  0.87611  Biso   1.000  H
  H25      1.0000 0.93189  0.25189  0.87929  Biso   1.000  H
  H26      1.0000 0.94071  0.34170  0.93220  Biso   1.000  H
  C31      1.0000 0.44414  0.62815  0.41953  Biso   1.000  C
  C32      1.0000 0.47547  0.59511  0.36922  Biso   1.000  C
  C33      1.0000 0.44048  0.69001  0.41644  Biso   1.000  C
  H27      1.0000 0.42471  0.60908  0.45692  Biso   1.000  H
  C34      1.0000 0.49880  0.62266  0.31019  Biso   1.000  C
  H28      1.0000 0.48196  0.55379  0.37312  Biso   1.000  H
  C35      1.0000 0.46374  0.71855  0.36266  Biso   1.000  C
  H29      1.0000 0.42174  0.71189  0.45220  Biso   1.000  H
  C36      1.0000 0.52526  0.58961  0.25598  Biso   1.000  C
  C37      1.0000 0.49173  0.68706  0.30628  Biso   1.000  C
  H30      1.0000 0.46161  0.76008  0.36189  Biso   1.000  H
  C38      1.0000 0.55519  0.52338  0.26070  Biso   1.000  C
  C39      1.0000 0.53116  0.61806  0.19704  Biso   1.000  C
  C40      1.0000 0.51100  0.71524  0.24880  Biso   1.000  C
  N5       1.0000 0.71600  0.51007  0.24971  Biso   1.000  N
  H31      1.0000 0.48128  0.50270  0.22889  Biso   1.000  H
  H32      1.0000 0.54011  0.50931  0.30310  Biso   1.000  H
  C41      1.0000 0.54814  0.58555  0.14028  Biso   1.000  C
  C42      1.0000 0.52437  0.68197  0.19328  Biso   1.000  C
  C43      1.0000 0.52266  0.78228  0.24518  Biso   1.000  C
  C44      1.0000 0.76034  0.46300  0.21502  Biso   1.000  C
  C45      1.0000 0.83890  0.54437  0.26749  Biso   1.000  C
  H33      1.0000 0.55129  0.54410  0.14163  Biso   1.000  H
  C46      1.0000 0.56006  0.61422  0.08457  Biso   1.000  C
  C47      1.0000 0.53433  0.70921  0.13276  Biso   1.000  C
  N6       1.0000 0.68238  0.79979  0.23569  Biso   1.000  N
  H34      1.0000 0.49798  0.79992  0.28470  Biso   1.000  H
  H35      1.0000 0.44778  0.79711  0.20971  Biso   1.000  H
  C48      1.0000 0.91320  0.46934  0.21217  Biso   1.000  C
  H36      1.0000 0.69618  0.43218  0.19680  Biso   1.000  H
  N7       1.0000 0.96009  0.52052  0.24509  Biso   1.000  N
  H37      1.0000 0.84015  0.57921  0.29159  Biso   1.000  H
  H38      1.0000 0.57364  0.59211  0.04828  Biso   1.000  H
  C49      1.0000 0.55246  0.67630  0.08047  Biso   1.000  C
  H39      1.0000 0.52827  0.75061  0.12910  Biso   1.000  H
  C50      1.0000 0.81060  0.76946  0.25602  Biso   1.000  C
  C51      1.0000 0.72240  0.84900  0.20311  Biso   1.000  C
  H40      1.0000 0.97553  0.44388  0.19179  Biso   1.000  H
  C52      1.0000 0.11529  0.54937  0.25005  Biso   1.000  C
  H41      1.0000 0.55977  0.69519  0.04159  Biso   1.000  H
  N8       1.0000 0.93059  0.79706  0.23675  Biso   1.000  N
  H42      1.0000 0.81598  0.73440  0.28002  Biso   1.000  H
  C53      1.0000 0.87587  0.84708  0.20360  Biso   1.000  C
  H43      1.0000 0.65452  0.87830  0.18422  Biso   1.000  H
  C54      1.0000 0.10454  0.60649  0.21208  Biso   1.000  C
  H44      1.0000 0.15420  0.55781  0.29491  Biso   1.000  H
  H45      1.0000 0.18825  0.52249  0.23381  Biso   1.000  H
  C55      1.0000 0.09127  0.77259  0.24470  Biso   1.000  C
  H46      1.0000 0.93542  0.87482  0.18480  Biso   1.000  H
  C56      1.0000 0.08601  0.60618  0.14601  Biso   1.000  C
  C57      1.0000 0.10951  0.66071  0.24330  Biso   1.000  C
  C58      1.0000 0.09485  0.71417  0.20991  Biso   1.000  C
  H47      1.0000 0.16005  0.80081  0.22779  Biso   1.000  H
  H48      1.0000 0.12898  0.76678  0.29009  Biso   1.000  H
  C59      1.0000 0.07226  0.65897  0.11257  Biso   1.000  C
  H49      1.0000 0.08281  0.57010  0.12389  Biso   1.000  H
  H50      1.0000 0.12318  0.66138  0.28812  Biso   1.000  H
  C60      1.0000 0.07712  0.71261  0.14413  Biso   1.000  C
  H51      1.0000 0.05942  0.65830  0.06780  Biso   1.000  H
  H52      1.0000 0.06836  0.74811  0.12071  Biso   1.000  H
  C61      1.0000 0.72246  0.65102  0.70311  Biso   1.000  C
  N9       1.0000 0.68245  0.70019  0.73569  Biso   1.000  N
  H53      1.0000 0.65459  0.62168  0.68422  Biso   1.000  H
  C62      1.0000 0.87594  0.65290  0.70360  Biso   1.000  C
  C63      1.0000 0.81078  0.73056  0.75602  Biso   1.000  C
  C64      1.0000 0.52274  0.71770  0.74523  Biso   1.000  C
  N10      1.0000 0.93066  0.70296  0.73675  Biso   1.000  N
  H54      1.0000 0.93548  0.62521  0.68480  Biso   1.000  H
  H55      1.0000 0.81604  0.76562  0.78002  Biso   1.000  H
  C65      1.0000 0.51106  0.78478  0.74880  Biso   1.000  C
  H56      1.0000 0.49804  0.70010  0.78470  Biso   1.000  H
  H57      1.0000 0.44785  0.70292  0.70972  Biso   1.000  H
  C66      1.0000 0.09133  0.72744  0.74470  Biso   1.000  C
  C67      1.0000 0.52444  0.81801  0.69328  Biso   1.000  C
  C68      1.0000 0.49180  0.81296  0.80628  Biso   1.000  C
  H58      1.0000 0.16011  0.69921  0.72779  Biso   1.000  H
  H59      1.0000 0.12904  0.73320  0.79009  Biso   1.000  H
  C69      1.0000 0.09491  0.78581  0.70991  Biso   1.000  C
  C70      1.0000 0.53124  0.88192  0.69709  Biso   1.000  C
  C71      1.0000 0.53440  0.79076  0.63276  Biso   1.000  C
  C72      1.0000 0.46380  0.78147  0.86266  Biso   1.000  C
  C73      1.0000 0.49887  0.87736  0.81019  Biso   1.000  C
  C74      1.0000 0.07718  0.78737  0.64413  Biso   1.000  C
  C75      1.0000 0.10957  0.83931  0.74330  Biso   1.000  C
  C76      1.0000 0.52533  0.91041  0.75598  Biso   1.000  C
  C77      1.0000 0.54832  0.91443  0.64028  Biso   1.000  C
  C78      1.0000 0.55252  0.82368  0.58047  Biso   1.000  C
  H60      1.0000 0.52845  0.74941  0.62910  Biso   1.000  H
  H61      1.0000 0.46168  0.73990  0.86189  Biso   1.000  H
  C79      1.0000 0.44055  0.80997  0.91644  Biso   1.000  C
  C80      1.0000 0.47553  0.90492  0.86922  Biso   1.000  C
  H62      1.0000 0.06842  0.75191  0.62071  Biso   1.000  H
  C81      1.0000 0.07234  0.84105  0.61262  Biso   1.000  C
  C82      1.0000 0.10460  0.89348  0.71208  Biso   1.000  C
  H63      1.0000 0.12324  0.83860  0.78812  Biso   1.000  H
  C83      1.0000 0.55525  0.97660  0.76070  Biso   1.000  C
  H64      1.0000 0.55135  0.95592  0.64163  Biso   1.000  H
  C84      1.0000 0.56012  0.88580  0.58457  Biso   1.000  C
  H65      1.0000 0.55984  0.80479  0.54159  Biso   1.000  H
  H66      1.0000 0.42181  0.78808  0.95220  Biso   1.000  H
  C85      1.0000 0.44420  0.87182  0.91953  Biso   1.000  C
  H67      1.0000 0.48202  0.94618  0.87312  Biso   1.000  H
  H68      1.0000 0.05948  0.84172  0.56780  Biso   1.000  H
  C86      1.0000 0.08607  0.89384  0.64601  Biso   1.000  C
  C87      1.0000 0.11535  0.95061  0.75005  Biso   1.000  C
  N11      1.0000 0.71606  0.98991  0.74971  Biso   1.000  N
  H69      1.0000 0.48146  0.99732  0.72889  Biso   1.000  H
  H70      1.0000 0.54029  0.99071  0.80310  Biso   1.000  H
  H71      1.0000 0.57370  0.90791  0.54829  Biso   1.000  H
  H72      1.0000 0.42478  0.89089  0.95692  Biso   1.000  H
  H73      1.0000 0.08287  0.92988  0.62389  Biso   1.000  H
  N12      1.0000 0.96015  0.97950  0.74509  Biso   1.000  N
  H74      1.0000 0.15438  0.94221  0.79491  Biso   1.000  H
  H75      1.0000 0.18831  0.97749  0.73381  Biso   1.000  H
  C88      1.0000 0.83908  0.95565  0.76749  Biso   1.000  C
  C89      1.0000 0.76052  0.03702  0.71502  Biso   1.000  C
  C90      1.0000 0.91327  0.03064  0.71217  Biso   1.000  C
  H76      1.0000 0.84021  0.92082  0.79159  Biso   1.000  H
  H77      1.0000 0.69636  0.06780  0.69680  Biso   1.000  H
  H78      1.0000 0.97560  0.05609  0.69179  Biso   1.000  H
  C91      1.0000 0.27767  0.34898  0.29689  Biso   1.000  C
  N13      1.0000 0.31768  0.29981  0.26431  Biso   1.000  N
  C92      1.0000 0.12419  0.34710  0.29641  Biso   1.000  C
  H79      1.0000 0.34556  0.37832  0.31583  Biso   1.000  H
  C93      1.0000 0.18947  0.26944  0.24398  Biso   1.000  C
  C94      1.0000 0.47752  0.28230  0.25482  Biso   1.000  C
  N14      1.0000 0.06947  0.29704  0.26325  Biso   1.000  N
  H80      1.0000 0.06464  0.37479  0.31520  Biso   1.000  H
  H81      1.0000 0.18409  0.23438  0.21998  Biso   1.000  H
  C95      1.0000 0.48907  0.21522  0.25120  Biso   1.000  C
  H82      1.0000 0.50209  0.29990  0.21530  Biso   1.000  H
  H83      1.0000 0.55240  0.29708  0.29029  Biso   1.000  H
  C96      1.0000 0.90891  0.27256  0.25530  Biso   1.000  C
  C97      1.0000 0.47569  0.18199  0.30672  Biso   1.000  C
  C98      1.0000 0.50833  0.18704  0.19372  Biso   1.000  C
  H84      1.0000 0.84002  0.30079  0.27222  Biso   1.000  H
  H85      1.0000 0.87108  0.26680  0.20991  Biso   1.000  H
  C99      1.0000 0.90521  0.21419  0.29009  Biso   1.000  C
  C100     1.0000 0.46890  0.11808  0.30296  Biso   1.000  C
  C101     1.0000 0.46573  0.20924  0.36724  Biso   1.000  C
  C102     1.0000 0.53632  0.21853  0.13734  Biso   1.000  C
  C103     1.0000 0.50126  0.12264  0.18981  Biso   1.000  C
  C104     1.0000 0.92294  0.21263  0.35587  Biso   1.000  C
  C105     1.0000 0.89056  0.16069  0.25670  Biso   1.000  C
  C106     1.0000 0.47482  0.08959  0.24407  Biso   1.000  C
  C107     1.0000 0.45192  0.08557  0.35972  Biso   1.000  C
  C108     1.0000 0.44772  0.17632  0.41953  Biso   1.000  C
  H86      1.0000 0.47179  0.25059  0.37090  Biso   1.000  H
  H87      1.0000 0.53857  0.26010  0.13811  Biso   1.000  H
  C109     1.0000 0.55958  0.19003  0.08356  Biso   1.000  C
  C110     1.0000 0.52460  0.09508  0.13078  Biso   1.000  C
  H88      1.0000 0.93171  0.24809  0.37929  Biso   1.000  H
  C111     1.0000 0.92781  0.15895  0.38743  Biso   1.000  C
  C112     1.0000 0.89553  0.10652  0.28792  Biso   1.000  C
  H89      1.0000 0.87689  0.16140  0.21188  Biso   1.000  H
  C113     1.0000 0.44488  0.02340  0.23930  Biso   1.000  C
  H90      1.0000 0.44891  0.04408  0.35842  Biso   1.000  H
  C114     1.0000 0.44000  0.11420  0.41543  Biso   1.000  C
  H91      1.0000 0.44029  0.19521  0.45841  Biso   1.000  H
  H92      1.0000 0.57832  0.21192  0.04780  Biso   1.000  H
  C115     1.0000 0.55593  0.12818  0.08047  Biso   1.000  C
  H93      1.0000 0.51810  0.05382  0.12688  Biso   1.000  H
  H94      1.0000 0.94065  0.15828  0.43220  Biso   1.000  H
  C116     1.0000 0.91406  0.10616  0.35399  Biso   1.000  C
  C117     1.0000 0.88489  0.04939  0.24995  Biso   1.000  C
  N15      1.0000 0.28407  0.01009  0.25029  Biso   1.000  N
  H95      1.0000 0.51878  0.00268  0.27111  Biso   1.000  H
  H96      1.0000 0.45995  0.00929  0.19690  Biso   1.000  H
  H97      1.0000 0.42643  0.09209  0.45172  Biso   1.000  H
  H98      1.0000 0.57535  0.10911  0.04308  Biso   1.000  H
  H99      1.0000 0.91726  0.07012  0.37611  Biso   1.000  H
  N16      1.0000 0.04009  0.02050  0.25492  Biso   1.000  N
  H100     1.0000 0.84587  0.05779  0.20509  Biso   1.000  H
  H101     1.0000 0.81182  0.02251  0.26619  Biso   1.000  H
  C118     1.0000 0.16118  0.04435  0.23256  Biso   1.000  C
  C119     1.0000 0.23972  0.96298  0.28498  Biso   1.000  C
  C120     1.0000 0.08686  0.96936  0.28783  Biso   1.000  C
  H102     1.0000 0.15992  0.07918  0.20841  Biso   1.000  H
  H103     1.0000 0.30388  0.93220  0.30320  Biso   1.000  H
  H104     1.0000 0.02453  0.94391  0.30821  Biso   1.000  H
