data_image0
_cell_length_a       18.209
_cell_length_b       17.966
_cell_length_c       27.607
_cell_angle_alpha    90
_cell_angle_beta     90.79
_cell_angle_gamma    90

_symmetry_space_group_name_H-M    "P 1"
_symmetry_int_tables_number       1

loop_
  _symmetry_equiv_pos_as_xyz
  'x, y, z'

loop_
  _atom_site_label
  _atom_site_occupancy
  _atom_site_fract_x
  _atom_site_fract_y
  _atom_site_fract_z
  _atom_site_thermal_displace_type
  _atom_site_B_iso_or_equiv
  _atom_site_type_symbol
  Na1      1.0000 0.63326  0.40983  0.40490  Biso   1.000  Na
  O1       1.0000 0.58220  0.30118  0.37128  Biso   1.000  O
  O2       1.0000 0.51217  0.45402  0.43910  Biso   1.000  O
  O3       1.0000 0.65619  0.52293  0.45330  Biso   1.000  O
  O4       1.0000 0.66598  0.30992  0.46210  Biso   1.000  O
  O5       1.0000 0.72681  0.39202  0.35089  Biso   1.000  O
  O6       1.0000 0.57721  0.50562  0.34502  Biso   1.000  O
  O7       1.0000 0.72507  0.29578  0.40671  Biso   1.000  O
  C1       1.0000 0.52468  0.27363  0.35418  Biso   1.000  C
  C2       1.0000 0.44580  0.44890  0.43221  Biso   1.000  C
  N1       1.0000 0.45711  0.27981  0.37422  Biso   1.000  N
  N2       1.0000 0.51909  0.23288  0.31310  Biso   1.000  N
  N3       1.0000 0.40928  0.38539  0.41921  Biso   1.000  N
  N4       1.0000 0.39621  0.50529  0.43489  Biso   1.000  N
  C3       1.0000 0.40149  0.24062  0.34621  Biso   1.000  C
  C4       1.0000 0.44517  0.31209  0.42069  Biso   1.000  C
  C5       1.0000 0.44592  0.20639  0.30390  Biso   1.000  C
  C6       1.0000 0.58232  0.20650  0.28749  Biso   1.000  C
  C7       1.0000 0.33087  0.39619  0.41700  Biso   1.000  C
  C8       1.0000 0.32160  0.48030  0.42848  Biso   1.000  C
  C9       1.0000 0.41536  0.57681  0.45540  Biso   1.000  C
  N5       1.0000 0.34990  0.28821  0.32122  Biso   1.000  N
  H1       1.0000 0.37636  0.20155  0.36574  Biso   1.000  H
  H2       1.0000 0.49314  0.31715  0.43772  Biso   1.000  H
  H3       1.0000 0.41454  0.27775  0.43989  Biso   1.000  H
  N6       1.0000 0.41049  0.23773  0.26159  Biso   1.000  N
  H4       1.0000 0.44344  0.15078  0.30394  Biso   1.000  H
  H5       1.0000 0.57946  0.15156  0.28499  Biso   1.000  H
  H6       1.0000 0.62704  0.21886  0.30658  Biso   1.000  H
  N7       1.0000 0.58947  0.23773  0.23840  Biso   1.000  N
  N8       1.0000 0.29791  0.38951  0.36929  Biso   1.000  N
  H7       1.0000 0.30512  0.36435  0.44116  Biso   1.000  H
  N9       1.0000 0.28458  0.50840  0.38599  Biso   1.000  N
  H8       1.0000 0.29208  0.48837  0.45833  Biso   1.000  H
  H9       1.0000 0.46478  0.57347  0.47069  Biso   1.000  H
  H10      1.0000 0.37998  0.58917  0.48112  Biso   1.000  H
  N10      1.0000 0.41517  0.63603  0.42001  Biso   1.000  N
  C10      1.0000 0.35519  0.28448  0.27249  Biso   1.000  C
  C11      1.0000 0.28630  0.31821  0.34480  Biso   1.000  C
  C12      1.0000 0.41770  0.20650  0.21250  Biso   1.000  C
  C13      1.0000 0.55410  0.20639  0.19609  Biso   1.000  C
  C14      1.0000 0.64482  0.28448  0.22750  Biso   1.000  C
  C15      1.0000 0.27021  0.45430  0.35281  Biso   1.000  C
  C16      1.0000 0.25211  0.58171  0.38251  Biso   1.000  C
  C17      1.0000 0.35130  0.67722  0.40399  Biso   1.000  C
  C18      1.0000 0.47738  0.66459  0.40099  Biso   1.000  C
  O8       1.0000 0.31651  0.31849  0.24272  Biso   1.000  O
  H11      1.0000 0.26918  0.28148  0.36893  Biso   1.000  H
  H12      1.0000 0.24647  0.32433  0.32031  Biso   1.000  H
  H13      1.0000 0.42055  0.15156  0.21500  Biso   1.000  H
  H14      1.0000 0.37298  0.21886  0.19341  Biso   1.000  H
  N11      1.0000 0.48092  0.23288  0.18689  Biso   1.000  N
  H15      1.0000 0.55652  0.15078  0.19606  Biso   1.000  H
  C19      1.0000 0.59853  0.24062  0.15382  Biso   1.000  C
  N12      1.0000 0.65012  0.28821  0.17881  Biso   1.000  N
  O9       1.0000 0.68351  0.31849  0.25731  Biso   1.000  O
  O10      1.0000 0.23618  0.46299  0.31430  Biso   1.000  O
  H16      1.0000 0.23008  0.59457  0.41399  Biso   1.000  H
  H17      1.0000 0.21216  0.58071  0.35784  Biso   1.000  H
  N13      1.0000 0.30439  0.63871  0.36969  Biso   1.000  N
  C20      1.0000 0.38361  0.74162  0.37360  Biso   1.000  C
  H18      1.0000 0.32283  0.69648  0.43211  Biso   1.000  H
  N14      1.0000 0.46030  0.72359  0.37211  Biso   1.000  N
  O11      1.0000 0.54017  0.64043  0.40961  Biso   1.000  O
  C21      1.0000 0.47529  0.27363  0.14581  Biso   1.000  C
  N15      1.0000 0.54291  0.27981  0.12581  Biso   1.000  N
  H19      1.0000 0.62360  0.20155  0.13429  Biso   1.000  H
  C22      1.0000 0.71372  0.31821  0.15519  Biso   1.000  C
  C23      1.0000 0.29860  0.67583  0.32629  Biso   1.000  C
  N16      1.0000 0.34488  0.73561  0.32810  Biso   1.000  N
  H20      1.0000 0.37521  0.79105  0.38921  Biso   1.000  H
  C24      1.0000 0.51628  0.77580  0.35712  Biso   1.000  C
  O12      1.0000 0.41781  0.30118  0.12871  Biso   1.000  O
  C25      1.0000 0.55479  0.31209  0.07930  Biso   1.000  C
  H21      1.0000 0.73079  0.28148  0.13107  Biso   1.000  H
  H22      1.0000 0.75350  0.32433  0.17968  Biso   1.000  H
  N17      1.0000 0.70211  0.38951  0.13070  Biso   1.000  N
  O13      1.0000 0.25906  0.65791  0.29231  Biso   1.000  O
  C26      1.0000 0.34609  0.79183  0.29158  Biso   1.000  C
  H23      1.0000 0.50307  0.82617  0.36882  Biso   1.000  H
  H24      1.0000 0.56356  0.76183  0.37269  Biso   1.000  H
  N18      1.0000 0.52569  0.77869  0.30571  Biso   1.000  N
  Na2      1.0000 0.36670  0.40983  0.09509  Biso   1.000  Na
  H25      1.0000 0.50688  0.31715  0.06227  Biso   1.000  H
  H26      1.0000 0.58542  0.27775  0.06014  Biso   1.000  H
  N19      1.0000 0.59068  0.38539  0.08078  Biso   1.000  N
  C27      1.0000 0.66910  0.39619  0.08299  Biso   1.000  C
  C28      1.0000 0.72981  0.45430  0.14719  Biso   1.000  C
  H27      1.0000 0.30177  0.78626  0.27065  Biso   1.000  H
  H28      1.0000 0.34340  0.84114  0.30738  Biso   1.000  H
  N20      1.0000 0.40918  0.78983  0.26191  Biso   1.000  N
  C29      1.0000 0.47842  0.82333  0.27459  Biso   1.000  C
  C30      1.0000 0.59220  0.76461  0.28488  Biso   1.000  C
  O14      1.0000 0.48779  0.45402  0.06090  Biso   1.000  O
  O15      1.0000 0.34383  0.52293  0.04670  Biso   1.000  O
  O16      1.0000 0.33398  0.30992  0.03789  Biso   1.000  O
  O17      1.0000 0.27320  0.39202  0.14911  Biso   1.000  O
  O18      1.0000 0.42281  0.50562  0.15501  Biso   1.000  O
  O19      1.0000 0.27489  0.29578  0.09328  Biso   1.000  O
  C31      1.0000 0.55422  0.44890  0.06782  Biso   1.000  C
  H29      1.0000 0.69484  0.36435  0.05883  Biso   1.000  H
  C32      1.0000 0.67841  0.48030  0.07151  Biso   1.000  C
  N21      1.0000 0.71538  0.50840  0.11400  Biso   1.000  N
  O20      1.0000 0.76378  0.46299  0.18570  Biso   1.000  O
  C33      1.0000 0.40781  0.76461  0.21511  Biso   1.000  C
  C34      1.0000 0.52160  0.82333  0.22540  Biso   1.000  C
  H30      1.0000 0.47205  0.87482  0.28764  Biso   1.000  H
  N22      1.0000 0.59079  0.78983  0.23811  Biso   1.000  N
  O21      1.0000 0.64398  0.73450  0.30521  Biso   1.000  O
  N23      1.0000 0.60381  0.50529  0.06510  Biso   1.000  N
  H31      1.0000 0.70794  0.48837  0.04166  Biso   1.000  H
  C35      1.0000 0.74791  0.58171  0.11752  Biso   1.000  C
  N24      1.0000 0.47432  0.77869  0.19432  Biso   1.000  N
  O22      1.0000 0.35599  0.73450  0.19479  Biso   1.000  O
  H32      1.0000 0.52797  0.87482  0.21236  Biso   1.000  H
  C36      1.0000 0.65393  0.79183  0.20841  Biso   1.000  C
  C37      1.0000 0.58460  0.57681  0.04459  Biso   1.000  C
  H33      1.0000 0.76993  0.59457  0.08600  Biso   1.000  H
  H34      1.0000 0.78786  0.58071  0.14215  Biso   1.000  H
  N25      1.0000 0.69562  0.63871  0.13031  Biso   1.000  N
  C38      1.0000 0.48368  0.77580  0.14291  Biso   1.000  C
  N26      1.0000 0.65508  0.73561  0.17189  Biso   1.000  N
  H35      1.0000 0.69819  0.78626  0.22935  Biso   1.000  H
  H36      1.0000 0.65662  0.84114  0.19261  Biso   1.000  H
  H37      1.0000 0.53524  0.57347  0.02931  Biso   1.000  H
  H38      1.0000 0.62003  0.58917  0.01887  Biso   1.000  H
  N27      1.0000 0.58479  0.63603  0.07999  Biso   1.000  N
  C39      1.0000 0.64872  0.67722  0.09600  Biso   1.000  C
  C40      1.0000 0.70142  0.67583  0.17370  Biso   1.000  C
  N28      1.0000 0.53972  0.72359  0.12791  Biso   1.000  N
  H39      1.0000 0.49695  0.82617  0.13117  Biso   1.000  H
  H40      1.0000 0.43640  0.76183  0.12730  Biso   1.000  H
  C41      1.0000 0.61640  0.74162  0.12639  Biso   1.000  C
  C42      1.0000 0.52258  0.66459  0.09901  Biso   1.000  C
  H41      1.0000 0.67718  0.69648  0.06789  Biso   1.000  H
  O23      1.0000 0.74090  0.65791  0.20768  Biso   1.000  O
  H42      1.0000 0.62481  0.79105  0.11078  Biso   1.000  H
  O24      1.0000 0.45979  0.64043  0.09038  Biso   1.000  O
  C43      1.0000 0.58456  0.42319  0.54459  Biso   1.000  C
  N29      1.0000 0.60377  0.49471  0.56509  Biso   1.000  N
  H43      1.0000 0.53520  0.42653  0.52934  Biso   1.000  H
  H44      1.0000 0.62000  0.41083  0.51887  Biso   1.000  H
  N30      1.0000 0.58475  0.36402  0.58002  Biso   1.000  N
  C44      1.0000 0.55418  0.55110  0.56781  Biso   1.000  C
  C45      1.0000 0.67838  0.51970  0.57150  Biso   1.000  C
  C46      1.0000 0.52260  0.33541  0.59900  Biso   1.000  C
  C47      1.0000 0.64868  0.32278  0.59599  Biso   1.000  C
  O25      1.0000 0.48775  0.54603  0.56089  Biso   1.000  O
  N31      1.0000 0.59070  0.61461  0.58081  Biso   1.000  N
  C48      1.0000 0.66906  0.60381  0.58299  Biso   1.000  C
  H45      1.0000 0.70790  0.51163  0.54169  Biso   1.000  H
  N32      1.0000 0.71540  0.49160  0.61400  Biso   1.000  N
  N33      1.0000 0.53968  0.27641  0.62791  Biso   1.000  N
  O26      1.0000 0.45976  0.35962  0.59041  Biso   1.000  O
  C49      1.0000 0.61637  0.25838  0.62639  Biso   1.000  C
  H46      1.0000 0.67715  0.30352  0.56788  Biso   1.000  H
  N34      1.0000 0.69559  0.36129  0.63030  Biso   1.000  N
  Na3      1.0000 0.36666  0.59023  0.59509  Biso   1.000  Na
  C50      1.0000 0.55475  0.68791  0.57929  Biso   1.000  C
  H47      1.0000 0.69481  0.63565  0.55882  Biso   1.000  H
  N35      1.0000 0.70207  0.61049  0.63070  Biso   1.000  N
  C51      1.0000 0.72977  0.54570  0.64722  Biso   1.000  C
  C52      1.0000 0.74787  0.41829  0.61751  Biso   1.000  C
  C53      1.0000 0.48370  0.22420  0.64291  Biso   1.000  C
  H48      1.0000 0.62477  0.20895  0.61077  Biso   1.000  H
  N36      1.0000 0.65510  0.26439  0.67189  Biso   1.000  N
  C54      1.0000 0.70138  0.32422  0.67370  Biso   1.000  C
  O27      1.0000 0.34379  0.47712  0.54669  Biso   1.000  O
  O28      1.0000 0.41778  0.69882  0.62870  Biso   1.000  O
  O29      1.0000 0.33400  0.69008  0.53789  Biso   1.000  O
  O30      1.0000 0.27317  0.60798  0.64910  Biso   1.000  O
  O31      1.0000 0.42278  0.49438  0.65500  Biso   1.000  O
  O32      1.0000 0.27486  0.70422  0.59331  Biso   1.000  O
  N37      1.0000 0.54287  0.72019  0.62581  Biso   1.000  N
  H49      1.0000 0.50684  0.68285  0.56227  Biso   1.000  H
  H50      1.0000 0.58538  0.72225  0.56013  Biso   1.000  H
  C55      1.0000 0.71368  0.68179  0.65519  Biso   1.000  C
  O33      1.0000 0.76380  0.53701  0.68569  Biso   1.000  O
  H51      1.0000 0.76990  0.40543  0.58599  Biso   1.000  H
  H52      1.0000 0.78782  0.41935  0.64218  Biso   1.000  H
  H53      1.0000 0.49691  0.17388  0.63117  Biso   1.000  H
  H54      1.0000 0.43642  0.23817  0.62729  Biso   1.000  H
  N38      1.0000 0.47429  0.22131  0.69431  Biso   1.000  N
  C56      1.0000 0.65389  0.20823  0.70840  Biso   1.000  C
  O34      1.0000 0.74086  0.34209  0.70771  Biso   1.000  O
  C57      1.0000 0.47525  0.72643  0.64580  Biso   1.000  C
  C58      1.0000 0.59849  0.75943  0.65381  Biso   1.000  C
  N39      1.0000 0.65008  0.71179  0.67881  Biso   1.000  N
  H55      1.0000 0.73080  0.71852  0.63106  Biso   1.000  H
  H56      1.0000 0.75346  0.67567  0.67967  Biso   1.000  H
  C59      1.0000 0.40778  0.23539  0.71510  Biso   1.000  C
  C60      1.0000 0.52156  0.17672  0.72539  Biso   1.000  C
  H57      1.0000 0.69815  0.21379  0.72934  Biso   1.000  H
  H58      1.0000 0.65658  0.15886  0.69261  Biso   1.000  H
  N40      1.0000 0.59075  0.21017  0.73811  Biso   1.000  N
  N41      1.0000 0.48089  0.76712  0.68688  Biso   1.000  N
  C61      1.0000 0.55406  0.79361  0.69609  Biso   1.000  C
  H59      1.0000 0.62356  0.79845  0.63428  Biso   1.000  H
  C62      1.0000 0.64479  0.71552  0.72749  Biso   1.000  C
  N42      1.0000 0.40919  0.21017  0.76191  Biso   1.000  N
  O35      1.0000 0.35595  0.26550  0.69482  Biso   1.000  O
  C63      1.0000 0.47838  0.17672  0.77459  Biso   1.000  C
  H60      1.0000 0.52793  0.12518  0.71235  Biso   1.000  H
  C64      1.0000 0.59217  0.23539  0.78491  Biso   1.000  C
  C65      1.0000 0.41766  0.79350  0.71250  Biso   1.000  C
  H61      1.0000 0.55648  0.84922  0.69605  Biso   1.000  H
  N43      1.0000 0.58949  0.76233  0.73840  Biso   1.000  N
  O36      1.0000 0.68347  0.68151  0.75731  Biso   1.000  O
  C66      1.0000 0.34606  0.20823  0.79161  Biso   1.000  C
  H62      1.0000 0.47201  0.12518  0.78766  Biso   1.000  H
  N44      1.0000 0.52566  0.22131  0.80571  Biso   1.000  N
  O37      1.0000 0.64399  0.26550  0.80520  Biso   1.000  O
  H63      1.0000 0.42052  0.84844  0.71503  Biso   1.000  H
  H64      1.0000 0.37294  0.78114  0.69340  Biso   1.000  H
  N45      1.0000 0.41045  0.76233  0.76158  Biso   1.000  N
  C67      1.0000 0.58228  0.79350  0.78748  Biso   1.000  C
  H65      1.0000 0.30179  0.21379  0.77064  Biso   1.000  H
  H66      1.0000 0.34336  0.15886  0.80737  Biso   1.000  H
  N46      1.0000 0.34484  0.26439  0.82809  Biso   1.000  N
  C68      1.0000 0.51624  0.22420  0.85711  Biso   1.000  C
  C69      1.0000 0.44588  0.79361  0.80389  Biso   1.000  C
  C70      1.0000 0.35516  0.71552  0.77249  Biso   1.000  C
  H67      1.0000 0.57943  0.84844  0.78498  Biso   1.000  H
  H68      1.0000 0.62700  0.78114  0.80658  Biso   1.000  H
  N47      1.0000 0.51906  0.76712  0.81310  Biso   1.000  N
  C71      1.0000 0.29856  0.32422  0.82628  Biso   1.000  C
  C72      1.0000 0.38358  0.25838  0.87359  Biso   1.000  C
  H69      1.0000 0.50303  0.17388  0.86881  Biso   1.000  H
  H70      1.0000 0.56352  0.23817  0.87269  Biso   1.000  H
  N48      1.0000 0.46026  0.27641  0.87211  Biso   1.000  N
  H71      1.0000 0.44346  0.84922  0.80393  Biso   1.000  H
  C73      1.0000 0.40146  0.75943  0.84621  Biso   1.000  C
  N49      1.0000 0.34986  0.71179  0.82121  Biso   1.000  N
  O38      1.0000 0.31648  0.68151  0.74271  Biso   1.000  O
  C74      1.0000 0.52464  0.72643  0.85421  Biso   1.000  C
  N50      1.0000 0.30436  0.36129  0.86972  Biso   1.000  N
  O39      1.0000 0.25908  0.34209  0.79230  Biso   1.000  O
  C75      1.0000 0.35126  0.32278  0.90399  Biso   1.000  C
  H72      1.0000 0.37517  0.20895  0.88921  Biso   1.000  H
  C76      1.0000 0.47734  0.33541  0.90102  Biso   1.000  C
  H73      1.0000 0.37633  0.79845  0.86573  Biso   1.000  H
  N51      1.0000 0.45707  0.72019  0.87421  Biso   1.000  N
  C77      1.0000 0.28626  0.68179  0.84479  Biso   1.000  C
  O40      1.0000 0.58217  0.69882  0.87131  Biso   1.000  O
  C78      1.0000 0.25207  0.41829  0.88251  Biso   1.000  C
  N52      1.0000 0.41513  0.36402  0.92000  Biso   1.000  N
  H74      1.0000 0.32280  0.30352  0.93210  Biso   1.000  H
  O41      1.0000 0.54018  0.35962  0.90960  Biso   1.000  O
  C79      1.0000 0.44513  0.68791  0.92069  Biso   1.000  C
  H75      1.0000 0.26914  0.71852  0.86892  Biso   1.000  H
  H76      1.0000 0.24648  0.67567  0.82030  Biso   1.000  H
  N53      1.0000 0.29787  0.61049  0.86928  Biso   1.000  N
  Na4      1.0000 0.63328  0.59023  0.90489  Biso   1.000  Na
  N54      1.0000 0.28454  0.49160  0.88598  Biso   1.000  N
  H77      1.0000 0.23005  0.40543  0.91399  Biso   1.000  H
  H78      1.0000 0.21212  0.41935  0.85784  Biso   1.000  H
  C80      1.0000 0.41538  0.42319  0.95539  Biso   1.000  C
  H79      1.0000 0.49310  0.68285  0.93775  Biso   1.000  H
  H80      1.0000 0.41456  0.72225  0.93989  Biso   1.000  H
  N55      1.0000 0.40924  0.61461  0.91920  Biso   1.000  N
  C81      1.0000 0.27017  0.54570  0.85280  Biso   1.000  C
  C82      1.0000 0.33088  0.60381  0.91699  Biso   1.000  C
  O42      1.0000 0.51213  0.54603  0.93909  Biso   1.000  O
  O43      1.0000 0.65615  0.47712  0.95329  Biso   1.000  O
  O44      1.0000 0.66595  0.69008  0.96209  Biso   1.000  O
  O45      1.0000 0.72678  0.60798  0.85092  Biso   1.000  O
  O46      1.0000 0.57717  0.49438  0.84501  Biso   1.000  O
  O47      1.0000 0.72509  0.70422  0.90670  Biso   1.000  O
  C83      1.0000 0.32157  0.51970  0.92851  Biso   1.000  C
  N56      1.0000 0.39617  0.49471  0.93489  Biso   1.000  N
  H81      1.0000 0.46474  0.42653  0.97068  Biso   1.000  H
  H82      1.0000 0.37995  0.41083  0.98111  Biso   1.000  H
  C84      1.0000 0.44576  0.55110  0.93221  Biso   1.000  C
  O48      1.0000 0.23614  0.53701  0.81429  Biso   1.000  O
  H83      1.0000 0.30508  0.63565  0.94119  Biso   1.000  H
  H84      1.0000 0.29204  0.51163  0.95833  Biso   1.000  H
  O49      1.0000 0.83397  0.19008  0.53789  Biso   1.000  O
  Na5      1.0000 0.86669  0.09023  0.59509  Biso   1.000  Na
  O50      1.0000 0.91780  0.19882  0.62870  Biso   1.000  O
  O51      1.0000 0.98778  0.04598  0.56089  Biso   1.000  O
  O52      1.0000 0.77319  0.10798  0.64910  Biso   1.000  O
  O53      1.0000 0.77488  0.20422  0.59331  Biso   1.000  O
  O54      1.0000 0.84376  0.97712  0.54669  Biso   1.000  O
  O55      1.0000 0.92280  0.99443  0.65500  Biso   1.000  O
  C85      1.0000 0.97528  0.22643  0.64580  Biso   1.000  C
  C86      1.0000 0.05416  0.05110  0.56781  Biso   1.000  C
  N57      1.0000 0.98086  0.26712  0.68688  Biso   1.000  N
  N58      1.0000 0.04285  0.22019  0.62581  Biso   1.000  N
  N59      1.0000 0.10375  0.99471  0.56509  Biso   1.000  N
  N60      1.0000 0.09067  0.11461  0.58081  Biso   1.000  N
  C87      1.0000 0.91769  0.29350  0.71250  Biso   1.000  C
  C88      1.0000 0.05404  0.29361  0.69609  Biso   1.000  C
  C89      1.0000 0.05478  0.18791  0.57929  Biso   1.000  C
  C90      1.0000 0.09846  0.25938  0.65381  Biso   1.000  C
  C91      1.0000 0.08459  0.92319  0.54459  Biso   1.000  C
  C92      1.0000 0.17835  0.01970  0.57150  Biso   1.000  C
  C93      1.0000 0.16909  0.10381  0.58299  Biso   1.000  C
  H85      1.0000 0.92054  0.34844  0.71503  Biso   1.000  H
  H86      1.0000 0.87297  0.28114  0.69340  Biso   1.000  H
  N61      1.0000 0.91048  0.26233  0.76158  Biso   1.000  N
  H87      1.0000 0.05651  0.34922  0.69605  Biso   1.000  H
  N62      1.0000 0.08946  0.26233  0.73840  Biso   1.000  N
  H88      1.0000 0.00681  0.18285  0.56227  Biso   1.000  H
  H89      1.0000 0.08541  0.22225  0.56013  Biso   1.000  H
  H90      1.0000 0.12359  0.29845  0.63428  Biso   1.000  H
  N63      1.0000 0.15006  0.21179  0.67881  Biso   1.000  N
  H91      1.0000 0.03523  0.92653  0.52934  Biso   1.000  H
  H92      1.0000 0.11997  0.91083  0.51887  Biso   1.000  H
  N64      1.0000 0.08478  0.86402  0.58002  Biso   1.000  N
  N65      1.0000 0.21537  0.99160  0.61400  Biso   1.000  N
  H93      1.0000 0.20787  0.01163  0.54169  Biso   1.000  H
  H94      1.0000 0.19483  0.13565  0.55882  Biso   1.000  H
  N66      1.0000 0.20205  0.11049  0.63070  Biso   1.000  N
  C94      1.0000 0.94585  0.29361  0.80389  Biso   1.000  C
  C95      1.0000 0.85518  0.21552  0.77249  Biso   1.000  C
  C96      1.0000 0.08225  0.29350  0.78748  Biso   1.000  C
  C97      1.0000 0.14476  0.21552  0.72749  Biso   1.000  C
  C98      1.0000 0.21365  0.18179  0.65519  Biso   1.000  C
  C99      1.0000 0.02257  0.83541  0.59900  Biso   1.000  C
  C100     1.0000 0.14865  0.82283  0.59599  Biso   1.000  C
  C101     1.0000 0.24785  0.91829  0.61751  Biso   1.000  C
  C102     1.0000 0.22980  0.04570  0.64722  Biso   1.000  C
  H95      1.0000 0.94343  0.34922  0.80393  Biso   1.000  H
  C103     1.0000 0.90148  0.25938  0.84621  Biso   1.000  C
  N67      1.0000 0.01908  0.26712  0.81310  Biso   1.000  N
  N68      1.0000 0.84989  0.21179  0.82121  Biso   1.000  N
  O56      1.0000 0.81645  0.18151  0.74271  Biso   1.000  O
  H96      1.0000 0.07940  0.34844  0.78498  Biso   1.000  H
  H97      1.0000 0.12697  0.28114  0.80658  Biso   1.000  H
  O57      1.0000 0.18344  0.18151  0.75731  Biso   1.000  O
  H98      1.0000 0.23078  0.21852  0.63106  Biso   1.000  H
  H99      1.0000 0.25349  0.17567  0.67967  Biso   1.000  H
  O58      1.0000 0.95979  0.85962  0.59041  Biso   1.000  O
  N69      1.0000 0.03965  0.77641  0.62791  Biso   1.000  N
  C104     1.0000 0.11639  0.75843  0.62639  Biso   1.000  C
  H100     1.0000 0.17712  0.80352  0.56788  Biso   1.000  H
  N70      1.0000 0.19556  0.86129  0.63030  Biso   1.000  N
  H101     1.0000 0.26987  0.90543  0.58599  Biso   1.000  H
  H102     1.0000 0.28779  0.91935  0.64218  Biso   1.000  H
  O59      1.0000 0.26377  0.03701  0.68569  Biso   1.000  O
  H103     1.0000 0.87635  0.29845  0.86573  Biso   1.000  H
  N71      1.0000 0.95710  0.22019  0.87421  Biso   1.000  N
  C105     1.0000 0.02467  0.22643  0.85421  Biso   1.000  C
  C106     1.0000 0.78629  0.18179  0.84479  Biso   1.000  C
  C107     1.0000 0.98367  0.72420  0.64291  Biso   1.000  C
  H104     1.0000 0.12475  0.70895  0.61077  Biso   1.000  H
  N72      1.0000 0.15507  0.76439  0.67189  Biso   1.000  N
  C108     1.0000 0.20135  0.82422  0.67370  Biso   1.000  C
  C109     1.0000 0.94516  0.18791  0.92069  Biso   1.000  C
  O60      1.0000 0.08214  0.19882  0.87131  Biso   1.000  O
  H105     1.0000 0.76917  0.21852  0.86892  Biso   1.000  H
  H106     1.0000 0.74646  0.17567  0.82030  Biso   1.000  H
  N73      1.0000 0.79784  0.11049  0.86928  Biso   1.000  N
  H107     1.0000 0.99694  0.67388  0.63117  Biso   1.000  H
  H108     1.0000 0.93639  0.73817  0.62729  Biso   1.000  H
  N74      1.0000 0.97426  0.72131  0.69431  Biso   1.000  N
  C110     1.0000 0.15386  0.70823  0.70840  Biso   1.000  C
  O61      1.0000 0.24089  0.84209  0.70771  Biso   1.000  O
  H109     1.0000 0.99313  0.18285  0.93775  Biso   1.000  H
  H110     1.0000 0.91453  0.22225  0.93989  Biso   1.000  H
  N75      1.0000 0.90927  0.11461  0.91920  Biso   1.000  N
  Na6      1.0000 0.13325  0.09023  0.90489  Biso   1.000  Na
  C111     1.0000 0.77015  0.04570  0.85280  Biso   1.000  C
  C112     1.0000 0.83086  0.10381  0.91699  Biso   1.000  C
  C113     1.0000 0.90780  0.73539  0.71510  Biso   1.000  C
  C114     1.0000 0.02159  0.67672  0.72539  Biso   1.000  C
  H111     1.0000 0.19818  0.71379  0.72934  Biso   1.000  H
  H112     1.0000 0.15655  0.65886  0.69261  Biso   1.000  H
  N76      1.0000 0.09078  0.71023  0.73811  Biso   1.000  N
  C115     1.0000 0.94579  0.05110  0.93221  Biso   1.000  C
  O62      1.0000 0.15618  0.97712  0.95329  Biso   1.000  O
  O63      1.0000 0.07714  0.99443  0.84501  Biso   1.000  O
  O64      1.0000 0.01216  0.04598  0.93909  Biso   1.000  O
  O65      1.0000 0.16597  0.19008  0.96209  Biso   1.000  O
  O66      1.0000 0.22675  0.10798  0.85092  Biso   1.000  O
  O67      1.0000 0.22506  0.20422  0.90670  Biso   1.000  O
  O68      1.0000 0.73617  0.03701  0.81429  Biso   1.000  O
  N77      1.0000 0.78457  0.99160  0.88598  Biso   1.000  N
  H113     1.0000 0.80511  0.13565  0.94119  Biso   1.000  H
  C116     1.0000 0.82154  0.01970  0.92851  Biso   1.000  C
  N78      1.0000 0.90917  0.71023  0.76191  Biso   1.000  N
  O69      1.0000 0.85598  0.76550  0.69482  Biso   1.000  O
  C117     1.0000 0.97835  0.67672  0.77459  Biso   1.000  C
  H114     1.0000 0.02791  0.62518  0.71235  Biso   1.000  H
  C118     1.0000 0.09214  0.73539  0.78491  Biso   1.000  C
  N79      1.0000 0.89614  0.99471  0.93489  Biso   1.000  N
  C119     1.0000 0.75204  0.91829  0.88251  Biso   1.000  C
  H115     1.0000 0.79207  0.01163  0.95833  Biso   1.000  H
  C120     1.0000 0.84608  0.70823  0.79161  Biso   1.000  C
  H116     1.0000 0.97204  0.62518  0.78766  Biso   1.000  H
  N80      1.0000 0.02568  0.72131  0.80571  Biso   1.000  N
  O70      1.0000 0.14397  0.76550  0.80520  Biso   1.000  O
  C121     1.0000 0.91535  0.92319  0.95539  Biso   1.000  C
  H117     1.0000 0.73007  0.90543  0.91399  Biso   1.000  H
  H118     1.0000 0.71215  0.91935  0.85784  Biso   1.000  H
  N81      1.0000 0.80438  0.86129  0.86972  Biso   1.000  N
  H119     1.0000 0.80176  0.71379  0.77064  Biso   1.000  H
  H120     1.0000 0.84339  0.65886  0.80737  Biso   1.000  H
  N82      1.0000 0.84487  0.76439  0.82809  Biso   1.000  N
  C122     1.0000 0.01627  0.72420  0.85711  Biso   1.000  C
  H121     1.0000 0.96471  0.92653  0.97068  Biso   1.000  H
  H122     1.0000 0.87992  0.91083  0.98111  Biso   1.000  H
  N83      1.0000 0.91516  0.86402  0.92000  Biso   1.000  N
  C123     1.0000 0.79859  0.82422  0.82628  Biso   1.000  C
  C124     1.0000 0.85129  0.82283  0.90399  Biso   1.000  C
  C125     1.0000 0.88355  0.75843  0.87359  Biso   1.000  C
  N84      1.0000 0.96029  0.77641  0.87211  Biso   1.000  N
  H123     1.0000 0.00300  0.67388  0.86881  Biso   1.000  H
  H124     1.0000 0.06355  0.73817  0.87269  Biso   1.000  H
  C126     1.0000 0.97737  0.83541  0.90102  Biso   1.000  C
  O71      1.0000 0.75905  0.84209  0.79230  Biso   1.000  O
  H125     1.0000 0.82282  0.80352  0.93210  Biso   1.000  H
  H126     1.0000 0.87520  0.70895  0.88921  Biso   1.000  H
  O72      1.0000 0.04016  0.85962  0.90960  Biso   1.000  O
  C127     1.0000 0.90152  0.74062  0.34621  Biso   1.000  C
  N85      1.0000 0.84992  0.78821  0.32122  Biso   1.000  N
  C128     1.0000 0.94589  0.70639  0.30390  Biso   1.000  C
  H127     1.0000 0.87639  0.70155  0.36574  Biso   1.000  H
  N86      1.0000 0.95708  0.77981  0.37422  Biso   1.000  N
  C129     1.0000 0.78627  0.81821  0.34480  Biso   1.000  C
  C130     1.0000 0.85522  0.78448  0.27249  Biso   1.000  C
  N87      1.0000 0.91052  0.73773  0.26159  Biso   1.000  N
  H128     1.0000 0.94347  0.65078  0.30394  Biso   1.000  H
  N88      1.0000 0.01907  0.73288  0.31310  Biso   1.000  N
  C131     1.0000 0.94520  0.81209  0.42069  Biso   1.000  C
  C132     1.0000 0.02470  0.77363  0.35418  Biso   1.000  C
  H129     1.0000 0.76920  0.78148  0.36893  Biso   1.000  H
  H130     1.0000 0.74649  0.82433  0.32031  Biso   1.000  H
  N89      1.0000 0.79788  0.88951  0.36929  Biso   1.000  N
  O73      1.0000 0.81649  0.81849  0.24272  Biso   1.000  O
  C133     1.0000 0.91773  0.70650  0.21250  Biso   1.000  C
  C134     1.0000 0.08229  0.70650  0.28749  Biso   1.000  C
  N90      1.0000 0.90931  0.88539  0.41921  Biso   1.000  N
  H131     1.0000 0.99311  0.81715  0.43772  Biso   1.000  H
  H132     1.0000 0.91457  0.77775  0.43989  Biso   1.000  H
  O74      1.0000 0.08217  0.80124  0.37128  Biso   1.000  O
  C135     1.0000 0.77018  0.95430  0.35281  Biso   1.000  C
  C136     1.0000 0.83089  0.89619  0.41700  Biso   1.000  C
  H133     1.0000 0.92058  0.65156  0.21500  Biso   1.000  H
  H134     1.0000 0.87301  0.71891  0.19341  Biso   1.000  H
  N91      1.0000 0.98090  0.73288  0.18689  Biso   1.000  N
  H135     1.0000 0.07944  0.65156  0.28499  Biso   1.000  H
  H136     1.0000 0.12701  0.71891  0.30658  Biso   1.000  H
  N92      1.0000 0.08950  0.73773  0.23840  Biso   1.000  N
  C137     1.0000 0.94577  0.94890  0.43221  Biso   1.000  C
  Na7      1.0000 0.13329  0.90983  0.40490  Biso   1.000  Na
  O75      1.0000 0.73621  0.96299  0.31430  Biso   1.000  O
  N93      1.0000 0.78461  0.00840  0.38599  Biso   1.000  N
  H137     1.0000 0.80515  0.86441  0.44116  Biso   1.000  H
  C138     1.0000 0.82158  0.98030  0.42848  Biso   1.000  C
  C139     1.0000 0.97531  0.77363  0.14581  Biso   1.000  C
  C140     1.0000 0.05407  0.70639  0.19609  Biso   1.000  C
  C141     1.0000 0.14480  0.78448  0.22750  Biso   1.000  C
  N94      1.0000 0.89618  0.00529  0.43489  Biso   1.000  N
  O76      1.0000 0.01220  0.95402  0.43910  Biso   1.000  O
  O77      1.0000 0.16596  0.80992  0.46210  Biso   1.000  O
  O78      1.0000 0.22679  0.89202  0.35089  Biso   1.000  O
  O79      1.0000 0.22510  0.79584  0.40671  Biso   1.000  O
  O80      1.0000 0.15616  0.02288  0.45330  Biso   1.000  O
  O81      1.0000 0.07718  0.00562  0.34502  Biso   1.000  O
  C142     1.0000 0.75208  0.08171  0.38251  Biso   1.000  C
  H138     1.0000 0.79205  0.98837  0.45833  Biso   1.000  H
  O82      1.0000 0.91779  0.80124  0.12871  Biso   1.000  O
  N95      1.0000 0.04288  0.77981  0.12581  Biso   1.000  N
  H139     1.0000 0.05649  0.65078  0.19606  Biso   1.000  H
  C143     1.0000 0.09850  0.74062  0.15382  Biso   1.000  C
  N96      1.0000 0.15009  0.78821  0.17881  Biso   1.000  N
  O83      1.0000 0.18348  0.81849  0.25731  Biso   1.000  O
  C144     1.0000 0.91539  0.07681  0.45540  Biso   1.000  C
  H140     1.0000 0.73006  0.09457  0.41399  Biso   1.000  H
  H141     1.0000 0.71213  0.08071  0.35784  Biso   1.000  H
  N97      1.0000 0.80437  0.13871  0.36969  Biso   1.000  N
  Na8      1.0000 0.86673  0.90983  0.09509  Biso   1.000  Na
  C145     1.0000 0.05482  0.81209  0.07930  Biso   1.000  C
  H142     1.0000 0.12363  0.70155  0.13429  Biso   1.000  H
  C146     1.0000 0.21369  0.81821  0.15519  Biso   1.000  C
  H143     1.0000 0.96475  0.07347  0.47069  Biso   1.000  H
  H144     1.0000 0.87996  0.08917  0.48112  Biso   1.000  H
  N98      1.0000 0.91520  0.13598  0.42001  Biso   1.000  N
  C147     1.0000 0.79857  0.17578  0.32629  Biso   1.000  C
  C148     1.0000 0.85127  0.17722  0.40399  Biso   1.000  C
  O84      1.0000 0.98782  0.95402  0.06090  Biso   1.000  O
  O85      1.0000 0.83401  0.80992  0.03789  Biso   1.000  O
  O86      1.0000 0.77323  0.89202  0.14911  Biso   1.000  O
  O87      1.0000 0.77492  0.79584  0.09328  Biso   1.000  O
  O88      1.0000 0.84380  0.02288  0.04670  Biso   1.000  O
  O89      1.0000 0.92279  0.00562  0.15501  Biso   1.000  O
  H145     1.0000 0.00685  0.81715  0.06227  Biso   1.000  H
  H146     1.0000 0.08539  0.77775  0.06014  Biso   1.000  H
  N99      1.0000 0.09071  0.88539  0.08078  Biso   1.000  N
  H147     1.0000 0.23081  0.78148  0.13107  Biso   1.000  H
  H148     1.0000 0.25347  0.82433  0.17968  Biso   1.000  H
  N100     1.0000 0.20208  0.88951  0.13070  Biso   1.000  N
  C149     1.0000 0.97741  0.16459  0.40099  Biso   1.000  C
  N101     1.0000 0.84491  0.23561  0.32810  Biso   1.000  N
  O90      1.0000 0.75909  0.15791  0.29231  Biso   1.000  O
  C150     1.0000 0.88359  0.24162  0.37360  Biso   1.000  C
  H149     1.0000 0.82281  0.19648  0.43211  Biso   1.000  H
  C151     1.0000 0.05419  0.94890  0.06782  Biso   1.000  C
  C152     1.0000 0.16912  0.89619  0.08299  Biso   1.000  C
  C153     1.0000 0.22978  0.95430  0.14719  Biso   1.000  C
  N102     1.0000 0.96027  0.22359  0.37211  Biso   1.000  N
  O91      1.0000 0.04020  0.14038  0.40961  Biso   1.000  O
  C154     1.0000 0.84612  0.29183  0.29158  Biso   1.000  C
  H150     1.0000 0.87518  0.29105  0.38921  Biso   1.000  H
  N103     1.0000 0.10378  0.00529  0.06510  Biso   1.000  N
  H151     1.0000 0.19487  0.86441  0.05883  Biso   1.000  H
  C155     1.0000 0.17839  0.98030  0.07151  Biso   1.000  C
  O92      1.0000 0.26381  0.96299  0.18570  Biso   1.000  O
  N104     1.0000 0.21541  0.00840  0.11400  Biso   1.000  N
  C156     1.0000 0.01631  0.27580  0.35712  Biso   1.000  C
  H152     1.0000 0.80180  0.28621  0.27065  Biso   1.000  H
  H153     1.0000 0.84343  0.34114  0.30738  Biso   1.000  H
  N105     1.0000 0.90920  0.28983  0.26191  Biso   1.000  N
  C157     1.0000 0.08457  0.07681  0.04459  Biso   1.000  C
  H154     1.0000 0.20791  0.98837  0.04166  Biso   1.000  H
  C158     1.0000 0.24788  0.08171  0.11752  Biso   1.000  C
  H155     1.0000 0.00304  0.32612  0.36882  Biso   1.000  H
  H156     1.0000 0.06353  0.26183  0.37269  Biso   1.000  H
  N106     1.0000 0.02567  0.27869  0.30571  Biso   1.000  N
  C159     1.0000 0.90779  0.26461  0.21511  Biso   1.000  C
  C160     1.0000 0.97839  0.32328  0.27459  Biso   1.000  C
  H157     1.0000 0.03521  0.07347  0.02931  Biso   1.000  H
  H158     1.0000 0.12001  0.08917  0.01887  Biso   1.000  H
  N107     1.0000 0.08482  0.13598  0.07999  Biso   1.000  N
  H159     1.0000 0.26991  0.09457  0.08600  Biso   1.000  H
  H160     1.0000 0.28783  0.08071  0.14215  Biso   1.000  H
  N108     1.0000 0.19560  0.13871  0.13031  Biso   1.000  N
  C161     1.0000 0.09218  0.26461  0.28488  Biso   1.000  C
  N109     1.0000 0.97430  0.27869  0.19432  Biso   1.000  N
  O93      1.0000 0.85601  0.23450  0.19479  Biso   1.000  O
  H161     1.0000 0.97202  0.37482  0.28764  Biso   1.000  H
  C162     1.0000 0.02157  0.32328  0.22540  Biso   1.000  C
  C163     1.0000 0.02261  0.16459  0.09901  Biso   1.000  C
  C164     1.0000 0.14869  0.17722  0.09600  Biso   1.000  C
  C165     1.0000 0.20139  0.17578  0.17370  Biso   1.000  C
  N110     1.0000 0.09081  0.28983  0.23811  Biso   1.000  N
  O94      1.0000 0.14400  0.23450  0.30521  Biso   1.000  O
  C166     1.0000 0.98371  0.27580  0.14291  Biso   1.000  C
  H162     1.0000 0.02794  0.37482  0.21236  Biso   1.000  H
  N111     1.0000 0.03969  0.22359  0.12791  Biso   1.000  N
  O95      1.0000 0.95982  0.14038  0.09038  Biso   1.000  O
  C167     1.0000 0.11638  0.24162  0.12639  Biso   1.000  C
  H163     1.0000 0.17716  0.19648  0.06789  Biso   1.000  H
  N112     1.0000 0.15511  0.23561  0.17189  Biso   1.000  N
  O96      1.0000 0.24087  0.15791  0.20768  Biso   1.000  O
  C168     1.0000 0.15390  0.29183  0.20841  Biso   1.000  C
  H164     1.0000 0.99692  0.32612  0.13117  Biso   1.000  H
  H165     1.0000 0.93643  0.26183  0.12730  Biso   1.000  H
  H166     1.0000 0.12478  0.29105  0.11078  Biso   1.000  H
  H167     1.0000 0.19822  0.28621  0.22935  Biso   1.000  H
  H168     1.0000 0.15659  0.34114  0.19261  Biso   1.000  H
