data_image0
_cell_length_a       23.066
_cell_length_b       28.863
_cell_length_c       14.266
_cell_angle_alpha    90
_cell_angle_beta     96.37
_cell_angle_gamma    90

_symmetry_space_group_name_H-M    "P 1"
_symmetry_int_tables_number       1

loop_
  _symmetry_equiv_pos_as_xyz
  'x, y, z'

loop_
  _atom_site_label
  _atom_site_occupancy
  _atom_site_fract_x
  _atom_site_fract_y
  _atom_site_fract_z
  _atom_site_thermal_displace_type
  _atom_site_B_iso_or_equiv
  _atom_site_type_symbol
  C1       1.0000 0.38421  0.51661  0.62301  Biso   1.000  C
  H1       1.0000 0.38203  0.52101  0.55530  Biso   1.000  H
  H2       1.0000 0.36622  0.48709  0.63451  Biso   1.000  H
  N1       1.0000 0.35263  0.55299  0.66321  Biso   1.000  N
  N2       1.0000 0.44613  0.51561  0.66300  Biso   1.000  N
  C2       1.0000 0.32461  0.54741  0.74764  Biso   1.000  C
  C3       1.0000 0.33152  0.59159  0.61398  Biso   1.000  C
  C4       1.0000 0.46640  0.49371  0.75124  Biso   1.000  C
  C5       1.0000 0.48761  0.52860  0.61610  Biso   1.000  C
  C6       1.0000 0.28244  0.58861  0.74658  Biso   1.000  C
  H3       1.0000 0.30412  0.51769  0.74863  Biso   1.000  H
  N3       1.0000 0.36452  0.55459  0.83341  Biso   1.000  N
  N4       1.0000 0.29229  0.61321  0.66279  Biso   1.000  N
  O1       1.0000 0.34752  0.60361  0.53513  Biso   1.000  O
  C7       1.0000 0.53361  0.49371  0.74884  Biso   1.000  C
  H4       1.0000 0.45102  0.46218  0.75519  Biso   1.000  H
  N5       1.0000 0.45850  0.52091  0.83510  Biso   1.000  N
  N6       1.0000 0.54151  0.52091  0.66491  Biso   1.000  N
  O2       1.0000 0.48344  0.54890  0.53950  Biso   1.000  O
  H5       1.0000 0.24182  0.57839  0.74482  Biso   1.000  H
  N7       1.0000 0.30082  0.61400  0.83129  Biso   1.000  N
  C8       1.0000 0.34870  0.59200  0.88398  Biso   1.000  C
  C9       1.0000 0.40591  0.52281  0.87552  Biso   1.000  C
  C10      1.0000 0.25354  0.64720  0.61920  Biso   1.000  C
  H6       1.0000 0.54903  0.46218  0.74482  Biso   1.000  H
  N8       1.0000 0.55392  0.51561  0.83701  Biso   1.000  N
  C11      1.0000 0.51244  0.52860  0.88391  Biso   1.000  C
  C12      1.0000 0.59410  0.52281  0.62449  Biso   1.000  C
  C13      1.0000 0.26830  0.65191  0.86790  Biso   1.000  C
  O3       1.0000 0.36941  0.60721  0.96460  Biso   1.000  O
  H7       1.0000 0.41453  0.53071  0.94168  Biso   1.000  H
  H8       1.0000 0.38852  0.49208  0.87220  Biso   1.000  H
  H9       1.0000 0.21390  0.63860  0.62922  Biso   1.000  H
  H10      1.0000 0.25593  0.64650  0.55177  Biso   1.000  H
  N9       1.0000 0.26373  0.69411  0.65214  Biso   1.000  N
  C14      1.0000 0.61580  0.51661  0.87700  Biso   1.000  C
  O4       1.0000 0.51662  0.54890  0.96051  Biso   1.000  O
  H11      1.0000 0.58553  0.53071  0.55833  Biso   1.000  H
  H12      1.0000 0.61154  0.49208  0.62781  Biso   1.000  H
  N10      1.0000 0.63553  0.55459  0.66660  Biso   1.000  N
  H13      1.0000 0.22701  0.64449  0.85873  Biso   1.000  H
  H14      1.0000 0.27973  0.65471  0.93519  Biso   1.000  H
  N11      1.0000 0.27733  0.69480  0.82438  Biso   1.000  N
  C15      1.0000 0.29060  0.72861  0.60467  Biso   1.000  C
  C16      1.0000 0.24422  0.71191  0.73558  Biso   1.000  C
  H15      1.0000 0.61802  0.52101  0.94471  Biso   1.000  H
  H16      1.0000 0.63383  0.48709  0.86550  Biso   1.000  H
  N12      1.0000 0.64742  0.55299  0.83679  Biso   1.000  N
  C17      1.0000 0.65131  0.59200  0.61603  Biso   1.000  C
  C18      1.0000 0.67541  0.54741  0.75244  Biso   1.000  C
  C19      1.0000 0.30132  0.73211  0.87580  Biso   1.000  C
  N13      1.0000 0.29211  0.76891  0.65574  Biso   1.000  N
  O5       1.0000 0.31013  0.72099  0.52843  Biso   1.000  O
  C20      1.0000 0.25800  0.76281  0.73290  Biso   1.000  C
  H17      1.0000 0.20220  0.70679  0.73607  Biso   1.000  H
  C21      1.0000 0.66853  0.59159  0.88603  Biso   1.000  C
  N14      1.0000 0.69923  0.61400  0.66872  Biso   1.000  N
  O6       1.0000 0.63060  0.60721  0.53541  Biso   1.000  O
  C22      1.0000 0.71762  0.58861  0.75342  Biso   1.000  C
  H18      1.0000 0.69593  0.51769  0.75138  Biso   1.000  H
  N15      1.0000 0.29383  0.77199  0.82353  Biso   1.000  N
  O7       1.0000 0.32640  0.72799  0.95642  Biso   1.000  O
  C23      1.0000 0.30323  0.81170  0.61370  Biso   1.000  C
  H19      1.0000 0.22251  0.78180  0.72564  Biso   1.000  H
  N16      1.0000 0.70771  0.61321  0.83722  Biso   1.000  N
  O8       1.0000 0.65253  0.60361  0.96488  Biso   1.000  O
  C24      1.0000 0.73170  0.65191  0.63211  Biso   1.000  C
  H20      1.0000 0.75823  0.57839  0.75519  Biso   1.000  H
  C25      1.0000 0.31113  0.81481  0.86268  Biso   1.000  C
  H21      1.0000 0.27163  0.83290  0.62188  Biso   1.000  H
  H22      1.0000 0.30440  0.80709  0.54662  Biso   1.000  H
  N17      1.0000 0.35722  0.83169  0.65362  Biso   1.000  N
  C26      1.0000 0.74652  0.64720  0.88081  Biso   1.000  C
  H23      1.0000 0.77300  0.64449  0.64128  Biso   1.000  H
  H24      1.0000 0.72032  0.65471  0.56482  Biso   1.000  H
  N18      1.0000 0.72273  0.69480  0.67563  Biso   1.000  N
  H25      1.0000 0.32002  0.81132  0.93039  Biso   1.000  H
  H26      1.0000 0.27901  0.83650  0.85139  Biso   1.000  H
  N19      1.0000 0.36161  0.83380  0.82438  Biso   1.000  N
  C27      1.0000 0.40523  0.83581  0.60658  Biso   1.000  C
  C28      1.0000 0.36124  0.85989  0.73692  Biso   1.000  C
  H27      1.0000 0.78610  0.63860  0.87079  Biso   1.000  H
  H28      1.0000 0.74412  0.64650  0.94823  Biso   1.000  H
  N20      1.0000 0.73633  0.69411  0.84794  Biso   1.000  N
  C29      1.0000 0.75583  0.71191  0.76443  Biso   1.000  C
  C30      1.0000 0.69873  0.73211  0.62421  Biso   1.000  C
  C31      1.0000 0.41451  0.83862  0.88081  Biso   1.000  C
  N21      1.0000 0.44481  0.86401  0.66089  Biso   1.000  N
  O9       1.0000 0.41141  0.81752  0.53040  Biso   1.000  O
  C32      1.0000 0.42172  0.88279  0.74320  Biso   1.000  C
  H29      1.0000 0.33034  0.88331  0.73198  Biso   1.000  H
  C33      1.0000 0.70945  0.72861  0.89534  Biso   1.000  C
  C34      1.0000 0.74201  0.76281  0.76711  Biso   1.000  C
  H30      1.0000 0.79780  0.70679  0.76393  Biso   1.000  H
  N22      1.0000 0.70622  0.77199  0.67647  Biso   1.000  N
  O10      1.0000 0.67361  0.72799  0.54359  Biso   1.000  O
  N23      1.0000 0.44904  0.86460  0.83299  Biso   1.000  N
  O11      1.0000 0.42611  0.82060  0.96079  Biso   1.000  O
  C35      1.0000 0.49471  0.88359  0.62421  Biso   1.000  C
  H31      1.0000 0.41961  0.91671  0.74221  Biso   1.000  H
  N24      1.0000 0.70794  0.76891  0.84434  Biso   1.000  N
  O12      1.0000 0.68993  0.72099  0.97158  Biso   1.000  O
  H32      1.0000 0.77754  0.78180  0.77444  Biso   1.000  H
  C36      1.0000 0.68893  0.81481  0.63733  Biso   1.000  C
  C37      1.0000 0.50534  0.88359  0.87580  Biso   1.000  C
  H33      1.0000 0.49462  0.91681  0.63423  Biso   1.000  H
  H34      1.0000 0.49142  0.87818  0.55671  Biso   1.000  H
  N25      1.0000 0.55102  0.86460  0.66702  Biso   1.000  N
  C38      1.0000 0.69682  0.81170  0.88631  Biso   1.000  C
  H35      1.0000 0.68003  0.81132  0.56962  Biso   1.000  H
  H36      1.0000 0.72100  0.83650  0.64861  Biso   1.000  H
  N26      1.0000 0.63840  0.83380  0.67563  Biso   1.000  N
  H37      1.0000 0.50543  0.91681  0.86578  Biso   1.000  H
  H38      1.0000 0.50863  0.87818  0.94330  Biso   1.000  H
  N27      1.0000 0.55524  0.86401  0.83912  Biso   1.000  N
  C39      1.0000 0.57833  0.88279  0.75681  Biso   1.000  C
  C40      1.0000 0.58550  0.83862  0.61920  Biso   1.000  C
  H39      1.0000 0.72843  0.83290  0.87813  Biso   1.000  H
  H40      1.0000 0.69561  0.80709  0.95338  Biso   1.000  H
  N28      1.0000 0.64284  0.83169  0.84639  Biso   1.000  N
  C41      1.0000 0.63881  0.85989  0.76309  Biso   1.000  C
  C42      1.0000 0.59482  0.83581  0.89343  Biso   1.000  C
  H41      1.0000 0.58044  0.91671  0.75780  Biso   1.000  H
  O13      1.0000 0.57394  0.82060  0.53922  Biso   1.000  O
  H42      1.0000 0.66971  0.88331  0.76803  Biso   1.000  H
  O14      1.0000 0.58864  0.81752  0.96961  Biso   1.000  O
  C43      1.0000 0.40589  0.47719  0.37551  Biso   1.000  C
  N29      1.0000 0.36451  0.44541  0.33341  Biso   1.000  N
  H43      1.0000 0.41451  0.46929  0.44167  Biso   1.000  H
  H44      1.0000 0.38850  0.50792  0.37220  Biso   1.000  H
  N30      1.0000 0.45853  0.47909  0.33510  Biso   1.000  N
  C44      1.0000 0.34873  0.40800  0.38398  Biso   1.000  C
  C45      1.0000 0.32463  0.45259  0.24757  Biso   1.000  C
  C46      1.0000 0.46643  0.50629  0.25124  Biso   1.000  C
  C47      1.0000 0.51243  0.47140  0.38391  Biso   1.000  C
  N31      1.0000 0.30080  0.38600  0.33129  Biso   1.000  N
  O15      1.0000 0.36943  0.39279  0.46460  Biso   1.000  O
  C48      1.0000 0.28242  0.41139  0.24658  Biso   1.000  C
  N32      1.0000 0.35261  0.44701  0.16321  Biso   1.000  N
  H45      1.0000 0.30411  0.48231  0.24863  Biso   1.000  H
  N33      1.0000 0.44611  0.48439  0.16300  Biso   1.000  N
  C49      1.0000 0.53359  0.50629  0.24884  Biso   1.000  C
  H46      1.0000 0.45101  0.53782  0.25519  Biso   1.000  H
  N34      1.0000 0.55391  0.48439  0.33700  Biso   1.000  N
  O16      1.0000 0.51660  0.45110  0.46050  Biso   1.000  O
  C50      1.0000 0.26833  0.34809  0.36790  Biso   1.000  C
  N35      1.0000 0.29232  0.38679  0.16279  Biso   1.000  N
  H47      1.0000 0.24181  0.42161  0.24482  Biso   1.000  H
  C51      1.0000 0.33150  0.40841  0.11398  Biso   1.000  C
  C52      1.0000 0.38419  0.48339  0.12301  Biso   1.000  C
  C53      1.0000 0.48759  0.47140  0.11610  Biso   1.000  C
  N36      1.0000 0.54149  0.47909  0.16490  Biso   1.000  N
  H48      1.0000 0.54901  0.53782  0.24482  Biso   1.000  H
  C54      1.0000 0.61583  0.48339  0.37699  Biso   1.000  C
  N37      1.0000 0.27731  0.30520  0.32438  Biso   1.000  N
  H49      1.0000 0.22699  0.35551  0.35873  Biso   1.000  H
  H50      1.0000 0.27971  0.34529  0.43518  Biso   1.000  H
  C55      1.0000 0.25352  0.35280  0.11920  Biso   1.000  C
  O17      1.0000 0.34751  0.39639  0.03513  Biso   1.000  O
  H51      1.0000 0.38201  0.47899  0.05530  Biso   1.000  H
  H52      1.0000 0.36621  0.51291  0.13450  Biso   1.000  H
  O18      1.0000 0.48342  0.45110  0.03950  Biso   1.000  O
  C56      1.0000 0.59412  0.47719  0.12449  Biso   1.000  C
  H53      1.0000 0.61800  0.47899  0.44471  Biso   1.000  H
  H54      1.0000 0.63381  0.51291  0.36550  Biso   1.000  H
  N38      1.0000 0.64741  0.44701  0.33679  Biso   1.000  N
  C57      1.0000 0.24421  0.28809  0.23558  Biso   1.000  C
  C58      1.0000 0.30130  0.26789  0.37580  Biso   1.000  C
  N39      1.0000 0.26371  0.30589  0.15207  Biso   1.000  N
  H55      1.0000 0.21389  0.36140  0.12921  Biso   1.000  H
  H56      1.0000 0.25592  0.35350  0.05177  Biso   1.000  H
  H57      1.0000 0.58551  0.46929  0.05833  Biso   1.000  H
  H58      1.0000 0.61152  0.50792  0.12780  Biso   1.000  H
  N40      1.0000 0.63551  0.44541  0.16660  Biso   1.000  N
  C59      1.0000 0.67543  0.45259  0.25243  Biso   1.000  C
  C60      1.0000 0.66852  0.40841  0.38602  Biso   1.000  C
  C61      1.0000 0.25803  0.23719  0.23290  Biso   1.000  C
  H59      1.0000 0.20219  0.29321  0.23607  Biso   1.000  H
  N41      1.0000 0.29381  0.22801  0.32353  Biso   1.000  N
  O19      1.0000 0.32643  0.27201  0.45641  Biso   1.000  O
  C62      1.0000 0.29059  0.27139  0.10467  Biso   1.000  C
  C63      1.0000 0.65129  0.40800  0.11603  Biso   1.000  C
  C64      1.0000 0.71760  0.41139  0.25342  Biso   1.000  C
  H60      1.0000 0.69591  0.48231  0.25138  Biso   1.000  H
  N42      1.0000 0.70770  0.38679  0.33721  Biso   1.000  N
  O20      1.0000 0.65251  0.39639  0.46488  Biso   1.000  O
  H61      1.0000 0.22250  0.21820  0.22563  Biso   1.000  H
  N43      1.0000 0.29210  0.23109  0.15574  Biso   1.000  N
  C65      1.0000 0.31111  0.18519  0.36268  Biso   1.000  C
  O21      1.0000 0.31011  0.27901  0.02842  Biso   1.000  O
  N44      1.0000 0.69921  0.38600  0.16871  Biso   1.000  N
  O22      1.0000 0.63063  0.39279  0.03541  Biso   1.000  O
  H62      1.0000 0.75821  0.42161  0.25519  Biso   1.000  H
  C66      1.0000 0.74650  0.35280  0.38080  Biso   1.000  C
  C67      1.0000 0.30322  0.18830  0.11370  Biso   1.000  C
  H63      1.0000 0.32000  0.18868  0.43039  Biso   1.000  H
  H64      1.0000 0.27899  0.16350  0.35139  Biso   1.000  H
  N45      1.0000 0.36159  0.16620  0.32438  Biso   1.000  N
  C68      1.0000 0.73173  0.34809  0.13211  Biso   1.000  C
  N46      1.0000 0.73631  0.30589  0.34794  Biso   1.000  N
  H65      1.0000 0.78613  0.36140  0.37079  Biso   1.000  H
  H66      1.0000 0.74410  0.35350  0.44823  Biso   1.000  H
  H67      1.0000 0.27161  0.16710  0.12188  Biso   1.000  H
  H68      1.0000 0.30442  0.19291  0.04662  Biso   1.000  H
  N47      1.0000 0.35720  0.16831  0.15362  Biso   1.000  N
  C69      1.0000 0.36122  0.14011  0.23692  Biso   1.000  C
  C70      1.0000 0.41449  0.16138  0.38080  Biso   1.000  C
  N48      1.0000 0.72271  0.30520  0.17563  Biso   1.000  N
  H69      1.0000 0.77303  0.35551  0.14128  Biso   1.000  H
  H70      1.0000 0.72031  0.34529  0.06482  Biso   1.000  H
  C71      1.0000 0.70943  0.27139  0.39533  Biso   1.000  C
  C72      1.0000 0.75581  0.28809  0.26443  Biso   1.000  C
  C73      1.0000 0.40521  0.16419  0.10657  Biso   1.000  C
  C74      1.0000 0.42170  0.11721  0.24319  Biso   1.000  C
  H71      1.0000 0.33032  0.11669  0.23198  Biso   1.000  H
  N49      1.0000 0.44902  0.13540  0.33298  Biso   1.000  N
  O23      1.0000 0.42610  0.17940  0.46079  Biso   1.000  O
  C75      1.0000 0.69872  0.26789  0.12421  Biso   1.000  C
  N50      1.0000 0.70793  0.23109  0.34434  Biso   1.000  N
  O24      1.0000 0.68991  0.27901  0.47158  Biso   1.000  O
  C76      1.0000 0.74199  0.23719  0.26711  Biso   1.000  C
  H72      1.0000 0.79783  0.29321  0.26393  Biso   1.000  H
  N51      1.0000 0.44480  0.13599  0.16088  Biso   1.000  N
  O25      1.0000 0.41139  0.18248  0.03040  Biso   1.000  O
  H73      1.0000 0.41959  0.08329  0.24221  Biso   1.000  H
  C77      1.0000 0.50532  0.11641  0.37580  Biso   1.000  C
  N52      1.0000 0.70620  0.22801  0.17647  Biso   1.000  N
  O26      1.0000 0.67359  0.27201  0.04359  Biso   1.000  O
  C78      1.0000 0.69680  0.18830  0.38630  Biso   1.000  C
  H74      1.0000 0.77752  0.21820  0.27437  Biso   1.000  H
  C79      1.0000 0.49469  0.11641  0.12421  Biso   1.000  C
  H75      1.0000 0.50542  0.08319  0.36578  Biso   1.000  H
  H76      1.0000 0.50861  0.12182  0.44329  Biso   1.000  H
  N53      1.0000 0.55522  0.13599  0.33912  Biso   1.000  N
  C80      1.0000 0.68891  0.18519  0.13733  Biso   1.000  C
  N54      1.0000 0.64282  0.16831  0.34638  Biso   1.000  N
  H77      1.0000 0.72841  0.16710  0.37812  Biso   1.000  H
  H78      1.0000 0.69560  0.19291  0.45338  Biso   1.000  H
  H79      1.0000 0.49460  0.08319  0.13422  Biso   1.000  H
  H80      1.0000 0.49141  0.12182  0.05671  Biso   1.000  H
  N55      1.0000 0.55100  0.13540  0.16702  Biso   1.000  N
  C81      1.0000 0.57832  0.11721  0.25681  Biso   1.000  C
  C82      1.0000 0.59480  0.16419  0.39343  Biso   1.000  C
  N56      1.0000 0.63843  0.16620  0.17563  Biso   1.000  N
  H81      1.0000 0.68001  0.18868  0.06962  Biso   1.000  H
  H82      1.0000 0.72103  0.16350  0.14861  Biso   1.000  H
  C83      1.0000 0.63879  0.14011  0.26309  Biso   1.000  C
  C84      1.0000 0.58552  0.16138  0.11920  Biso   1.000  C
  H83      1.0000 0.58042  0.08329  0.25780  Biso   1.000  H
  O27      1.0000 0.58863  0.18248  0.46960  Biso   1.000  O
  H84      1.0000 0.66970  0.11669  0.26802  Biso   1.000  H
  O28      1.0000 0.57392  0.17940  0.03922  Biso   1.000  O
  C85      1.0000 0.19680  0.68829  0.38630  Biso   1.000  C
  N57      1.0000 0.14282  0.66830  0.34638  Biso   1.000  N
  H85      1.0000 0.22841  0.66712  0.37812  Biso   1.000  H
  H86      1.0000 0.19560  0.69289  0.45338  Biso   1.000  H
  N58      1.0000 0.20793  0.73111  0.34434  Biso   1.000  N
  C86      1.0000 0.13879  0.64009  0.26309  Biso   1.000  C
  C87      1.0000 0.09480  0.66421  0.39343  Biso   1.000  C
  C88      1.0000 0.24199  0.73721  0.26711  Biso   1.000  C
  C89      1.0000 0.20943  0.77140  0.39533  Biso   1.000  C
  C90      1.0000 0.07832  0.61719  0.25681  Biso   1.000  C
  H87      1.0000 0.16970  0.61671  0.26802  Biso   1.000  H
  N59      1.0000 0.13843  0.66622  0.17563  Biso   1.000  N
  N60      1.0000 0.05522  0.63600  0.33912  Biso   1.000  N
  O29      1.0000 0.08863  0.68250  0.46960  Biso   1.000  O
  N61      1.0000 0.20620  0.72799  0.17647  Biso   1.000  N
  H88      1.0000 0.27752  0.71819  0.27437  Biso   1.000  H
  C91      1.0000 0.25581  0.78810  0.26443  Biso   1.000  C
  N62      1.0000 0.23631  0.80591  0.34794  Biso   1.000  N
  O30      1.0000 0.18991  0.77899  0.47158  Biso   1.000  O
  H89      1.0000 0.08042  0.58331  0.25780  Biso   1.000  H
  N63      1.0000 0.05100  0.63542  0.16702  Biso   1.000  N
  C92      1.0000 0.08552  0.66140  0.11920  Biso   1.000  C
  C93      1.0000 0.18891  0.68520  0.13733  Biso   1.000  C
  C94      1.0000 0.00532  0.61639  0.37580  Biso   1.000  C
  C95      1.0000 0.19872  0.76790  0.12421  Biso   1.000  C
  N64      1.0000 0.22271  0.80518  0.17563  Biso   1.000  N
  H90      1.0000 0.29783  0.79320  0.26393  Biso   1.000  H
  C96      1.0000 0.24650  0.85279  0.38080  Biso   1.000  C
  C97      1.0000 0.99469  0.61639  0.12421  Biso   1.000  C
  O31      1.0000 0.07392  0.67942  0.03922  Biso   1.000  O
  H91      1.0000 0.18001  0.68870  0.06962  Biso   1.000  H
  H92      1.0000 0.22098  0.66351  0.14861  Biso   1.000  H
  H93      1.0000 0.00542  0.58320  0.36578  Biso   1.000  H
  H94      1.0000 0.00861  0.62180  0.44329  Biso   1.000  H
  N65      1.0000 0.94902  0.63542  0.33298  Biso   1.000  N
  O32      1.0000 0.17359  0.77199  0.04359  Biso   1.000  O
  C98      1.0000 0.23169  0.84811  0.13211  Biso   1.000  C
  H95      1.0000 0.28613  0.86141  0.37079  Biso   1.000  H
  H96      1.0000 0.24410  0.85351  0.44823  Biso   1.000  H
  N66      1.0000 0.20770  0.88681  0.33721  Biso   1.000  N
  H97      1.0000 0.99460  0.58320  0.13422  Biso   1.000  H
  H98      1.0000 0.99141  0.62180  0.05671  Biso   1.000  H
  N67      1.0000 0.94480  0.63600  0.16088  Biso   1.000  N
  C99      1.0000 0.92170  0.61719  0.24319  Biso   1.000  C
  C100     1.0000 0.91449  0.66140  0.38080  Biso   1.000  C
  H99      1.0000 0.27298  0.85549  0.14128  Biso   1.000  H
  H100     1.0000 0.22031  0.84530  0.06482  Biso   1.000  H
  N68      1.0000 0.19921  0.88601  0.16871  Biso   1.000  N
  C101     1.0000 0.21760  0.91141  0.25342  Biso   1.000  C
  C102     1.0000 0.16852  0.90839  0.38602  Biso   1.000  C
  C103     1.0000 0.90521  0.66421  0.10657  Biso   1.000  C
  H101     1.0000 0.91959  0.58331  0.24221  Biso   1.000  H
  C104     1.0000 0.86122  0.64009  0.23692  Biso   1.000  C
  N69      1.0000 0.86163  0.66622  0.32438  Biso   1.000  N
  O33      1.0000 0.92610  0.67942  0.46079  Biso   1.000  O
  C105     1.0000 0.15129  0.90801  0.11603  Biso   1.000  C
  H102     1.0000 0.25821  0.92160  0.25519  Biso   1.000  H
  C106     1.0000 0.17539  0.95260  0.25243  Biso   1.000  C
  N70      1.0000 0.14741  0.94699  0.33679  Biso   1.000  N
  O34      1.0000 0.15251  0.89641  0.46488  Biso   1.000  O
  N71      1.0000 0.85720  0.66830  0.15362  Biso   1.000  N
  O35      1.0000 0.91139  0.68250  0.03040  Biso   1.000  O
  H103     1.0000 0.83032  0.61671  0.23198  Biso   1.000  H
  C107     1.0000 0.81111  0.68520  0.36268  Biso   1.000  C
  N72      1.0000 0.13551  0.94540  0.16660  Biso   1.000  N
  O36      1.0000 0.13058  0.89280  0.03541  Biso   1.000  O
  H104     1.0000 0.19591  0.98230  0.25138  Biso   1.000  H
  C108     1.0000 0.11583  0.98340  0.37699  Biso   1.000  C
  C109     1.0000 0.80322  0.68829  0.11370  Biso   1.000  C
  H105     1.0000 0.82000  0.68870  0.43039  Biso   1.000  H
  H106     1.0000 0.77903  0.66351  0.35139  Biso   1.000  H
  N73      1.0000 0.79381  0.72799  0.32353  Biso   1.000  N
  C110     1.0000 0.09412  0.97720  0.12449  Biso   1.000  C
  H107     1.0000 0.11800  0.97900  0.44471  Biso   1.000  H
  N74      1.0000 0.05391  0.98441  0.33700  Biso   1.000  N
  H108     1.0000 0.13381  0.01289  0.36550  Biso   1.000  H
  H109     1.0000 0.77161  0.66712  0.12188  Biso   1.000  H
  H110     1.0000 0.80442  0.69289  0.04662  Biso   1.000  H
  N75      1.0000 0.79210  0.73111  0.15574  Biso   1.000  N
  C111     1.0000 0.75803  0.73721  0.23290  Biso   1.000  C
  C112     1.0000 0.80130  0.76790  0.37580  Biso   1.000  C
  H111     1.0000 0.08551  0.96930  0.05833  Biso   1.000  H
  N76      1.0000 0.04149  0.97911  0.16490  Biso   1.000  N
  H112     1.0000 0.11152  0.00790  0.12780  Biso   1.000  H
  C113     1.0000 0.03359  0.00631  0.24884  Biso   1.000  C
  C114     1.0000 0.01243  0.97142  0.38391  Biso   1.000  C
  C115     1.0000 0.79059  0.77140  0.10467  Biso   1.000  C
  H113     1.0000 0.72250  0.71819  0.22563  Biso   1.000  H
  C116     1.0000 0.74421  0.78810  0.23558  Biso   1.000  C
  N77      1.0000 0.77731  0.80518  0.32438  Biso   1.000  N
  O37      1.0000 0.82643  0.77199  0.45641  Biso   1.000  O
  C117     1.0000 0.98759  0.97142  0.11610  Biso   1.000  C
  C118     1.0000 0.96643  0.00631  0.25124  Biso   1.000  C
  H114     1.0000 0.04901  0.03780  0.24482  Biso   1.000  H
  O38      1.0000 0.01660  0.95111  0.46050  Biso   1.000  O
  N78      1.0000 0.95853  0.97911  0.33510  Biso   1.000  N
  N79      1.0000 0.76371  0.80591  0.15207  Biso   1.000  N
  O39      1.0000 0.81011  0.77899  0.02842  Biso   1.000  O
  H115     1.0000 0.70223  0.79320  0.23607  Biso   1.000  H
  C119     1.0000 0.76833  0.84811  0.36790  Biso   1.000  C
  N80      1.0000 0.94611  0.98441  0.16300  Biso   1.000  N
  O40      1.0000 0.98342  0.95111  0.03950  Biso   1.000  O
  H116     1.0000 0.95101  0.03780  0.25519  Biso   1.000  H
  C120     1.0000 0.90594  0.97720  0.37551  Biso   1.000  C
  C121     1.0000 0.75352  0.85279  0.11920  Biso   1.000  C
  H117     1.0000 0.72704  0.85549  0.35873  Biso   1.000  H
  H118     1.0000 0.77971  0.84530  0.43518  Biso   1.000  H
  N81      1.0000 0.80080  0.88601  0.33129  Biso   1.000  N
  C122     1.0000 0.88423  0.98340  0.12301  Biso   1.000  C
  N82      1.0000 0.86451  0.94540  0.33341  Biso   1.000  N
  H119     1.0000 0.91451  0.96930  0.44167  Biso   1.000  H
  H120     1.0000 0.88850  0.00790  0.37220  Biso   1.000  H
  H121     1.0000 0.71393  0.86141  0.12921  Biso   1.000  H
  H122     1.0000 0.75592  0.85351  0.05177  Biso   1.000  H
  N83      1.0000 0.79232  0.88681  0.16279  Biso   1.000  N
  C123     1.0000 0.78242  0.91141  0.24658  Biso   1.000  C
  C124     1.0000 0.84873  0.90801  0.38398  Biso   1.000  C
  N84      1.0000 0.85261  0.94699  0.16321  Biso   1.000  N
  H123     1.0000 0.88201  0.97900  0.05530  Biso   1.000  H
  H124     1.0000 0.86621  0.01289  0.13450  Biso   1.000  H
  C125     1.0000 0.82463  0.95260  0.24757  Biso   1.000  C
  C126     1.0000 0.83150  0.90839  0.11398  Biso   1.000  C
  H125     1.0000 0.74181  0.92160  0.24482  Biso   1.000  H
  O41      1.0000 0.86943  0.89280  0.46460  Biso   1.000  O
  H126     1.0000 0.80411  0.98230  0.24863  Biso   1.000  H
  O42      1.0000 0.84751  0.89641  0.03513  Biso   1.000  O
  C127     1.0000 0.18893  0.31480  0.63733  Biso   1.000  C
  N85      1.0000 0.20622  0.27201  0.67647  Biso   1.000  N
  H127     1.0000 0.18003  0.31130  0.56962  Biso   1.000  H
  H128     1.0000 0.22100  0.33649  0.64861  Biso   1.000  H
  N86      1.0000 0.13840  0.33378  0.67563  Biso   1.000  N
  C128     1.0000 0.19873  0.23210  0.62421  Biso   1.000  C
  C129     1.0000 0.24201  0.26279  0.76711  Biso   1.000  C
  C130     1.0000 0.08550  0.33860  0.61920  Biso   1.000  C
  C131     1.0000 0.13881  0.35991  0.76309  Biso   1.000  C
  O43      1.0000 0.17361  0.22801  0.54359  Biso   1.000  O
  N87      1.0000 0.22273  0.19482  0.67563  Biso   1.000  N
  C132     1.0000 0.25583  0.21190  0.76443  Biso   1.000  C
  H129     1.0000 0.27754  0.28181  0.77444  Biso   1.000  H
  N88      1.0000 0.20794  0.26889  0.84434  Biso   1.000  N
  N89      1.0000 0.05102  0.36458  0.66702  Biso   1.000  N
  O44      1.0000 0.07390  0.32058  0.53922  Biso   1.000  O
  C133     1.0000 0.07833  0.38281  0.75681  Biso   1.000  C
  H130     1.0000 0.16971  0.38329  0.76803  Biso   1.000  H
  N90      1.0000 0.14284  0.33170  0.84639  Biso   1.000  N
  C134     1.0000 0.23170  0.15189  0.63211  Biso   1.000  C
  H131     1.0000 0.29780  0.20680  0.76393  Biso   1.000  H
  N91      1.0000 0.23633  0.19409  0.84794  Biso   1.000  N
  C135     1.0000 0.19682  0.31171  0.88631  Biso   1.000  C
  C136     1.0000 0.20940  0.22860  0.89534  Biso   1.000  C
  C137     1.0000 0.99471  0.38361  0.62421  Biso   1.000  C
  H132     1.0000 0.08040  0.41669  0.75780  Biso   1.000  H
  N92      1.0000 0.05524  0.36400  0.83912  Biso   1.000  N
  C138     1.0000 0.09482  0.33579  0.89343  Biso   1.000  C
  H133     1.0000 0.27300  0.14451  0.64128  Biso   1.000  H
  H134     1.0000 0.22032  0.15470  0.56482  Biso   1.000  H
  N93      1.0000 0.19923  0.11399  0.66872  Biso   1.000  N
  C139     1.0000 0.24652  0.14721  0.88081  Biso   1.000  C
  H135     1.0000 0.22843  0.33288  0.87813  Biso   1.000  H
  H136     1.0000 0.19561  0.30711  0.95338  Biso   1.000  H
  O45      1.0000 0.18993  0.22101  0.97158  Biso   1.000  O
  H137     1.0000 0.99462  0.41680  0.63423  Biso   1.000  H
  H138     1.0000 0.99142  0.37820  0.55671  Biso   1.000  H
  N94      1.0000 0.94481  0.36400  0.66089  Biso   1.000  N
  C140     1.0000 0.00530  0.38361  0.87580  Biso   1.000  C
  O46      1.0000 0.08860  0.31750  0.96961  Biso   1.000  O
  C141     1.0000 0.21762  0.08859  0.75342  Biso   1.000  C
  C142     1.0000 0.15131  0.09199  0.61603  Biso   1.000  C
  H139     1.0000 0.28610  0.13859  0.87079  Biso   1.000  H
  H140     1.0000 0.24412  0.14649  0.94823  Biso   1.000  H
  N95      1.0000 0.20771  0.11319  0.83722  Biso   1.000  N
  C143     1.0000 0.90523  0.33579  0.60658  Biso   1.000  C
  C144     1.0000 0.92172  0.38281  0.74320  Biso   1.000  C
  H141     1.0000 0.00543  0.41680  0.86578  Biso   1.000  H
  H142     1.0000 0.00863  0.37820  0.94330  Biso   1.000  H
  N96      1.0000 0.94904  0.36458  0.83299  Biso   1.000  N
  H143     1.0000 0.25823  0.07840  0.75519  Biso   1.000  H
  C145     1.0000 0.17541  0.04740  0.75244  Biso   1.000  C
  N97      1.0000 0.13553  0.05460  0.66660  Biso   1.000  N
  O47      1.0000 0.13060  0.10720  0.53541  Biso   1.000  O
  C146     1.0000 0.16853  0.09161  0.88603  Biso   1.000  C
  N98      1.0000 0.85722  0.33170  0.65362  Biso   1.000  N
  O48      1.0000 0.91141  0.31750  0.53040  Biso   1.000  O
  H144     1.0000 0.91961  0.41669  0.74221  Biso   1.000  H
  C147     1.0000 0.86124  0.35991  0.73692  Biso   1.000  C
  C148     1.0000 0.91451  0.33860  0.88081  Biso   1.000  C
  H145     1.0000 0.19593  0.01770  0.75138  Biso   1.000  H
  N99      1.0000 0.14742  0.05301  0.83679  Biso   1.000  N
  C149     1.0000 0.09410  0.02280  0.62449  Biso   1.000  C
  O49      1.0000 0.15253  0.10359  0.96488  Biso   1.000  O
  C150     1.0000 0.80323  0.31171  0.61370  Biso   1.000  C
  H146     1.0000 0.83034  0.38329  0.73198  Biso   1.000  H
  N100     1.0000 0.86161  0.33378  0.82438  Biso   1.000  N
  O50      1.0000 0.92611  0.32058  0.96079  Biso   1.000  O
  C151     1.0000 0.11580  0.01660  0.87700  Biso   1.000  C
  H147     1.0000 0.08553  0.03070  0.55833  Biso   1.000  H
  N101     1.0000 0.04151  0.02089  0.66491  Biso   1.000  N
  H148     1.0000 0.11154  0.99210  0.62781  Biso   1.000  H
  H149     1.0000 0.77163  0.33288  0.62188  Biso   1.000  H
  H150     1.0000 0.80444  0.30711  0.54662  Biso   1.000  H
  N102     1.0000 0.79211  0.26889  0.65574  Biso   1.000  N
  C152     1.0000 0.81113  0.31480  0.86268  Biso   1.000  C
  H151     1.0000 0.11802  0.02100  0.94471  Biso   1.000  H
  N103     1.0000 0.05392  0.01559  0.83701  Biso   1.000  N
  H152     1.0000 0.13383  0.98711  0.86550  Biso   1.000  H
  C153     1.0000 0.98761  0.02858  0.61610  Biso   1.000  C
  C154     1.0000 0.03361  0.99369  0.74884  Biso   1.000  C
  C155     1.0000 0.75804  0.26279  0.73290  Biso   1.000  C
  C156     1.0000 0.79060  0.22860  0.60467  Biso   1.000  C
  H153     1.0000 0.82002  0.31130  0.93039  Biso   1.000  H
  H154     1.0000 0.77901  0.33649  0.85139  Biso   1.000  H
  N104     1.0000 0.79383  0.27201  0.82353  Biso   1.000  N
  C157     1.0000 0.01240  0.02858  0.88391  Biso   1.000  C
  N105     1.0000 0.94613  0.01559  0.66300  Biso   1.000  N
  O51      1.0000 0.98344  0.04889  0.53950  Biso   1.000  O
  C158     1.0000 0.96645  0.99369  0.75124  Biso   1.000  C
  H155     1.0000 0.04903  0.96220  0.74482  Biso   1.000  H
  H156     1.0000 0.72251  0.28181  0.72564  Biso   1.000  H
  C159     1.0000 0.74422  0.21190  0.73558  Biso   1.000  C
  N106     1.0000 0.76373  0.19409  0.65214  Biso   1.000  N
  O52      1.0000 0.81013  0.22101  0.52843  Biso   1.000  O
  C160     1.0000 0.80132  0.23210  0.87580  Biso   1.000  C
  O53      1.0000 0.01662  0.04889  0.96051  Biso   1.000  O
  N107     1.0000 0.95854  0.02089  0.83510  Biso   1.000  N
  C161     1.0000 0.88421  0.01660  0.62301  Biso   1.000  C
  H157     1.0000 0.95102  0.96220  0.75519  Biso   1.000  H
  H158     1.0000 0.70220  0.20680  0.73607  Biso   1.000  H
  N108     1.0000 0.77733  0.19482  0.82438  Biso   1.000  N
  C162     1.0000 0.75354  0.14721  0.61920  Biso   1.000  C
  O54      1.0000 0.82645  0.22801  0.95642  Biso   1.000  O
  C163     1.0000 0.90591  0.02280  0.87552  Biso   1.000  C
  H159     1.0000 0.86622  0.98711  0.63451  Biso   1.000  H
  H160     1.0000 0.88203  0.02100  0.55530  Biso   1.000  H
  N109     1.0000 0.85263  0.05301  0.66321  Biso   1.000  N
  C164     1.0000 0.76830  0.15189  0.86790  Biso   1.000  C
  N110     1.0000 0.79234  0.11319  0.66279  Biso   1.000  N
  H161     1.0000 0.71390  0.13859  0.62922  Biso   1.000  H
  H162     1.0000 0.75593  0.14649  0.55177  Biso   1.000  H
  H163     1.0000 0.88852  0.99210  0.87220  Biso   1.000  H
  H164     1.0000 0.91453  0.03070  0.94168  Biso   1.000  H
  N111     1.0000 0.86452  0.05460  0.83341  Biso   1.000  N
  C165     1.0000 0.82461  0.04740  0.74764  Biso   1.000  C
  C166     1.0000 0.83152  0.09161  0.61398  Biso   1.000  C
  N112     1.0000 0.80082  0.11399  0.83129  Biso   1.000  N
  H165     1.0000 0.72701  0.14451  0.85873  Biso   1.000  H
  H166     1.0000 0.77973  0.15470  0.93519  Biso   1.000  H
  C167     1.0000 0.78244  0.08859  0.74658  Biso   1.000  C
  C168     1.0000 0.84875  0.09199  0.88398  Biso   1.000  C
  H167     1.0000 0.80412  0.01770  0.74863  Biso   1.000  H
  O55      1.0000 0.84752  0.10359  0.53513  Biso   1.000  O
  H168     1.0000 0.74182  0.07840  0.74482  Biso   1.000  H
  O56      1.0000 0.86941  0.10720  0.96460  Biso   1.000  O
