data_image0
_cell_length_a       13.735
_cell_length_b       27.419
_cell_length_c       18.398
_cell_angle_alpha    90
_cell_angle_beta     109.09
_cell_angle_gamma    90

_symmetry_space_group_name_H-M    "P 1"
_symmetry_int_tables_number       1

loop_
  _symmetry_equiv_pos_as_xyz
  'x, y, z'

loop_
  _atom_site_label
  _atom_site_occupancy
  _atom_site_fract_x
  _atom_site_fract_y
  _atom_site_fract_z
  _atom_site_thermal_displace_type
  _atom_site_B_iso_or_equiv
  _atom_site_type_symbol
  C1       1.0000 0.48478  0.41632  0.35971  Biso   1.000  C
  C2       1.0000 0.59266  0.42015  0.38594  Biso   1.000  C
  O1       1.0000 0.43807  0.38539  0.39669  Biso   1.000  O
  C3       1.0000 0.42534  0.44352  0.29765  Biso   1.000  C
  C4       1.0000 0.65567  0.39247  0.45714  Biso   1.000  C
  C5       1.0000 0.63542  0.45155  0.34510  Biso   1.000  C
  H1       1.0000 0.37553  0.38641  0.37558  Biso   1.000  H
  C6       1.0000 0.47158  0.47562  0.26078  Biso   1.000  C
  H2       1.0000 0.34212  0.44320  0.28103  Biso   1.000  H
  C7       1.0000 0.66115  0.33743  0.44305  Biso   1.000  C
  H3       1.0000 0.62152  0.39560  0.49551  Biso   1.000  H
  C8       1.0000 0.76492  0.41263  0.49378  Biso   1.000  C
  C9       1.0000 0.57872  0.47989  0.28264  Biso   1.000  C
  H4       1.0000 0.70875  0.45388  0.35942  Biso   1.000  H
  O2       1.0000 0.41180  0.50509  0.20160  Biso   1.000  O
  C10      1.0000 0.64541  0.31912  0.36989  Biso   1.000  C
  C11      1.0000 0.68509  0.30399  0.50385  Biso   1.000  C
  H5       1.0000 0.79996  0.40060  0.54319  Biso   1.000  H
  H6       1.0000 0.81070  0.41012  0.46169  Biso   1.000  H
  H7       1.0000 0.76654  0.44699  0.49833  Biso   1.000  H
  C12      1.0000 0.62836  0.51457  0.23990  Biso   1.000  C
  H8       1.0000 0.35842  0.49951  0.19792  Biso   1.000  H
  C13      1.0000 0.65150  0.26992  0.35356  Biso   1.000  C
  H9       1.0000 0.62573  0.34410  0.32480  Biso   1.000  H
  C14      1.0000 0.69467  0.25519  0.49114  Biso   1.000  C
  O3       1.0000 0.69834  0.31825  0.57896  Biso   1.000  O
  C15      1.0000 0.62079  0.49604  0.16013  Biso   1.000  C
  H10      1.0000 0.59234  0.54922  0.22880  Biso   1.000  H
  C16      1.0000 0.74293  0.52507  0.28620  Biso   1.000  C
  C17      1.0000 0.63317  0.25008  0.27297  Biso   1.000  C
  C18      1.0000 0.67853  0.23779  0.41757  Biso   1.000  C
  H11      1.0000 0.71775  0.23538  0.53353  Biso   1.000  H
  H12      1.0000 0.71202  0.29428  0.60720  Biso   1.000  H
  C19      1.0000 0.61907  0.44633  0.14425  Biso   1.000  C
  C20      1.0000 0.62170  0.52741  0.10088  Biso   1.000  C
  H13      1.0000 0.75025  0.53550  0.34113  Biso   1.000  H
  H14      1.0000 0.76242  0.55071  0.26371  Biso   1.000  H
  H15      1.0000 0.78991  0.49841  0.28908  Biso   1.000  H
  C21      1.0000 0.57358  0.28535  0.20959  Biso   1.000  C
  H16      1.0000 0.58931  0.22269  0.26809  Biso   1.000  H
  C22      1.0000 0.73689  0.23557  0.26394  Biso   1.000  C
  O4       1.0000 0.68558  0.18845  0.41090  Biso   1.000  O
  C23      1.0000 0.61838  0.42711  0.07402  Biso   1.000  C
  H17      1.0000 0.62469  0.42620  0.18118  Biso   1.000  H
  C24      1.0000 0.62155  0.51005  0.03008  Biso   1.000  C
  O5       1.0000 0.62474  0.57741  0.11480  Biso   1.000  O
  C25      1.0000 0.46746  0.29053  0.19222  Biso   1.000  C
  C26      1.0000 0.61980  0.31234  0.16651  Biso   1.000  C
  H18      1.0000 0.77042  0.21219  0.29311  Biso   1.000  H
  H19      1.0000 0.72714  0.22492  0.22058  Biso   1.000  H
  H20      1.0000 0.78764  0.26489  0.27159  Biso   1.000  H
  H21      1.0000 0.67635  0.17918  0.35793  Biso   1.000  H
  C27      1.0000 0.62067  0.37270  0.05982  Biso   1.000  C
  C28      1.0000 0.62000  0.46034  0.01656  Biso   1.000  C
  H22      1.0000 0.61877  0.53270  0.99465  Biso   1.000  H
  H23      1.0000 0.60172  0.59222  0.06908  Biso   1.000  H
  O6       1.0000 0.41779  0.26339  0.23306  Biso   1.000  O
  C29      1.0000 0.41067  0.32054  0.13321  Biso   1.000  C
  C30      1.0000 0.56700  0.34356  0.10566  Biso   1.000  C
  H24      1.0000 0.69382  0.31132  0.17692  Biso   1.000  H
  H25      1.0000 0.58112  0.36559  0.00477  Biso   1.000  H
  C31      1.0000 0.73173  0.35669  0.07385  Biso   1.000  C
  O7       1.0000 0.61974  0.44203  0.94668  Biso   1.000  O
  H26      1.0000 0.34642  0.26558  0.20959  Biso   1.000  H
  C32      1.0000 0.46042  0.34626  0.08990  Biso   1.000  C
  H27      1.0000 0.33014  0.32419  0.12240  Biso   1.000  H
  H28      1.0000 0.74401  0.32160  0.06729  Biso   1.000  H
  H29      1.0000 0.77882  0.36208  0.12648  Biso   1.000  H
  H30      1.0000 0.76723  0.37481  0.04601  Biso   1.000  H
  H31      1.0000 0.59958  0.46311  0.90182  Biso   1.000  H
  O8       1.0000 0.40278  0.37518  0.02928  Biso   1.000  O
  H32      1.0000 0.31742  0.37751  0.02721  Biso   1.000  H
  C33      1.0000 0.51525  0.58368  0.64033  Biso   1.000  C
  C34      1.0000 0.40741  0.57985  0.61405  Biso   1.000  C
  O9       1.0000 0.56200  0.61461  0.60329  Biso   1.000  O
  C35      1.0000 0.57477  0.55648  0.70240  Biso   1.000  C
  C36      1.0000 0.34443  0.60753  0.54290  Biso   1.000  C
  C37      1.0000 0.36461  0.54845  0.65494  Biso   1.000  C
  H33      1.0000 0.62454  0.61359  0.62440  Biso   1.000  H
  H34      1.0000 0.65798  0.55680  0.71902  Biso   1.000  H
  C38      1.0000 0.52845  0.52438  0.73926  Biso   1.000  C
  C39      1.0000 0.23516  0.58737  0.50621  Biso   1.000  C
  C40      1.0000 0.33888  0.66257  0.55699  Biso   1.000  C
  H35      1.0000 0.37858  0.60440  0.50454  Biso   1.000  H
  C41      1.0000 0.42139  0.52011  0.71741  Biso   1.000  C
  H36      1.0000 0.29135  0.54612  0.64062  Biso   1.000  H
  O10      1.0000 0.58821  0.49491  0.79839  Biso   1.000  O
  H37      1.0000 0.20012  0.59940  0.45680  Biso   1.000  H
  H38      1.0000 0.18937  0.58988  0.53830  Biso   1.000  H
  H39      1.0000 0.23356  0.55301  0.50172  Biso   1.000  H
  C42      1.0000 0.31499  0.69601  0.49614  Biso   1.000  C
  C43      1.0000 0.35469  0.68088  0.63015  Biso   1.000  C
  C44      1.0000 0.37172  0.48543  0.76008  Biso   1.000  C
  H40      1.0000 0.64168  0.50049  0.80213  Biso   1.000  H
  O11      1.0000 0.30176  0.68175  0.42108  Biso   1.000  O
  C45      1.0000 0.30544  0.74481  0.50891  Biso   1.000  C
  C46      1.0000 0.34857  0.73008  0.64643  Biso   1.000  C
  H41      1.0000 0.37435  0.65590  0.67519  Biso   1.000  H
  H42      1.0000 0.40774  0.45078  0.77119  Biso   1.000  H
  C47      1.0000 0.25717  0.47493  0.71384  Biso   1.000  C
  C48      1.0000 0.37922  0.50396  0.83986  Biso   1.000  C
  H43      1.0000 0.28805  0.70572  0.39278  Biso   1.000  H
  C49      1.0000 0.32155  0.76221  0.58242  Biso   1.000  C
  H44      1.0000 0.28235  0.76462  0.46652  Biso   1.000  H
  C50      1.0000 0.36694  0.74992  0.72707  Biso   1.000  C
  H45      1.0000 0.24985  0.46450  0.65891  Biso   1.000  H
  H46      1.0000 0.23768  0.44929  0.73633  Biso   1.000  H
  H47      1.0000 0.21017  0.50159  0.71091  Biso   1.000  H
  C51      1.0000 0.37838  0.47259  0.89910  Biso   1.000  C
  C52      1.0000 0.38103  0.55367  0.85579  Biso   1.000  C
  O12      1.0000 0.31450  0.81155  0.58909  Biso   1.000  O
  C53      1.0000 0.42652  0.71465  0.79045  Biso   1.000  C
  H48      1.0000 0.41077  0.77731  0.73190  Biso   1.000  H
  C54      1.0000 0.26314  0.76443  0.73610  Biso   1.000  C
  O13      1.0000 0.37534  0.42259  0.88518  Biso   1.000  O
  C55      1.0000 0.37848  0.48995  0.96996  Biso   1.000  C
  C56      1.0000 0.38170  0.57289  0.92596  Biso   1.000  C
  H49      1.0000 0.37538  0.57380  0.81881  Biso   1.000  H
  H50      1.0000 0.32375  0.82082  0.64212  Biso   1.000  H
  C57      1.0000 0.53264  0.70947  0.80782  Biso   1.000  C
  C58      1.0000 0.38021  0.68766  0.83348  Biso   1.000  C
  H51      1.0000 0.22969  0.78781  0.70694  Biso   1.000  H
  H52      1.0000 0.27294  0.77508  0.77941  Biso   1.000  H
  H53      1.0000 0.21244  0.73511  0.72839  Biso   1.000  H
  H54      1.0000 0.39835  0.40778  0.93091  Biso   1.000  H
  C59      1.0000 0.38008  0.53966  0.98342  Biso   1.000  C
  H55      1.0000 0.38133  0.46730  0.00539  Biso   1.000  H
  C60      1.0000 0.37940  0.62730  0.94017  Biso   1.000  C
  O14      1.0000 0.58221  0.73661  0.76693  Biso   1.000  O
  C61      1.0000 0.58941  0.67946  0.86678  Biso   1.000  C
  C62      1.0000 0.43310  0.65644  0.89439  Biso   1.000  C
  H56      1.0000 0.30629  0.68868  0.82312  Biso   1.000  H
  O15      1.0000 0.38033  0.55797  0.05331  Biso   1.000  O
  H57      1.0000 0.41895  0.63441  0.99521  Biso   1.000  H
  C63      1.0000 0.26829  0.64331  0.92619  Biso   1.000  C
  H58      1.0000 0.65365  0.73442  0.79040  Biso   1.000  H
  C64      1.0000 0.53968  0.65374  0.91015  Biso   1.000  C
  H59      1.0000 0.66994  0.67581  0.87759  Biso   1.000  H
  H60      1.0000 0.40050  0.53689  0.09817  Biso   1.000  H
  H61      1.0000 0.25607  0.67840  0.93269  Biso   1.000  H
  H62      1.0000 0.22126  0.63792  0.87351  Biso   1.000  H
  H63      1.0000 0.23287  0.62519  0.95403  Biso   1.000  H
  O16      1.0000 0.59730  0.62482  0.97071  Biso   1.000  O
  H64      1.0000 0.68269  0.62249  0.97284  Biso   1.000  H
  O17      1.0000 0.22806  0.38324  0.36385  Biso   1.000  O
  C65      1.0000 0.16844  0.35089  0.31186  Biso   1.000  C
  H65      1.0000 0.28720  0.38222  0.36259  Biso   1.000  H
  C66      1.0000 0.21608  0.32313  0.27004  Biso   1.000  C
  C67      1.0000 0.06324  0.34516  0.30208  Biso   1.000  C
  C68      1.0000 0.16069  0.28823  0.21805  Biso   1.000  C
  H66      1.0000 0.29147  0.32860  0.27493  Biso   1.000  H
  C69      1.0000 0.01062  0.31011  0.24893  Biso   1.000  C
  C70      1.0000 0.01365  0.37620  0.34959  Biso   1.000  C
  O18      1.0000 0.21367  0.26194  0.17928  Biso   1.000  O
  C71      1.0000 0.05599  0.28075  0.20608  Biso   1.000  C
  H67      1.0000 0.93248  0.30439  0.24209  Biso   1.000  H
  C72      1.0000 0.01400  0.43094  0.33176  Biso   1.000  C
  H68      1.0000 0.05045  0.37120  0.40118  Biso   1.000  H
  C73      1.0000 0.90338  0.36041  0.34234  Biso   1.000  C
  H69      1.0000 0.18600  0.24158  0.16979  Biso   1.000  H
  C74      1.0000 0.99708  0.24326  0.14673  Biso   1.000  C
  C75      1.0000 0.01611  0.46723  0.38628  Biso   1.000  C
  C76      1.0000 0.00708  0.44662  0.25831  Biso   1.000  C
  H70      1.0000 0.89846  0.32098  0.36103  Biso   1.000  H
  H71      1.0000 0.85743  0.36128  0.28948  Biso   1.000  H
  H72      1.0000 0.87972  0.38430  0.37259  Biso   1.000  H
  H73      1.0000 0.04050  0.21051  0.16059  Biso   1.000  H
  C77      1.0000 0.89392  0.22864  0.15622  Biso   1.000  C
  C78      1.0000 0.98002  0.26015  0.06425  Biso   1.000  C
  O19      1.0000 0.02445  0.45439  0.46048  Biso   1.000  O
  C79      1.0000 0.01165  0.51607  0.36713  Biso   1.000  C
  C80      1.0000 0.00226  0.49539  0.23651  Biso   1.000  C
  H74      1.0000 0.00584  0.42368  0.21442  Biso   1.000  H
  H75      1.0000 0.84635  0.25471  0.14851  Biso   1.000  H
  H76      1.0000 0.90871  0.21729  0.21241  Biso   1.000  H
  H77      1.0000 0.86689  0.20650  0.12061  Biso   1.000  H
  C81      1.0000 0.95780  0.22670  0.00339  Biso   1.000  C
  C82      1.0000 0.98437  0.30927  0.04527  Biso   1.000  C
  H78      1.0000 0.01170  0.47810  0.48291  Biso   1.000  H
  C83      1.0000 0.00351  0.53058  0.29288  Biso   1.000  C
  H79      1.0000 0.01051  0.53901  0.40739  Biso   1.000  H
  C84      1.0000 0.98776  0.50979  0.15403  Biso   1.000  C
  C85      1.0000 0.94226  0.24188  0.92902  Biso   1.000  C
  O20      1.0000 0.95362  0.17791  0.01944  Biso   1.000  O
  C86      1.0000 0.97049  0.32576  0.97153  Biso   1.000  C
  H80      1.0000 0.99649  0.33240  0.08472  Biso   1.000  H
  O21      1.0000 0.99719  0.57898  0.27246  Biso   1.000  O
  C87      1.0000 0.04080  0.47401  0.11607  Biso   1.000  C
  H81      1.0000 0.02110  0.54360  0.15420  Biso   1.000  H
  C88      1.0000 0.87256  0.51537  0.11078  Biso   1.000  C
  H82      1.0000 0.92665  0.21861  0.88824  Biso   1.000  H
  C89      1.0000 0.94879  0.29086  0.91269  Biso   1.000  C
  H83      1.0000 0.97784  0.16430  0.99661  Biso   1.000  H
  C90      1.0000 0.97085  0.37948  0.95140  Biso   1.000  C
  H84      1.0000 0.01273  0.59010  0.31473  Biso   1.000  H
  C91      1.0000 0.98757  0.44404  0.05539  Biso   1.000  C
  C92      1.0000 0.14840  0.46913  0.14230  Biso   1.000  C
  H85      1.0000 0.82860  0.54200  0.13028  Biso   1.000  H
  H86      1.0000 0.85469  0.52329  0.05769  Biso   1.000  H
  H87      1.0000 0.83471  0.48452  0.11279  Biso   1.000  H
  O22      1.0000 0.93659  0.30709  0.83930  Biso   1.000  O
  C93      1.0000 0.03257  0.41074  0.01950  Biso   1.000  C
  H88      1.0000 0.99675  0.38298  0.91280  Biso   1.000  H
  C94      1.0000 0.85982  0.39713  0.91418  Biso   1.000  C
  H89      1.0000 0.92388  0.44280  0.04412  Biso   1.000  H
  C95      1.0000 0.19811  0.43572  0.10968  Biso   1.000  C
  O23      1.0000 0.20978  0.49747  0.20148  Biso   1.000  O
  H90      1.0000 0.93454  0.28210  0.80870  Biso   1.000  H
  C96      1.0000 0.14063  0.40673  0.04912  Biso   1.000  C
  H91      1.0000 0.81198  0.39239  0.94375  Biso   1.000  H
  H92      1.0000 0.86487  0.43521  0.90044  Biso   1.000  H
  H93      1.0000 0.82879  0.38079  0.86794  Biso   1.000  H
  H94      1.0000 0.27703  0.43149  0.12631  Biso   1.000  H
  H95      1.0000 0.27039  0.49021  0.20988  Biso   1.000  H
  O24      1.0000 0.19741  0.37580  0.01984  Biso   1.000  O
  H96      1.0000 0.16925  0.36420  0.99062  Biso   1.000  H
  O25      1.0000 0.45362  0.32211  0.51943  Biso   1.000  O
  C97      1.0000 0.45780  0.27328  0.50339  Biso   1.000  C
  H97      1.0000 0.47784  0.33572  0.49660  Biso   1.000  H
  C98      1.0000 0.44219  0.25811  0.42902  Biso   1.000  C
  C99      1.0000 0.48002  0.23983  0.56424  Biso   1.000  C
  C100     1.0000 0.44872  0.20913  0.41268  Biso   1.000  C
  H98      1.0000 0.42663  0.28141  0.38818  Biso   1.000  H
  C101     1.0000 0.48445  0.19074  0.54526  Biso   1.000  C
  C102     1.0000 0.49718  0.25676  0.64678  Biso   1.000  C
  O26      1.0000 0.43656  0.19293  0.33923  Biso   1.000  O
  C103     1.0000 0.47042  0.17422  0.47152  Biso   1.000  C
  H99      1.0000 0.49656  0.16758  0.58472  Biso   1.000  H
  C104     1.0000 0.55599  0.21923  0.70608  Biso   1.000  C
  H100     1.0000 0.54053  0.28951  0.66064  Biso   1.000  H
  C105     1.0000 0.39399  0.27134  0.65621  Biso   1.000  C
  H101     1.0000 0.43454  0.21791  0.30869  Biso   1.000  H
  C106     1.0000 0.47077  0.12054  0.45139  Biso   1.000  C
  C107     1.0000 0.66071  0.21175  0.71810  Biso   1.000  C
  C108     1.0000 0.51062  0.18987  0.74893  Biso   1.000  C
  H102     1.0000 0.34635  0.24530  0.64850  Biso   1.000  H
  H103     1.0000 0.40878  0.28269  0.71240  Biso   1.000  H
  H104     1.0000 0.36696  0.29348  0.62061  Biso   1.000  H
  H105     1.0000 0.49675  0.11700  0.41280  Biso   1.000  H
  C109     1.0000 0.35980  0.10285  0.41412  Biso   1.000  C
  C110     1.0000 0.53259  0.08928  0.51955  Biso   1.000  C
  O27      1.0000 0.71370  0.23805  0.67933  Biso   1.000  O
  C111     1.0000 0.71616  0.17688  0.77004  Biso   1.000  C
  C112     1.0000 0.56332  0.15482  0.80207  Biso   1.000  C
  H106     1.0000 0.43258  0.19559  0.74214  Biso   1.000  H
  H107     1.0000 0.31196  0.10759  0.44368  Biso   1.000  H
  H108     1.0000 0.36487  0.06481  0.40043  Biso   1.000  H
  H109     1.0000 0.32872  0.11919  0.36794  Biso   1.000  H
  C113     1.0000 0.64070  0.09329  0.54911  Biso   1.000  C
  C114     1.0000 0.48764  0.05598  0.55538  Biso   1.000  C
  H110     1.0000 0.68609  0.25840  0.66984  Biso   1.000  H
  C115     1.0000 0.66844  0.14909  0.81185  Biso   1.000  C
  H111     1.0000 0.79147  0.17141  0.77492  Biso   1.000  H
  C116     1.0000 0.51373  0.12382  0.84958  Biso   1.000  C
  O28      1.0000 0.69751  0.12418  0.51989  Biso   1.000  O
  C117     1.0000 0.69811  0.06426  0.60968  Biso   1.000  C
  C118     1.0000 0.54088  0.02600  0.61606  Biso   1.000  C
  H112     1.0000 0.42395  0.05719  0.54411  Biso   1.000  H
  O29      1.0000 0.72813  0.11678  0.86385  Biso   1.000  O
  C119     1.0000 0.51409  0.06904  0.83181  Biso   1.000  C
  H113     1.0000 0.55048  0.12882  0.90123  Biso   1.000  H
  C120     1.0000 0.40345  0.13957  0.84233  Biso   1.000  C
  H114     1.0000 0.66925  0.13582  0.49062  Biso   1.000  H
  H115     1.0000 0.77703  0.06849  0.62630  Biso   1.000  H
  C121     1.0000 0.64840  0.03089  0.64229  Biso   1.000  C
  C122     1.0000 0.48785  0.99023  0.65408  Biso   1.000  C
  H116     1.0000 0.78730  0.11780  0.86264  Biso   1.000  H
  C123     1.0000 0.50716  0.05336  0.75830  Biso   1.000  C
  C124     1.0000 0.51619  0.03275  0.88628  Biso   1.000  C
  H117     1.0000 0.39846  0.17900  0.86103  Biso   1.000  H
  H118     1.0000 0.35746  0.13870  0.78953  Biso   1.000  H
  H119     1.0000 0.37972  0.11569  0.87259  Biso   1.000  H
  O30      1.0000 0.70988  0.00255  0.70153  Biso   1.000  O
  C125     1.0000 0.50234  0.00460  0.73650  Biso   1.000  C
  H120     1.0000 0.52118  0.95642  0.65420  Biso   1.000  H
  C126     1.0000 0.37258  0.98465  0.61083  Biso   1.000  C
  H121     1.0000 0.50584  0.07630  0.71442  Biso   1.000  H
  C127     1.0000 0.51166  0.98395  0.86712  Biso   1.000  C
  O31      1.0000 0.52452  0.04559  0.96047  Biso   1.000  O
  H122     1.0000 0.77049  0.00981  0.70993  Biso   1.000  H
  C128     1.0000 0.50354  0.96940  0.79293  Biso   1.000  C
  H123     1.0000 0.33471  0.01550  0.61278  Biso   1.000  H
  H124     1.0000 0.32863  0.95799  0.63033  Biso   1.000  H
  H125     1.0000 0.35476  0.97669  0.55768  Biso   1.000  H
  H126     1.0000 0.51061  0.96101  0.90744  Biso   1.000  H
  H127     1.0000 0.51178  0.02188  0.98290  Biso   1.000  H
  O32      1.0000 0.49719  0.92100  0.77245  Biso   1.000  O
  H128     1.0000 0.51280  0.90992  0.81473  Biso   1.000  H
  O33      1.0000 0.54638  0.67789  0.48055  Biso   1.000  O
  H129     1.0000 0.52224  0.66428  0.50339  Biso   1.000  H
  C129     1.0000 0.54222  0.72672  0.49666  Biso   1.000  C
  C130     1.0000 0.52005  0.76017  0.43575  Biso   1.000  C
  C131     1.0000 0.55791  0.74189  0.57103  Biso   1.000  C
  C132     1.0000 0.50292  0.74324  0.35327  Biso   1.000  C
  C133     1.0000 0.51563  0.80926  0.45473  Biso   1.000  C
  H130     1.0000 0.57345  0.71859  0.61181  Biso   1.000  H
  C134     1.0000 0.55131  0.79087  0.58736  Biso   1.000  C
  C135     1.0000 0.44411  0.78077  0.29397  Biso   1.000  C
  H131     1.0000 0.45950  0.71049  0.33941  Biso   1.000  H
  C136     1.0000 0.60608  0.72866  0.34378  Biso   1.000  C
  C137     1.0000 0.52961  0.82578  0.52852  Biso   1.000  C
  H132     1.0000 0.50354  0.83242  0.41533  Biso   1.000  H
  O34      1.0000 0.56351  0.80707  0.66075  Biso   1.000  O
  C138     1.0000 0.33939  0.78825  0.28195  Biso   1.000  C
  C139     1.0000 0.48948  0.81013  0.25112  Biso   1.000  C
  H133     1.0000 0.65373  0.75470  0.35149  Biso   1.000  H
  H134     1.0000 0.59129  0.71731  0.28758  Biso   1.000  H
  H135     1.0000 0.63311  0.70652  0.37938  Biso   1.000  H
  C140     1.0000 0.52923  0.87946  0.54860  Biso   1.000  C
  H136     1.0000 0.56553  0.78209  0.69129  Biso   1.000  H
  O35      1.0000 0.28633  0.76195  0.32071  Biso   1.000  O
  C141     1.0000 0.28395  0.82312  0.23001  Biso   1.000  C
  C142     1.0000 0.43676  0.84518  0.19792  Biso   1.000  C
  H137     1.0000 0.56752  0.80441  0.25791  Biso   1.000  H
  H138     1.0000 0.50333  0.88300  0.58719  Biso   1.000  H
  C143     1.0000 0.64028  0.89715  0.58587  Biso   1.000  C
  C144     1.0000 0.46751  0.91072  0.48050  Biso   1.000  C
  H139     1.0000 0.31401  0.74160  0.33020  Biso   1.000  H
  C145     1.0000 0.33166  0.85091  0.18820  Biso   1.000  C
  H140     1.0000 0.20863  0.82859  0.22512  Biso   1.000  H
  C146     1.0000 0.48635  0.87618  0.15041  Biso   1.000  C
  H141     1.0000 0.68812  0.89241  0.55630  Biso   1.000  H
  H142     1.0000 0.63523  0.93519  0.59961  Biso   1.000  H
  H143     1.0000 0.67131  0.88081  0.63211  Biso   1.000  H
  C147     1.0000 0.35940  0.90671  0.45093  Biso   1.000  C
  C148     1.0000 0.51246  0.94402  0.44466  Biso   1.000  C
  O36      1.0000 0.27197  0.88322  0.13620  Biso   1.000  O
  C149     1.0000 0.48601  0.93096  0.16824  Biso   1.000  C
  H144     1.0000 0.44962  0.87118  0.09881  Biso   1.000  H
  C150     1.0000 0.59665  0.86043  0.15771  Biso   1.000  C
  O37      1.0000 0.30259  0.87582  0.48015  Biso   1.000  O
  C151     1.0000 0.30192  0.93574  0.39037  Biso   1.000  C
  C152     1.0000 0.45920  0.97400  0.38392  Biso   1.000  C
  H145     1.0000 0.57615  0.94281  0.45594  Biso   1.000  H
  H146     1.0000 0.21280  0.88220  0.13741  Biso   1.000  H
  C153     1.0000 0.48389  0.96725  0.11371  Biso   1.000  C
  C154     1.0000 0.49292  0.94664  0.24169  Biso   1.000  C
  H147     1.0000 0.60164  0.82100  0.13902  Biso   1.000  H
  H148     1.0000 0.64264  0.86130  0.21051  Biso   1.000  H
  H149     1.0000 0.62028  0.88431  0.12740  Biso   1.000  H
  H150     1.0000 0.33085  0.86418  0.50943  Biso   1.000  H
  H151     1.0000 0.22304  0.93151  0.37369  Biso   1.000  H
  C155     1.0000 0.35170  0.96911  0.35775  Biso   1.000  C
  C156     1.0000 0.51225  0.00977  0.34596  Biso   1.000  C
  O38      1.0000 0.47556  0.95441  0.03951  Biso   1.000  O
  C157     1.0000 0.48842  0.01605  0.13286  Biso   1.000  C
  C158     1.0000 0.49774  0.99540  0.26348  Biso   1.000  C
  H152     1.0000 0.49426  0.92370  0.28563  Biso   1.000  H
  O39      1.0000 0.29022  0.99745  0.29851  Biso   1.000  O
  H153     1.0000 0.47890  0.04358  0.34579  Biso   1.000  H
  C159     1.0000 0.62752  0.01535  0.38922  Biso   1.000  C
  H154     1.0000 0.48830  0.97812  0.01708  Biso   1.000  H
  C160     1.0000 0.49656  0.03060  0.20712  Biso   1.000  C
  H155     1.0000 0.48949  0.03899  0.09260  Biso   1.000  H
  H156     1.0000 0.22961  0.99019  0.29011  Biso   1.000  H
  H157     1.0000 0.66530  0.98450  0.38720  Biso   1.000  H
  H158     1.0000 0.67140  0.04201  0.36972  Biso   1.000  H
  H159     1.0000 0.64531  0.02331  0.44230  Biso   1.000  H
  O40      1.0000 0.50284  0.07900  0.22759  Biso   1.000  O
  H160     1.0000 0.48730  0.09008  0.18532  Biso   1.000  H
  O41      1.0000 0.77197  0.61676  0.63619  Biso   1.000  O
  C161     1.0000 0.83166  0.64911  0.68819  Biso   1.000  C
  H161     1.0000 0.71287  0.61778  0.63740  Biso   1.000  H
  C162     1.0000 0.93686  0.65484  0.69797  Biso   1.000  C
  C163     1.0000 0.78402  0.67687  0.73000  Biso   1.000  C
  C164     1.0000 0.98645  0.62380  0.65046  Biso   1.000  C
  C165     1.0000 0.98948  0.68989  0.75111  Biso   1.000  C
  H162     1.0000 0.70863  0.67140  0.72511  Biso   1.000  H
  C166     1.0000 0.83939  0.71177  0.78194  Biso   1.000  C
  C167     1.0000 0.98601  0.56906  0.66823  Biso   1.000  C
  H163     1.0000 0.94962  0.62880  0.59881  Biso   1.000  H
  C168     1.0000 0.09672  0.63959  0.65770  Biso   1.000  C
  C169     1.0000 0.94411  0.71925  0.79396  Biso   1.000  C
  H164     1.0000 0.06752  0.69561  0.75790  Biso   1.000  H
  O42      1.0000 0.78641  0.73806  0.82071  Biso   1.000  O
  C170     1.0000 0.98392  0.53277  0.61376  Biso   1.000  C
  C171     1.0000 0.99302  0.55338  0.74174  Biso   1.000  C
  H165     1.0000 0.10164  0.67902  0.63901  Biso   1.000  H
  H166     1.0000 0.14264  0.63872  0.71051  Biso   1.000  H
  H167     1.0000 0.12036  0.61570  0.62739  Biso   1.000  H
  C172     1.0000 0.00300  0.75674  0.85326  Biso   1.000  C
  H168     1.0000 0.81408  0.75842  0.83020  Biso   1.000  H
  C173     1.0000 0.98842  0.48393  0.63286  Biso   1.000  C
  O43      1.0000 0.97558  0.54561  0.53957  Biso   1.000  O
  C174     1.0000 0.99784  0.50461  0.76354  Biso   1.000  C
  H169     1.0000 0.99426  0.57632  0.78562  Biso   1.000  H
  H170     1.0000 0.95958  0.78949  0.83940  Biso   1.000  H
  C175     1.0000 0.10618  0.77136  0.84383  Biso   1.000  C
  C176     1.0000 0.02008  0.73985  0.93580  Biso   1.000  C
  C177     1.0000 0.99656  0.46942  0.70711  Biso   1.000  C
  H171     1.0000 0.98957  0.46099  0.59260  Biso   1.000  H
  H172     1.0000 0.98833  0.52190  0.51713  Biso   1.000  H
  C178     1.0000 0.01225  0.49021  0.84596  Biso   1.000  C
  H173     1.0000 0.15375  0.74529  0.85154  Biso   1.000  H
  H174     1.0000 0.09139  0.78271  0.78764  Biso   1.000  H
  H175     1.0000 0.13314  0.79350  0.87943  Biso   1.000  H
  C179     1.0000 0.01570  0.69073  0.95472  Biso   1.000  C
  C180     1.0000 0.04230  0.77330  0.99665  Biso   1.000  C
  O44      1.0000 0.00291  0.42102  0.72759  Biso   1.000  O
  C181     1.0000 0.95920  0.52599  0.88392  Biso   1.000  C
  H176     1.0000 0.97900  0.45640  0.84584  Biso   1.000  H
  C182     1.0000 0.12752  0.48463  0.88921  Biso   1.000  C
  C183     1.0000 0.02961  0.67424  0.02852  Biso   1.000  C
  H177     1.0000 0.00354  0.66760  0.91532  Biso   1.000  H
  C184     1.0000 0.05784  0.75812  0.07102  Biso   1.000  C
  O45      1.0000 0.04646  0.82209  0.98055  Biso   1.000  O
  H178     1.0000 0.98738  0.40990  0.68531  Biso   1.000  H
  C185     1.0000 0.85171  0.53087  0.85775  Biso   1.000  C
  C186     1.0000 0.01246  0.55596  0.94466  Biso   1.000  C
  H179     1.0000 0.17147  0.45800  0.86971  Biso   1.000  H
  H180     1.0000 0.14539  0.47671  0.94230  Biso   1.000  H
  H181     1.0000 0.16537  0.51548  0.88720  Biso   1.000  H
  C187     1.0000 0.02923  0.62052  0.04859  Biso   1.000  C
  C188     1.0000 0.05131  0.70914  0.08736  Biso   1.000  C
  H182     1.0000 0.07345  0.78139  0.11180  Biso   1.000  H
  H183     1.0000 0.02217  0.83570  0.00338  Biso   1.000  H
  O46      1.0000 0.79022  0.50253  0.79851  Biso   1.000  O
  C189     1.0000 0.80200  0.56428  0.89036  Biso   1.000  C
  C190     1.0000 0.96751  0.58926  0.98049  Biso   1.000  C
  H184     1.0000 0.07615  0.55720  0.95593  Biso   1.000  H
  H185     1.0000 0.00333  0.61702  0.08718  Biso   1.000  H
  C191     1.0000 0.14028  0.60287  0.08586  Biso   1.000  C
  O47      1.0000 0.06344  0.69291  0.16075  Biso   1.000  O
  H186     1.0000 0.72968  0.50979  0.79011  Biso   1.000  H
  C192     1.0000 0.85940  0.59327  0.95093  Biso   1.000  C
  H187     1.0000 0.72307  0.56851  0.87374  Biso   1.000  H
  H188     1.0000 0.18812  0.60761  0.05630  Biso   1.000  H
  H189     1.0000 0.13524  0.56479  0.09961  Biso   1.000  H
  H190     1.0000 0.17131  0.61921  0.13210  Biso   1.000  H
  H191     1.0000 0.06554  0.71790  0.19129  Biso   1.000  H
  O48      1.0000 0.80267  0.62420  0.98014  Biso   1.000  O
  H192     1.0000 0.83076  0.63580  0.00936  Biso   1.000  H
  C193     1.0000 0.23696  0.26442  0.76394  Biso   1.000  C
  C194     1.0000 0.13324  0.24994  0.77297  Biso   1.000  C
  H193     1.0000 0.27042  0.28779  0.79310  Biso   1.000  H
  H194     1.0000 0.22716  0.27510  0.72063  Biso   1.000  H
  H195     1.0000 0.28764  0.23509  0.77159  Biso   1.000  H
  C195     1.0000 0.07366  0.21463  0.70958  Biso   1.000  C
  C196     1.0000 0.15150  0.23010  0.85355  Biso   1.000  C
  H196     1.0000 0.08933  0.27729  0.76814  Biso   1.000  H
  C197     1.0000 0.11990  0.18768  0.66656  Biso   1.000  C
  C198     1.0000 0.96747  0.20945  0.69221  Biso   1.000  C
  C199     1.0000 0.17853  0.26219  0.91757  Biso   1.000  C
  C200     1.0000 0.14541  0.18086  0.86988  Biso   1.000  C
  C201     1.0000 0.06708  0.15642  0.60565  Biso   1.000  C
  H197     1.0000 0.19382  0.18870  0.67692  Biso   1.000  H
  C202     1.0000 0.91070  0.17947  0.63326  Biso   1.000  C
  O49      1.0000 0.91786  0.23662  0.73305  Biso   1.000  O
  O50      1.0000 0.18561  0.31157  0.91095  Biso   1.000  O
  C203     1.0000 0.19467  0.24483  0.99113  Biso   1.000  C
  C204     1.0000 0.16122  0.16259  0.94305  Biso   1.000  C
  H198     1.0000 0.12573  0.15591  0.82479  Biso   1.000  H
  C205     1.0000 0.12070  0.12732  0.55987  Biso   1.000  C
  C206     1.0000 0.96043  0.15373  0.58989  Biso   1.000  C
  H199     1.0000 0.83014  0.17579  0.62239  Biso   1.000  H
  H200     1.0000 0.84643  0.23440  0.70958  Biso   1.000  H
  H201     1.0000 0.17635  0.32080  0.85792  Biso   1.000  H
  H202     1.0000 0.21773  0.26460  0.03346  Biso   1.000  H
  C207     1.0000 0.18502  0.19600  0.00384  Biso   1.000  C
  C208     1.0000 0.15568  0.10755  0.95714  Biso   1.000  C
  C209     1.0000 0.23181  0.14329  0.57385  Biso   1.000  C
  C210     1.0000 0.11840  0.07287  0.57408  Biso   1.000  C
  H203     1.0000 0.08115  0.13440  0.50483  Biso   1.000  H
  O51      1.0000 0.90280  0.12480  0.52933  Biso   1.000  O
  O52      1.0000 0.19832  0.18174  0.07890  Biso   1.000  O
  C211     1.0000 0.09276  0.07984  0.88599  Biso   1.000  C
  H204     1.0000 0.12159  0.10442  0.99550  Biso   1.000  H
  C212     1.0000 0.26494  0.08735  0.99383  Biso   1.000  C
  H205     1.0000 0.24401  0.17842  0.56729  Biso   1.000  H
  H206     1.0000 0.27884  0.13790  0.62653  Biso   1.000  H
  H207     1.0000 0.26723  0.12521  0.54601  Biso   1.000  H
  C213     1.0000 0.12002  0.03968  0.51662  Biso   1.000  C
  C214     1.0000 0.11915  0.05369  0.64425  Biso   1.000  C
  H208     1.0000 0.81742  0.12251  0.52720  Biso   1.000  H
  H209     1.0000 0.21202  0.20570  0.10720  Biso   1.000  H
  C215     1.0000 0.13550  0.04847  0.84509  Biso   1.000  C
  C216     1.0000 0.98485  0.08366  0.85970  Biso   1.000  C
  H210     1.0000 0.31080  0.08990  0.96174  Biso   1.000  H
  H211     1.0000 0.26655  0.05299  0.99832  Biso   1.000  H
  H212     1.0000 0.29989  0.09938  0.04318  Biso   1.000  H
  O53      1.0000 0.11967  0.05799  0.44668  Biso   1.000  O
  C217     1.0000 0.12163  0.98993  0.53007  Biso   1.000  C
  C218     1.0000 0.12089  0.00398  0.66018  Biso   1.000  C
  H213     1.0000 0.12479  0.07382  0.68123  Biso   1.000  H
  C219     1.0000 0.07872  0.02013  0.78263  Biso   1.000  C
  H214     1.0000 0.20875  0.04610  0.85942  Biso   1.000  H
  C220     1.0000 0.92534  0.05646  0.79764  Biso   1.000  C
  O54      1.0000 0.93817  0.11463  0.89674  Biso   1.000  O
  H215     1.0000 0.09951  0.03691  0.40181  Biso   1.000  H
  C221     1.0000 0.12173  0.97257  0.60094  Biso   1.000  C
  H216     1.0000 0.11875  0.96729  0.49459  Biso   1.000  H
  C222     1.0000 0.12839  0.98541  0.73995  Biso   1.000  C
  C223     1.0000 0.97165  0.02440  0.76077  Biso   1.000  C
  H217     1.0000 0.84219  0.05679  0.78102  Biso   1.000  H
  H218     1.0000 0.87556  0.11361  0.87564  Biso   1.000  H
  O55      1.0000 0.12474  0.92257  0.61480  Biso   1.000  O
  H219     1.0000 0.09234  0.95080  0.72880  Biso   1.000  H
  C224     1.0000 0.24293  0.97491  0.78620  Biso   1.000  C
  O56      1.0000 0.91187  0.99493  0.70159  Biso   1.000  O
  H220     1.0000 0.10175  0.90780  0.56913  Biso   1.000  H
  H221     1.0000 0.28994  0.00160  0.78913  Biso   1.000  H
  H222     1.0000 0.25025  0.96451  0.84113  Biso   1.000  H
  H223     1.0000 0.26242  0.94931  0.76371  Biso   1.000  H
  H224     1.0000 0.85842  0.00051  0.69791  Biso   1.000  H
  C225     1.0000 0.76311  0.73558  0.23605  Biso   1.000  C
  C226     1.0000 0.86686  0.75006  0.22708  Biso   1.000  C
  H225     1.0000 0.72959  0.71221  0.20689  Biso   1.000  H
  H226     1.0000 0.77294  0.72490  0.27942  Biso   1.000  H
  H227     1.0000 0.71244  0.76491  0.22840  Biso   1.000  H
  C227     1.0000 0.84857  0.76990  0.14644  Biso   1.000  C
  C228     1.0000 0.92645  0.78537  0.29046  Biso   1.000  C
  H228     1.0000 0.91070  0.72271  0.23191  Biso   1.000  H
  C229     1.0000 0.82155  0.73781  0.08242  Biso   1.000  C
  C230     1.0000 0.85467  0.81914  0.13010  Biso   1.000  C
  C231     1.0000 0.88020  0.81232  0.33348  Biso   1.000  C
  C232     1.0000 0.03264  0.79055  0.30783  Biso   1.000  C
  O57      1.0000 0.81442  0.68843  0.08909  Biso   1.000  O
  C233     1.0000 0.80541  0.75517  0.00886  Biso   1.000  C
  C234     1.0000 0.83885  0.83741  0.05694  Biso   1.000  C
  H229     1.0000 0.87428  0.84409  0.17520  Biso   1.000  H
  C235     1.0000 0.93300  0.84358  0.39434  Biso   1.000  C
  H230     1.0000 0.80621  0.81130  0.32313  Biso   1.000  H
  O58      1.0000 0.08221  0.76338  0.26694  Biso   1.000  O
  C236     1.0000 0.08933  0.82053  0.36678  Biso   1.000  C
  H231     1.0000 0.82375  0.67920  0.14212  Biso   1.000  H
  H232     1.0000 0.78235  0.73540  0.96653  Biso   1.000  H
  C237     1.0000 0.81498  0.80400  0.99615  Biso   1.000  C
  C238     1.0000 0.84440  0.89245  0.04285  Biso   1.000  C
  C239     1.0000 0.87940  0.87268  0.44018  Biso   1.000  C
  C240     1.0000 0.03958  0.84627  0.41009  Biso   1.000  C
  H233     1.0000 0.15365  0.76560  0.29040  Biso   1.000  H
  H234     1.0000 0.16993  0.82421  0.37760  Biso   1.000  H
  O59      1.0000 0.80176  0.81826  0.92109  Biso   1.000  O
  H235     1.0000 0.87849  0.89558  0.00449  Biso   1.000  H
  C241     1.0000 0.73516  0.91265  0.00621  Biso   1.000  C
  C242     1.0000 0.90734  0.92016  0.11406  Biso   1.000  C
  C243     1.0000 0.88162  0.92713  0.42597  Biso   1.000  C
  H236     1.0000 0.91895  0.86560  0.49522  Biso   1.000  H
  C244     1.0000 0.76827  0.85671  0.42614  Biso   1.000  C
  O60      1.0000 0.09730  0.87520  0.47072  Biso   1.000  O
  H237     1.0000 0.78808  0.79430  0.89285  Biso   1.000  H
  H238     1.0000 0.68930  0.91010  0.03831  Biso   1.000  H
  H239     1.0000 0.73348  0.94701  0.00173  Biso   1.000  H
  H240     1.0000 0.70019  0.90062  0.95680  Biso   1.000  H
  C245     1.0000 0.86461  0.95153  0.15495  Biso   1.000  C
  C246     1.0000 0.01525  0.91634  0.14034  Biso   1.000  C
  C247     1.0000 0.88008  0.96032  0.48343  Biso   1.000  C
  C248     1.0000 0.88095  0.94631  0.35580  Biso   1.000  C
  H241     1.0000 0.75600  0.82158  0.43270  Biso   1.000  H
  H242     1.0000 0.72126  0.86210  0.37351  Biso   1.000  H
  H243     1.0000 0.73285  0.87479  0.45398  Biso   1.000  H
  H244     1.0000 0.18266  0.87749  0.47279  Biso   1.000  H
  C249     1.0000 0.92136  0.97987  0.21736  Biso   1.000  C
  H245     1.0000 0.79135  0.95390  0.14063  Biso   1.000  H
  O61      1.0000 0.06193  0.88537  0.10330  Biso   1.000  O
  C250     1.0000 0.07474  0.94354  0.20234  Biso   1.000  C
  O62      1.0000 0.88040  0.94201  0.55331  Biso   1.000  O
  C251     1.0000 0.87848  0.01007  0.46997  Biso   1.000  C
  C252     1.0000 0.87922  0.99602  0.33987  Biso   1.000  C
  H246     1.0000 0.87531  0.92618  0.31882  Biso   1.000  H
  C253     1.0000 0.87164  0.01459  0.26009  Biso   1.000  C
  C254     1.0000 0.02845  0.97560  0.23927  Biso   1.000  C
  H247     1.0000 0.12454  0.88639  0.12441  Biso   1.000  H
  H248     1.0000 0.15791  0.94321  0.21902  Biso   1.000  H
  H249     1.0000 0.90052  0.96309  0.59823  Biso   1.000  H
  C255     1.0000 0.87838  0.02743  0.39911  Biso   1.000  C
  H250     1.0000 0.88133  0.03271  0.50540  Biso   1.000  H
  H251     1.0000 0.90774  0.04920  0.27119  Biso   1.000  H
  C256     1.0000 0.75715  0.02509  0.21379  Biso   1.000  C
  O63      1.0000 0.08820  0.00507  0.29840  Biso   1.000  O
  O64      1.0000 0.87534  0.07743  0.38519  Biso   1.000  O
  H252     1.0000 0.71009  0.99840  0.21091  Biso   1.000  H
  H253     1.0000 0.74985  0.03549  0.15892  Biso   1.000  H
  H254     1.0000 0.73758  0.05069  0.23628  Biso   1.000  H
  H255     1.0000 0.14158  0.99949  0.30208  Biso   1.000  H
  H256     1.0000 0.89835  0.09220  0.43092  Biso   1.000  H
