data_image0
_cell_length_a       13.097
_cell_length_b       13.802
_cell_length_c       13.992
_cell_angle_alpha    63.41
_cell_angle_beta     84.95
_cell_angle_gamma    75.22

_symmetry_space_group_name_H-M    "P 1"
_symmetry_int_tables_number       1

loop_
  _symmetry_equiv_pos_as_xyz
  'x, y, z'

loop_
  _atom_site_label
  _atom_site_occupancy
  _atom_site_fract_x
  _atom_site_fract_y
  _atom_site_fract_z
  _atom_site_thermal_displace_type
  _atom_site_B_iso_or_equiv
  _atom_site_type_symbol
  C1       1.0000 0.57041  0.60466  0.63272  Biso   1.000  C
  C2       1.0000 0.59905  0.52583  0.75090  Biso   1.000  C
  C3       1.0000 0.66111  0.65446  0.56923  Biso   1.000  C
  H1       1.0000 0.55280  0.55874  0.59969  Biso   1.000  H
  C4       1.0000 0.46998  0.69546  0.62512  Biso   1.000  C
  C5       1.0000 0.53129  0.45720  0.81263  Biso   1.000  C
  C6       1.0000 0.68555  0.52380  0.80471  Biso   1.000  C
  C7       1.0000 0.74337  0.59405  0.53221  Biso   1.000  C
  C8       1.0000 0.66450  0.76530  0.54108  Biso   1.000  C
  H2       1.0000 0.48099  0.73893  0.66150  Biso   1.000  H
  H3       1.0000 0.45082  0.74836  0.55100  Biso   1.000  H
  H4       1.0000 0.41015  0.66111  0.66046  Biso   1.000  H
  O1       1.0000 0.44550  0.45608  0.76273  Biso   1.000  O
  C9       1.0000 0.54955  0.39236  0.92241  Biso   1.000  C
  C10      1.0000 0.70678  0.45914  0.91473  Biso   1.000  C
  H5       1.0000 0.73370  0.57334  0.76161  Biso   1.000  H
  O2       1.0000 0.75111  0.48393  0.55116  Biso   1.000  O
  C11      1.0000 0.82480  0.64005  0.47256  Biso   1.000  C
  H6       1.0000 0.60670  0.80946  0.56507  Biso   1.000  H
  C12      1.0000 0.74377  0.81617  0.48079  Biso   1.000  C
  H7       1.0000 0.42076  0.39637  0.80431  Biso   1.000  H
  H8       1.0000 0.50205  0.34819  0.96263  Biso   1.000  H
  C13      1.0000 0.63585  0.39286  0.97350  Biso   1.000  C
  C14      1.0000 0.79872  0.46101  0.97422  Biso   1.000  C
  H9       1.0000 0.69506  0.45486  0.57747  Biso   1.000  H
  C15      1.0000 0.82514  0.75013  0.44737  Biso   1.000  C
  H10      1.0000 0.88215  0.59498  0.44777  Biso   1.000  H
  C16      1.0000 0.74177  0.93817  0.44793  Biso   1.000  C
  O3       1.0000 0.65574  0.32870  0.08097  Biso   1.000  O
  C17      1.0000 0.87862  0.51914  0.89786  Biso   1.000  C
  H11      1.0000 0.83660  0.37916  0.02060  Biso   1.000  H
  C18      1.0000 0.75547  0.51315  0.05130  Biso   1.000  C
  O4       1.0000 0.90426  0.79770  0.38740  Biso   1.000  O
  C19      1.0000 0.81725  0.95430  0.51422  Biso   1.000  C
  H12      1.0000 0.76406  0.96895  0.37141  Biso   1.000  H
  C20      1.0000 0.63026  0.00819  0.45193  Biso   1.000  C
  H13      1.0000 0.60301  0.29540  0.11095  Biso   1.000  H
  C21      1.0000 0.94755  0.47016  0.84077  Biso   1.000  C
  C22      1.0000 0.88496  0.62590  0.88003  Biso   1.000  C
  H14      1.0000 0.70873  0.46889  0.10408  Biso   1.000  H
  H15      1.0000 0.81451  0.51799  0.08681  Biso   1.000  H
  H16      1.0000 0.71014  0.59100  0.01116  Biso   1.000  H
  H17      1.0000 0.95203  0.74657  0.37317  Biso   1.000  H
  C23      1.0000 0.85565  0.87380  0.61617  Biso   1.000  C
  C24      1.0000 0.84415  0.05808  0.47472  Biso   1.000  C
  H18      1.0000 0.61031  0.98642  0.52581  Biso   1.000  H
  H19      1.0000 0.57682  0.99783  0.41411  Biso   1.000  H
  H20      1.0000 0.63275  0.09085  0.41811  Biso   1.000  H
  O5       1.0000 0.95102  0.36565  0.84853  Biso   1.000  O
  C25      1.0000 0.01805  0.52600  0.76937  Biso   1.000  C
  C26      1.0000 0.95534  0.68431  0.81071  Biso   1.000  C
  H21      1.0000 0.83665  0.66172  0.91953  Biso   1.000  H
  C27      1.0000 0.91840  0.89081  0.68053  Biso   1.000  C
  H22      1.0000 0.83815  0.79939  0.64479  Biso   1.000  H
  O6       1.0000 0.80748  0.13716  0.37389  Biso   1.000  O
  C28      1.0000 0.90620  0.07852  0.53669  Biso   1.000  C
  H23      1.0000 0.91058  0.32715  0.89578  Biso   1.000  H
  H24      1.0000 0.06490  0.49085  0.72891  Biso   1.000  H
  C29      1.0000 0.02287  0.63118  0.75593  Biso   1.000  C
  C30      1.0000 0.95838  0.80137  0.79280  Biso   1.000  C
  C31      1.0000 0.94311  0.99577  0.63815  Biso   1.000  C
  H25      1.0000 0.83993  0.19308  0.35206  Biso   1.000  H
  H26      1.0000 0.92802  0.15097  0.50598  Biso   1.000  H
  O7       1.0000 0.09524  0.68503  0.68821  Biso   1.000  O
  C32      1.0000 0.89688  0.83442  0.87731  Biso   1.000  C
  H27      1.0000 0.03383  0.79906  0.79927  Biso   1.000  H
  O8       1.0000 0.00519  0.01363  0.70068  Biso   1.000  O
  H28      1.0000 0.14170  0.63611  0.66934  Biso   1.000  H
  H29      1.0000 0.90259  0.91036  0.86260  Biso   1.000  H
  H30      1.0000 0.81831  0.83678  0.87220  Biso   1.000  H
  H31      1.0000 0.92480  0.77952  0.95088  Biso   1.000  H
  H32      1.0000 0.03077  0.07073  0.66166  Biso   1.000  H
  C33      1.0000 0.42972  0.39524  0.36725  Biso   1.000  C
  C34      1.0000 0.40107  0.47415  0.24907  Biso   1.000  C
  C35      1.0000 0.33900  0.34551  0.43074  Biso   1.000  C
  H33      1.0000 0.44733  0.44116  0.40028  Biso   1.000  H
  C36      1.0000 0.53015  0.30444  0.37485  Biso   1.000  C
  C37      1.0000 0.31459  0.47610  0.19526  Biso   1.000  C
  C38      1.0000 0.46882  0.54277  0.18734  Biso   1.000  C
  C39      1.0000 0.25675  0.40593  0.46776  Biso   1.000  C
  C40      1.0000 0.33561  0.23468  0.45889  Biso   1.000  C
  H34      1.0000 0.51915  0.26097  0.33847  Biso   1.000  H
  H35      1.0000 0.54929  0.25161  0.44897  Biso   1.000  H
  H36      1.0000 0.58996  0.33887  0.33951  Biso   1.000  H
  C41      1.0000 0.29333  0.54083  0.08524  Biso   1.000  C
  H37      1.0000 0.26642  0.42663  0.23836  Biso   1.000  H
  C42      1.0000 0.45057  0.60762  0.07756  Biso   1.000  C
  O9       1.0000 0.55463  0.54382  0.23724  Biso   1.000  O
  O10      1.0000 0.24903  0.51597  0.44881  Biso   1.000  O
  C43      1.0000 0.17534  0.35985  0.52741  Biso   1.000  C
  C44      1.0000 0.25635  0.18380  0.51918  Biso   1.000  C
  H38      1.0000 0.39342  0.19051  0.43490  Biso   1.000  H
  C45      1.0000 0.20139  0.53896  0.02575  Biso   1.000  C
  C46      1.0000 0.36426  0.60712  0.02647  Biso   1.000  C
  H39      1.0000 0.49806  0.65182  0.03726  Biso   1.000  H
  H40      1.0000 0.57935  0.60360  0.19566  Biso   1.000  H
  H41      1.0000 0.30507  0.54503  0.42250  Biso   1.000  H
  C47      1.0000 0.17500  0.24977  0.55260  Biso   1.000  C
  H42      1.0000 0.11796  0.40499  0.55220  Biso   1.000  H
  C48      1.0000 0.25834  0.06180  0.55204  Biso   1.000  C
  C49      1.0000 0.12150  0.48083  0.10211  Biso   1.000  C
  H43      1.0000 0.16351  0.62081  0.97937  Biso   1.000  H
  C50      1.0000 0.24465  0.48682  0.94867  Biso   1.000  C
  O11      1.0000 0.34437  0.67131  0.91892  Biso   1.000  O
  O12      1.0000 0.09585  0.20227  0.61257  Biso   1.000  O
  C51      1.0000 0.18286  0.04567  0.48575  Biso   1.000  C
  H44      1.0000 0.23606  0.03102  0.62856  Biso   1.000  H
  C52      1.0000 0.36985  0.99178  0.54804  Biso   1.000  C
  C53      1.0000 0.11517  0.37400  0.11994  Biso   1.000  C
  C54      1.0000 0.05256  0.52985  0.15912  Biso   1.000  C
  H45      1.0000 0.29139  0.53108  0.89589  Biso   1.000  H
  H46      1.0000 0.18561  0.48198  0.91316  Biso   1.000  H
  H47      1.0000 0.28997  0.40897  0.98881  Biso   1.000  H
  H48      1.0000 0.39710  0.70458  0.88902  Biso   1.000  H
  H49      1.0000 0.04808  0.25341  0.62680  Biso   1.000  H
  C55      1.0000 0.14446  0.12617  0.38380  Biso   1.000  C
  C56      1.0000 0.15596  0.94189  0.52525  Biso   1.000  C
  H50      1.0000 0.38983  0.01348  0.47416  Biso   1.000  H
  H51      1.0000 0.42331  0.00207  0.58586  Biso   1.000  H
  H52      1.0000 0.36736  0.90913  0.58186  Biso   1.000  H
  C57      1.0000 0.04470  0.31566  0.18926  Biso   1.000  C
  H53      1.0000 0.16346  0.33829  0.08036  Biso   1.000  H
  O13      1.0000 0.04910  0.63433  0.15144  Biso   1.000  O
  C58      1.0000 0.98209  0.47389  0.23060  Biso   1.000  C
  C59      1.0000 0.08171  0.10916  0.31944  Biso   1.000  C
  H54      1.0000 0.16197  0.20058  0.35518  Biso   1.000  H
  C60      1.0000 0.09391  0.92145  0.46328  Biso   1.000  C
  O14      1.0000 0.19265  0.86274  0.62608  Biso   1.000  O
  C61      1.0000 0.04173  0.19860  0.20717  Biso   1.000  C
  C62      1.0000 0.97724  0.36879  0.24404  Biso   1.000  C
  H55      1.0000 0.08954  0.67282  0.10419  Biso   1.000  H
  H56      1.0000 0.93522  0.50912  0.27106  Biso   1.000  H
  C63      1.0000 0.05700  0.00420  0.36182  Biso   1.000  C
  H57      1.0000 0.07210  0.84900  0.49399  Biso   1.000  H
  H58      1.0000 0.16018  0.80689  0.64791  Biso   1.000  H
  C64      1.0000 0.10323  0.16555  0.12266  Biso   1.000  C
  H59      1.0000 0.96628  0.20091  0.20070  Biso   1.000  H
  O15      1.0000 0.90487  0.31494  0.31176  Biso   1.000  O
  O16      1.0000 0.99492  0.98634  0.29929  Biso   1.000  O
  H60      1.0000 0.09753  0.08961  0.13737  Biso   1.000  H
  H61      1.0000 0.18180  0.16320  0.12777  Biso   1.000  H
  H62      1.0000 0.07533  0.22037  0.04909  Biso   1.000  H
  H63      1.0000 0.85841  0.36390  0.33055  Biso   1.000  H
  H64      1.0000 0.96936  0.92916  0.33831  Biso   1.000  H
