data_image0
_cell_length_a       30.608
_cell_length_b       16.861
_cell_length_c       22.005
_cell_angle_alpha    90
_cell_angle_beta     105.52
_cell_angle_gamma    90

_symmetry_space_group_name_H-M    "P 1"
_symmetry_int_tables_number       1

loop_
  _symmetry_equiv_pos_as_xyz
  'x, y, z'

loop_
  _atom_site_label
  _atom_site_occupancy
  _atom_site_fract_x
  _atom_site_fract_y
  _atom_site_fract_z
  _atom_site_thermal_displace_type
  _atom_site_B_iso_or_equiv
  _atom_site_type_symbol
  C1       1.0000 0.50078  0.44452  0.57507  Biso   1.000  C
  C2       1.0000 0.53213  0.40193  0.63204  Biso   1.000  C
  H1       1.0000 0.49581  0.41510  0.53989  Biso   1.000  H
  H2       1.0000 0.51163  0.50199  0.56913  Biso   1.000  H
  H3       1.0000 0.47143  0.45341  0.58639  Biso   1.000  H
  C3       1.0000 0.58079  0.39375  0.62700  Biso   1.000  C
  H4       1.0000 0.53344  0.44037  0.67180  Biso   1.000  H
  C4       1.0000 0.51224  0.32258  0.64497  Biso   1.000  C
  C5       1.0000 0.61595  0.38236  0.68223  Biso   1.000  C
  C6       1.0000 0.59268  0.39571  0.56979  Biso   1.000  C
  C7       1.0000 0.47561  0.32062  0.67227  Biso   1.000  C
  C8       1.0000 0.53010  0.24951  0.63303  Biso   1.000  C
  O1       1.0000 0.60523  0.37791  0.73878  Biso   1.000  O
  C9       1.0000 0.66083  0.37821  0.67930  Biso   1.000  C
  H5       1.0000 0.57012  0.40389  0.53333  Biso   1.000  H
  C10      1.0000 0.63743  0.39061  0.56479  Biso   1.000  C
  O2       1.0000 0.45811  0.39179  0.68628  Biso   1.000  O
  C11      1.0000 0.45755  0.24880  0.68558  Biso   1.000  C
  C12      1.0000 0.51365  0.17597  0.64685  Biso   1.000  C
  H6       1.0000 0.55833  0.25188  0.61860  Biso   1.000  H
  H7       1.0000 0.62783  0.37797  0.76420  Biso   1.000  H
  C13      1.0000 0.67141  0.38361  0.62219  Biso   1.000  C
  H8       1.0000 0.68444  0.36831  0.71760  Biso   1.000  H
  C14      1.0000 0.64980  0.39161  0.50206  Biso   1.000  C
  H9       1.0000 0.43991  0.38396  0.71279  Biso   1.000  H
  H10      1.0000 0.43324  0.24548  0.70831  Biso   1.000  H
  C15      1.0000 0.47657  0.17733  0.67336  Biso   1.000  C
  C16      1.0000 0.53433  0.09703  0.63549  Biso   1.000  C
  O3       1.0000 0.71622  0.38408  0.62077  Biso   1.000  O
  C17      1.0000 0.66818  0.31190  0.48635  Biso   1.000  C
  H11      1.0000 0.67412  0.43111  0.50673  Biso   1.000  H
  C18      1.0000 0.61070  0.41949  0.44641  Biso   1.000  C
  O4       1.0000 0.46027  0.10521  0.68732  Biso   1.000  O
  H12      1.0000 0.53323  0.05711  0.67171  Biso   1.000  H
  C19      1.0000 0.50546  0.05783  0.57474  Biso   1.000  C
  C20      1.0000 0.58463  0.10480  0.63728  Biso   1.000  C
  H13      1.0000 0.73594  0.38100  0.66402  Biso   1.000  H
  C21      1.0000 0.69614  0.30793  0.44490  Biso   1.000  C
  C22      1.0000 0.65830  0.24061  0.51159  Biso   1.000  C
  H14      1.0000 0.58461  0.38408  0.43523  Biso   1.000  H
  H15      1.0000 0.62062  0.42067  0.40471  Biso   1.000  H
  H16      1.0000 0.59872  0.46978  0.45442  Biso   1.000  H
  H17      1.0000 0.44332  0.10901  0.71302  Biso   1.000  H
  H18      1.0000 0.50391  0.08718  0.53800  Biso   1.000  H
  H19      1.0000 0.47342  0.05160  0.57648  Biso   1.000  H
  H20      1.0000 0.51821  0.00101  0.56851  Biso   1.000  H
  C23      1.0000 0.61659  0.12419  0.69373  Biso   1.000  C
  C24      1.0000 0.60114  0.09436  0.58450  Biso   1.000  C
  O5       1.0000 0.70597  0.37750  0.41801  Biso   1.000  O
  C25      1.0000 0.71383  0.23611  0.43169  Biso   1.000  C
  C26      1.0000 0.67502  0.16713  0.49899  Biso   1.000  C
  H21      1.0000 0.64022  0.24067  0.54229  Biso   1.000  H
  O6       1.0000 0.60224  0.13131  0.74783  Biso   1.000  O
  C27      1.0000 0.66218  0.13617  0.69685  Biso   1.000  C
  C28      1.0000 0.64697  0.10302  0.58535  Biso   1.000  C
  H22      1.0000 0.57942  0.07971  0.54602  Biso   1.000  H
  H23      1.0000 0.72893  0.36997  0.39981  Biso   1.000  H
  C29      1.0000 0.70388  0.16683  0.45862  Biso   1.000  C
  H24      1.0000 0.73452  0.23557  0.40320  Biso   1.000  H
  C30      1.0000 0.66401  0.08967  0.52720  Biso   1.000  C
  H25      1.0000 0.62422  0.12502  0.78113  Biso   1.000  H
  H26      1.0000 0.68434  0.15367  0.73783  Biso   1.000  H
  C31      1.0000 0.67702  0.12597  0.64237  Biso   1.000  C
  O7       1.0000 0.72190  0.09489  0.44801  Biso   1.000  O
  H27      1.0000 0.69232  0.06138  0.54290  Biso   1.000  H
  C32      1.0000 0.63160  0.03843  0.47692  Biso   1.000  C
  O8       1.0000 0.72239  0.13688  0.64520  Biso   1.000  O
  H28      1.0000 0.74491  0.10598  0.42462  Biso   1.000  H
  H29      1.0000 0.60021  0.06820  0.45523  Biso   1.000  H
  H30      1.0000 0.64272  0.02521  0.44131  Biso   1.000  H
  H31      1.0000 0.62413  0.98796  0.49461  Biso   1.000  H
  H32      1.0000 0.73664  0.16500  0.68921  Biso   1.000  H
  C33      1.0000 0.49925  0.55548  0.42495  Biso   1.000  C
  C34      1.0000 0.46790  0.59801  0.36797  Biso   1.000  C
  H33      1.0000 0.50421  0.58490  0.46008  Biso   1.000  H
  H34      1.0000 0.48840  0.49801  0.43089  Biso   1.000  H
  H35      1.0000 0.52863  0.54659  0.41363  Biso   1.000  H
  C35      1.0000 0.41925  0.60625  0.37302  Biso   1.000  C
  H36      1.0000 0.46663  0.55958  0.32821  Biso   1.000  H
  C36      1.0000 0.48780  0.67736  0.35505  Biso   1.000  C
  C37      1.0000 0.38409  0.61758  0.31779  Biso   1.000  C
  C38      1.0000 0.40735  0.60429  0.43023  Biso   1.000  C
  C39      1.0000 0.52443  0.67938  0.32774  Biso   1.000  C
  C40      1.0000 0.46994  0.75049  0.36698  Biso   1.000  C
  C41      1.0000 0.33920  0.62179  0.32071  Biso   1.000  C
  O9       1.0000 0.39480  0.62209  0.26124  Biso   1.000  O
  C42      1.0000 0.36261  0.60939  0.43523  Biso   1.000  C
  H37      1.0000 0.42992  0.59611  0.46669  Biso   1.000  H
  O10      1.0000 0.54193  0.60815  0.31373  Biso   1.000  O
  C43      1.0000 0.54249  0.75120  0.31444  Biso   1.000  C
  C44      1.0000 0.48639  0.82403  0.35316  Biso   1.000  C
  H38      1.0000 0.44171  0.74806  0.38141  Biso   1.000  H
  C45      1.0000 0.32863  0.61639  0.37783  Biso   1.000  C
  H39      1.0000 0.31560  0.63169  0.28242  Biso   1.000  H
  H40      1.0000 0.37221  0.62197  0.23582  Biso   1.000  H
  C46      1.0000 0.35023  0.60839  0.49796  Biso   1.000  C
  H41      1.0000 0.56011  0.61598  0.28718  Biso   1.000  H
  H42      1.0000 0.56680  0.75446  0.29171  Biso   1.000  H
  C47      1.0000 0.52347  0.82261  0.32666  Biso   1.000  C
  C48      1.0000 0.46571  0.90291  0.36453  Biso   1.000  C
  O11      1.0000 0.28381  0.61586  0.37925  Biso   1.000  O
  C49      1.0000 0.33188  0.68810  0.51362  Biso   1.000  C
  H43      1.0000 0.32591  0.56889  0.49329  Biso   1.000  H
  C50      1.0000 0.38933  0.58051  0.55361  Biso   1.000  C
  O12      1.0000 0.53977  0.89479  0.31270  Biso   1.000  O
  H44      1.0000 0.46681  0.94289  0.32831  Biso   1.000  H
  C51      1.0000 0.49458  0.94217  0.42528  Biso   1.000  C
  C52      1.0000 0.41541  0.89514  0.36274  Biso   1.000  C
  H45      1.0000 0.26413  0.61900  0.33600  Biso   1.000  H
  C53      1.0000 0.30389  0.69207  0.55512  Biso   1.000  C
  C54      1.0000 0.34174  0.75933  0.48843  Biso   1.000  C
  H46      1.0000 0.41543  0.61586  0.56479  Biso   1.000  H
  H47      1.0000 0.37942  0.57927  0.59530  Biso   1.000  H
  H48      1.0000 0.40131  0.53016  0.54559  Biso   1.000  H
  H49      1.0000 0.55671  0.89099  0.28699  Biso   1.000  H
  H50      1.0000 0.49612  0.91276  0.46202  Biso   1.000  H
  H51      1.0000 0.52661  0.94840  0.42349  Biso   1.000  H
  H52      1.0000 0.48182  0.99899  0.43150  Biso   1.000  H
  C55      1.0000 0.39890  0.90558  0.41551  Biso   1.000  C
  C56      1.0000 0.38344  0.87575  0.30628  Biso   1.000  C
  O13      1.0000 0.29407  0.62250  0.58200  Biso   1.000  O
  C57      1.0000 0.28621  0.76389  0.56833  Biso   1.000  C
  C58      1.0000 0.32501  0.83287  0.50102  Biso   1.000  C
  H53      1.0000 0.35981  0.75927  0.45773  Biso   1.000  H
  C59      1.0000 0.35306  0.89698  0.41467  Biso   1.000  C
  H54      1.0000 0.42061  0.92029  0.45400  Biso   1.000  H
  C60      1.0000 0.33785  0.86377  0.30317  Biso   1.000  C
  O14      1.0000 0.39780  0.86863  0.25219  Biso   1.000  O
  H55      1.0000 0.27114  0.62997  0.60021  Biso   1.000  H
  C61      1.0000 0.29616  0.83317  0.54139  Biso   1.000  C
  H56      1.0000 0.26552  0.76437  0.59681  Biso   1.000  H
  C62      1.0000 0.33602  0.91033  0.47282  Biso   1.000  C
  C63      1.0000 0.32301  0.87403  0.35764  Biso   1.000  C
  H57      1.0000 0.31569  0.84627  0.26218  Biso   1.000  H
  H58      1.0000 0.37581  0.87498  0.21889  Biso   1.000  H
  O15      1.0000 0.27814  0.90505  0.55201  Biso   1.000  O
  H59      1.0000 0.30771  0.93856  0.45711  Biso   1.000  H
  C64      1.0000 0.36843  0.96157  0.52310  Biso   1.000  C
  O16      1.0000 0.27764  0.86312  0.35481  Biso   1.000  O
  H60      1.0000 0.25513  0.89396  0.57540  Biso   1.000  H
  H61      1.0000 0.39982  0.93180  0.54479  Biso   1.000  H
  H62      1.0000 0.35731  0.97479  0.55870  Biso   1.000  H
  H63      1.0000 0.37591  0.01198  0.50541  Biso   1.000  H
  H64      1.0000 0.26343  0.83500  0.31081  Biso   1.000  H
  O17      1.0000 0.54192  0.39179  0.81372  Biso   1.000  O
  C65      1.0000 0.52446  0.32062  0.82773  Biso   1.000  C
  H65      1.0000 0.56012  0.38396  0.78721  Biso   1.000  H
  C66      1.0000 0.54253  0.24880  0.81447  Biso   1.000  C
  C67      1.0000 0.48784  0.32258  0.85508  Biso   1.000  C
  C68      1.0000 0.52347  0.17733  0.82664  Biso   1.000  C
  H66      1.0000 0.56683  0.24548  0.79169  Biso   1.000  H
  C69      1.0000 0.46994  0.24951  0.86701  Biso   1.000  C
  C70      1.0000 0.46793  0.40193  0.86796  Biso   1.000  C
  C71      1.0000 0.48643  0.17597  0.85320  Biso   1.000  C
  O18      1.0000 0.53976  0.10521  0.81268  Biso   1.000  O
  H67      1.0000 0.44174  0.25188  0.88140  Biso   1.000  H
  C72      1.0000 0.41929  0.39375  0.87305  Biso   1.000  C
  H68      1.0000 0.46662  0.44037  0.82820  Biso   1.000  H
  C73      1.0000 0.49925  0.44452  0.92493  Biso   1.000  C
  C74      1.0000 0.46574  0.09703  0.86452  Biso   1.000  C
  H69      1.0000 0.55675  0.10901  0.78702  Biso   1.000  H
  C75      1.0000 0.38412  0.38236  0.81778  Biso   1.000  C
  C76      1.0000 0.40738  0.39571  0.93021  Biso   1.000  C
  H70      1.0000 0.50425  0.41510  0.96012  Biso   1.000  H
  H71      1.0000 0.48844  0.50199  0.93092  Biso   1.000  H
  H72      1.0000 0.52863  0.45341  0.91361  Biso   1.000  H
  C77      1.0000 0.41545  0.10480  0.86277  Biso   1.000  C
  H73      1.0000 0.46684  0.05711  0.82829  Biso   1.000  H
  C78      1.0000 0.49458  0.05783  0.92531  Biso   1.000  C
  O19      1.0000 0.39484  0.37791  0.76127  Biso   1.000  O
  C79      1.0000 0.33923  0.37821  0.82070  Biso   1.000  C
  H74      1.0000 0.42995  0.40389  0.96672  Biso   1.000  H
  C80      1.0000 0.36260  0.39061  0.93521  Biso   1.000  C
  C81      1.0000 0.38347  0.12419  0.80627  Biso   1.000  C
  C82      1.0000 0.39890  0.09436  0.91550  Biso   1.000  C
  H75      1.0000 0.49612  0.08718  0.96200  Biso   1.000  H
  H76      1.0000 0.52665  0.05160  0.92352  Biso   1.000  H
  H77      1.0000 0.48183  0.00101  0.93154  Biso   1.000  H
  H78      1.0000 0.37224  0.37797  0.73580  Biso   1.000  H
  C83      1.0000 0.32867  0.38361  0.87786  Biso   1.000  C
  H79      1.0000 0.31563  0.36831  0.78240  Biso   1.000  H
  C84      1.0000 0.35023  0.39161  0.99794  Biso   1.000  C
  O20      1.0000 0.39783  0.13131  0.75217  Biso   1.000  O
  C85      1.0000 0.33788  0.13617  0.80315  Biso   1.000  C
  C86      1.0000 0.35306  0.10302  0.91465  Biso   1.000  C
  H80      1.0000 0.42065  0.07971  0.95403  Biso   1.000  H
  O21      1.0000 0.28381  0.38408  0.87923  Biso   1.000  O
  C87      1.0000 0.33185  0.31190  0.01365  Biso   1.000  C
  H81      1.0000 0.32595  0.43111  0.99332  Biso   1.000  H
  C88      1.0000 0.38930  0.41949  0.05360  Biso   1.000  C
  H82      1.0000 0.37582  0.12502  0.71892  Biso   1.000  H
  H83      1.0000 0.31573  0.15367  0.76222  Biso   1.000  H
  C89      1.0000 0.32304  0.12597  0.85763  Biso   1.000  C
  C90      1.0000 0.33605  0.08967  0.97280  Biso   1.000  C
  H84      1.0000 0.26413  0.38100  0.83603  Biso   1.000  H
  C91      1.0000 0.34177  0.24061  0.98846  Biso   1.000  C
  C92      1.0000 0.30390  0.30793  0.05515  Biso   1.000  C
  H85      1.0000 0.41540  0.38408  0.06482  Biso   1.000  H
  H86      1.0000 0.37942  0.42067  0.09534  Biso   1.000  H
  H87      1.0000 0.40132  0.46978  0.04562  Biso   1.000  H
  O22      1.0000 0.27767  0.13688  0.85480  Biso   1.000  O
  H88      1.0000 0.30774  0.06138  0.95710  Biso   1.000  H
  C93      1.0000 0.36841  0.03843  0.02313  Biso   1.000  C
  C94      1.0000 0.32502  0.16713  0.00105  Biso   1.000  C
  H89      1.0000 0.35984  0.24067  0.95771  Biso   1.000  H
  C95      1.0000 0.28622  0.23611  0.06836  Biso   1.000  C
  O23      1.0000 0.29407  0.37750  0.08204  Biso   1.000  O
  H90      1.0000 0.26343  0.16500  0.81080  Biso   1.000  H
  H91      1.0000 0.37591  0.98796  0.00539  Biso   1.000  H
  H92      1.0000 0.39979  0.06820  0.04482  Biso   1.000  H
  H93      1.0000 0.35732  0.02521  0.05874  Biso   1.000  H
  C96      1.0000 0.29612  0.16683  0.04138  Biso   1.000  C
  H94      1.0000 0.26552  0.23557  0.09680  Biso   1.000  H
  H95      1.0000 0.27111  0.36997  0.10024  Biso   1.000  H
  O24      1.0000 0.27814  0.09489  0.05204  Biso   1.000  O
  H96      1.0000 0.25510  0.10598  0.07543  Biso   1.000  H
  O25      1.0000 0.45810  0.60815  0.18625  Biso   1.000  O
  H97      1.0000 0.43992  0.61598  0.21280  Biso   1.000  H
  C97      1.0000 0.47558  0.67938  0.17229  Biso   1.000  C
  C98      1.0000 0.51220  0.67736  0.14493  Biso   1.000  C
  C99      1.0000 0.45751  0.75120  0.18554  Biso   1.000  C
  C100     1.0000 0.53210  0.59801  0.13206  Biso   1.000  C
  C101     1.0000 0.53009  0.75049  0.13300  Biso   1.000  C
  H98      1.0000 0.43321  0.75446  0.20832  Biso   1.000  H
  C102     1.0000 0.47657  0.82261  0.17337  Biso   1.000  C
  C103     1.0000 0.58075  0.60625  0.12697  Biso   1.000  C
  H99      1.0000 0.53341  0.55958  0.17182  Biso   1.000  H
  C104     1.0000 0.50078  0.55548  0.07504  Biso   1.000  C
  C105     1.0000 0.51364  0.82403  0.14682  Biso   1.000  C
  H100     1.0000 0.55830  0.74806  0.11862  Biso   1.000  H
  O26      1.0000 0.46027  0.89479  0.18734  Biso   1.000  O
  C106     1.0000 0.61592  0.61758  0.18224  Biso   1.000  C
  C107     1.0000 0.59266  0.60429  0.06980  Biso   1.000  C
  H101     1.0000 0.49582  0.58490  0.03990  Biso   1.000  H
  H102     1.0000 0.51159  0.49801  0.06910  Biso   1.000  H
  H103     1.0000 0.47140  0.54659  0.08640  Biso   1.000  H
  C108     1.0000 0.53433  0.90291  0.13550  Biso   1.000  C
  H104     1.0000 0.44332  0.89099  0.21299  Biso   1.000  H
  O27      1.0000 0.60519  0.62209  0.23874  Biso   1.000  O
  C109     1.0000 0.66079  0.62179  0.17927  Biso   1.000  C
  H105     1.0000 0.57011  0.59611  0.03330  Biso   1.000  H
  C110     1.0000 0.63743  0.60939  0.06480  Biso   1.000  C
  H106     1.0000 0.53320  0.94289  0.17172  Biso   1.000  H
  C111     1.0000 0.50545  0.94217  0.07471  Biso   1.000  C
  C112     1.0000 0.58459  0.89514  0.13725  Biso   1.000  C
  H107     1.0000 0.62780  0.62197  0.26421  Biso   1.000  H
  C113     1.0000 0.67137  0.61639  0.12215  Biso   1.000  C
  H108     1.0000 0.68441  0.63169  0.21761  Biso   1.000  H
  C114     1.0000 0.64980  0.60839  0.00208  Biso   1.000  C
  H109     1.0000 0.50391  0.91276  0.03801  Biso   1.000  H
  H110     1.0000 0.47339  0.94840  0.07650  Biso   1.000  H
  H111     1.0000 0.51821  0.99899  0.06848  Biso   1.000  H
  C115     1.0000 0.61656  0.87575  0.19375  Biso   1.000  C
  C116     1.0000 0.60114  0.90558  0.08452  Biso   1.000  C
  O28      1.0000 0.71622  0.61586  0.12074  Biso   1.000  O
  H112     1.0000 0.67409  0.56889  0.00670  Biso   1.000  H
  C117     1.0000 0.66818  0.68810  0.98637  Biso   1.000  C
  C118     1.0000 0.61073  0.58051  0.94637  Biso   1.000  C
  O29      1.0000 0.60221  0.86863  0.24785  Biso   1.000  O
  C119     1.0000 0.66218  0.86377  0.19686  Biso   1.000  C
  C120     1.0000 0.64698  0.89698  0.08537  Biso   1.000  C
  H113     1.0000 0.57938  0.92029  0.04598  Biso   1.000  H
  H114     1.0000 0.73590  0.61900  0.16399  Biso   1.000  H
  C121     1.0000 0.65826  0.75933  0.01156  Biso   1.000  C
  C122     1.0000 0.69614  0.69207  0.94487  Biso   1.000  C
  H115     1.0000 0.58463  0.61586  0.93520  Biso   1.000  H
  H116     1.0000 0.62061  0.57927  0.90468  Biso   1.000  H
  H117     1.0000 0.59875  0.53016  0.95439  Biso   1.000  H
  H118     1.0000 0.62422  0.87498  0.28110  Biso   1.000  H
  H119     1.0000 0.68430  0.84627  0.23780  Biso   1.000  H
  C123     1.0000 0.67699  0.87403  0.14239  Biso   1.000  C
  C124     1.0000 0.66398  0.91033  0.02721  Biso   1.000  C
  H120     1.0000 0.64020  0.75927  0.04231  Biso   1.000  H
  C125     1.0000 0.67502  0.83287  0.99896  Biso   1.000  C
  O30      1.0000 0.70599  0.62250  0.91798  Biso   1.000  O
  C126     1.0000 0.71382  0.76389  0.93166  Biso   1.000  C
  O31      1.0000 0.72235  0.86312  0.14517  Biso   1.000  O
  H121     1.0000 0.69229  0.93856  0.04292  Biso   1.000  H
  C127     1.0000 0.63163  0.96157  0.97689  Biso   1.000  C
  C128     1.0000 0.70392  0.83317  0.95864  Biso   1.000  C
  H122     1.0000 0.72892  0.62997  0.89978  Biso   1.000  H
  H123     1.0000 0.73454  0.76437  0.90317  Biso   1.000  H
  H124     1.0000 0.73661  0.83500  0.18922  Biso   1.000  H
  H125     1.0000 0.60024  0.93180  0.95519  Biso   1.000  H
  H126     1.0000 0.64272  0.97479  0.94128  Biso   1.000  H
  H127     1.0000 0.62412  0.01198  0.99458  Biso   1.000  H
  O32      1.0000 0.72189  0.90505  0.94798  Biso   1.000  O
  H128     1.0000 0.74493  0.89396  0.92458  Biso   1.000  H
  O33      1.0000 0.22190  0.59492  0.44801  Biso   1.000  O
  H129     1.0000 0.24491  0.60601  0.42462  Biso   1.000  H
  C129     1.0000 0.20388  0.66681  0.45862  Biso   1.000  C
  C130     1.0000 0.17502  0.66710  0.49899  Biso   1.000  C
  C131     1.0000 0.21383  0.73608  0.43169  Biso   1.000  C
  C132     1.0000 0.16401  0.58964  0.52720  Biso   1.000  C
  C133     1.0000 0.15830  0.74058  0.51159  Biso   1.000  C
  H130     1.0000 0.23452  0.73560  0.40320  Biso   1.000  H
  C134     1.0000 0.19614  0.80790  0.44490  Biso   1.000  C
  C135     1.0000 0.14697  0.60299  0.58535  Biso   1.000  C
  H131     1.0000 0.19232  0.56141  0.54290  Biso   1.000  H
  C136     1.0000 0.13160  0.53840  0.47692  Biso   1.000  C
  C137     1.0000 0.16818  0.81187  0.48635  Biso   1.000  C
  H132     1.0000 0.14022  0.74070  0.54229  Biso   1.000  H
  O34      1.0000 0.20597  0.87747  0.41801  Biso   1.000  O
  C138     1.0000 0.17702  0.62594  0.64237  Biso   1.000  C
  C139     1.0000 0.10114  0.59439  0.58450  Biso   1.000  C
  H133     1.0000 0.10021  0.56818  0.45523  Biso   1.000  H
  H134     1.0000 0.12413  0.48799  0.49461  Biso   1.000  H
  H135     1.0000 0.14272  0.52518  0.44131  Biso   1.000  H
  C140     1.0000 0.14980  0.89158  0.50206  Biso   1.000  C
  H136     1.0000 0.22893  0.87000  0.39981  Biso   1.000  H
  O35      1.0000 0.22239  0.63685  0.64520  Biso   1.000  O
  C141     1.0000 0.16218  0.63620  0.69685  Biso   1.000  C
  C142     1.0000 0.08463  0.60477  0.63728  Biso   1.000  C
  H137     1.0000 0.07942  0.57968  0.54602  Biso   1.000  H
  C143     1.0000 0.13743  0.89058  0.56479  Biso   1.000  C
  H138     1.0000 0.17412  0.93108  0.50673  Biso   1.000  H
  C144     1.0000 0.11070  0.91946  0.44641  Biso   1.000  C
  H139     1.0000 0.23664  0.66497  0.68921  Biso   1.000  H
  C145     1.0000 0.11659  0.62422  0.69373  Biso   1.000  C
  H140     1.0000 0.18434  0.65370  0.73783  Biso   1.000  H
  C146     1.0000 0.03433  0.59706  0.63549  Biso   1.000  C
  C147     1.0000 0.17141  0.88358  0.62219  Biso   1.000  C
  C148     1.0000 0.09268  0.89568  0.56979  Biso   1.000  C
  H141     1.0000 0.08461  0.88405  0.43523  Biso   1.000  H
  H142     1.0000 0.12062  0.92070  0.40471  Biso   1.000  H
  H143     1.0000 0.09872  0.96975  0.45442  Biso   1.000  H
  O36      1.0000 0.10224  0.63134  0.74783  Biso   1.000  O
  C149     1.0000 0.01365  0.67594  0.64685  Biso   1.000  C
  H144     1.0000 0.03323  0.55708  0.67171  Biso   1.000  H
  C150     1.0000 0.00546  0.55780  0.57474  Biso   1.000  C
  O37      1.0000 0.21622  0.88411  0.62077  Biso   1.000  O
  C151     1.0000 0.16083  0.87818  0.67930  Biso   1.000  C
  C152     1.0000 0.08079  0.89372  0.62700  Biso   1.000  C
  H145     1.0000 0.07012  0.90386  0.53333  Biso   1.000  H
  H146     1.0000 0.12422  0.62499  0.78113  Biso   1.000  H
  C153     1.0000 0.03010  0.74948  0.63303  Biso   1.000  C
  C154     1.0000 0.97657  0.67736  0.67336  Biso   1.000  C
  H147     1.0000 0.00391  0.58721  0.53800  Biso   1.000  H
  H148     1.0000 0.01821  0.50098  0.56851  Biso   1.000  H
  H149     1.0000 0.97342  0.55157  0.57648  Biso   1.000  H
  H150     1.0000 0.23594  0.88097  0.66402  Biso   1.000  H
  H151     1.0000 0.18444  0.86828  0.71760  Biso   1.000  H
  C155     1.0000 0.11595  0.88239  0.68223  Biso   1.000  C
  C156     1.0000 0.03213  0.90190  0.63204  Biso   1.000  C
  C157     1.0000 0.01224  0.82261  0.64497  Biso   1.000  C
  H152     1.0000 0.05833  0.75185  0.61860  Biso   1.000  H
  O38      1.0000 0.96027  0.60518  0.68732  Biso   1.000  O
  C158     1.0000 0.95755  0.74877  0.68558  Biso   1.000  C
  O39      1.0000 0.10523  0.87788  0.73878  Biso   1.000  O
  H153     1.0000 0.03344  0.94039  0.67180  Biso   1.000  H
  C159     1.0000 0.00078  0.94449  0.57507  Biso   1.000  C
  C160     1.0000 0.97561  0.82059  0.67227  Biso   1.000  C
  H154     1.0000 0.94332  0.60898  0.71302  Biso   1.000  H
  H155     1.0000 0.93324  0.74551  0.70831  Biso   1.000  H
  H156     1.0000 0.12783  0.87800  0.76420  Biso   1.000  H
  H157     1.0000 0.99581  0.91507  0.53989  Biso   1.000  H
  H158     1.0000 0.97143  0.95338  0.58639  Biso   1.000  H
  H159     1.0000 0.01163  0.00202  0.56913  Biso   1.000  H
  O40      1.0000 0.95811  0.89176  0.68628  Biso   1.000  O
  H160     1.0000 0.93991  0.88399  0.71279  Biso   1.000  H
  O41      1.0000 0.77814  0.40508  0.55201  Biso   1.000  O
  C161     1.0000 0.79616  0.33319  0.54139  Biso   1.000  C
  H161     1.0000 0.75513  0.39399  0.57540  Biso   1.000  H
  C162     1.0000 0.82501  0.33284  0.50102  Biso   1.000  C
  C163     1.0000 0.78621  0.26386  0.56833  Biso   1.000  C
  C164     1.0000 0.83602  0.41036  0.47282  Biso   1.000  C
  C165     1.0000 0.84174  0.25936  0.48843  Biso   1.000  C
  H162     1.0000 0.76552  0.26440  0.59681  Biso   1.000  H
  C166     1.0000 0.80389  0.19210  0.55512  Biso   1.000  C
  C167     1.0000 0.85306  0.39701  0.41467  Biso   1.000  C
  H163     1.0000 0.80771  0.43859  0.45711  Biso   1.000  H
  C168     1.0000 0.86843  0.46154  0.52310  Biso   1.000  C
  C169     1.0000 0.83188  0.18807  0.51362  Biso   1.000  C
  H164     1.0000 0.85981  0.25930  0.45773  Biso   1.000  H
  O42      1.0000 0.79407  0.12247  0.58200  Biso   1.000  O
  C170     1.0000 0.82301  0.37406  0.35764  Biso   1.000  C
  C171     1.0000 0.89890  0.40561  0.41551  Biso   1.000  C
  H165     1.0000 0.89982  0.43177  0.54479  Biso   1.000  H
  H166     1.0000 0.87591  0.51201  0.50541  Biso   1.000  H
  H167     1.0000 0.85731  0.47476  0.55870  Biso   1.000  H
  C172     1.0000 0.85023  0.10842  0.49796  Biso   1.000  C
  H168     1.0000 0.77114  0.13000  0.60021  Biso   1.000  H
  O43      1.0000 0.77764  0.36315  0.35481  Biso   1.000  O
  C173     1.0000 0.83785  0.36380  0.30317  Biso   1.000  C
  C174     1.0000 0.91541  0.39517  0.36274  Biso   1.000  C
  H169     1.0000 0.92061  0.42032  0.45400  Biso   1.000  H
  C175     1.0000 0.86261  0.10942  0.43523  Biso   1.000  C
  H170     1.0000 0.82591  0.06892  0.49329  Biso   1.000  H
  C176     1.0000 0.88933  0.08048  0.55361  Biso   1.000  C
  H171     1.0000 0.76343  0.33497  0.31081  Biso   1.000  H
  C177     1.0000 0.88344  0.37578  0.30628  Biso   1.000  C
  H172     1.0000 0.81569  0.34630  0.26218  Biso   1.000  H
  C178     1.0000 0.96571  0.40294  0.36453  Biso   1.000  C
  C179     1.0000 0.82863  0.11636  0.37783  Biso   1.000  C
  C180     1.0000 0.90735  0.10426  0.43023  Biso   1.000  C
  H173     1.0000 0.91543  0.11589  0.56479  Biso   1.000  H
  H174     1.0000 0.87942  0.07930  0.59530  Biso   1.000  H
  H175     1.0000 0.90131  0.03019  0.54559  Biso   1.000  H
  O44      1.0000 0.89780  0.36866  0.25219  Biso   1.000  O
  C181     1.0000 0.98639  0.32406  0.35316  Biso   1.000  C
  H176     1.0000 0.96681  0.44292  0.32831  Biso   1.000  H
  C182     1.0000 0.99458  0.44220  0.42528  Biso   1.000  C
  O45      1.0000 0.78381  0.11589  0.37925  Biso   1.000  O
  C183     1.0000 0.83920  0.12176  0.32071  Biso   1.000  C
  C184     1.0000 0.91925  0.10622  0.37302  Biso   1.000  C
  H177     1.0000 0.92992  0.09608  0.46669  Biso   1.000  H
  H178     1.0000 0.87581  0.37501  0.21889  Biso   1.000  H
  C185     1.0000 0.96994  0.25046  0.36698  Biso   1.000  C
  C186     1.0000 0.02347  0.32264  0.32666  Biso   1.000  C
  H179     1.0000 0.99612  0.41279  0.46202  Biso   1.000  H
  H180     1.0000 0.98182  0.49896  0.43150  Biso   1.000  H
  H181     1.0000 0.02661  0.44837  0.42349  Biso   1.000  H
  H182     1.0000 0.76413  0.11897  0.33600  Biso   1.000  H
  C187     1.0000 0.88409  0.11761  0.31779  Biso   1.000  C
  H183     1.0000 0.81560  0.13172  0.28242  Biso   1.000  H
  C188     1.0000 0.96790  0.09804  0.36797  Biso   1.000  C
  C189     1.0000 0.98780  0.17739  0.35505  Biso   1.000  C
  H184     1.0000 0.94171  0.24809  0.38141  Biso   1.000  H
  O46      1.0000 0.03977  0.39482  0.31270  Biso   1.000  O
  C190     1.0000 0.04249  0.25123  0.31444  Biso   1.000  C
  O47      1.0000 0.89480  0.12212  0.26124  Biso   1.000  O
  H185     1.0000 0.96663  0.05961  0.32821  Biso   1.000  H
  C191     1.0000 0.99925  0.05551  0.42495  Biso   1.000  C
  C192     1.0000 0.02443  0.17941  0.32774  Biso   1.000  C
  H186     1.0000 0.05671  0.39096  0.28699  Biso   1.000  H
  H187     1.0000 0.06680  0.25449  0.29171  Biso   1.000  H
  H188     1.0000 0.87221  0.12200  0.23582  Biso   1.000  H
  H189     1.0000 0.98840  0.99798  0.43089  Biso   1.000  H
  H190     1.0000 0.00421  0.08487  0.46008  Biso   1.000  H
  H191     1.0000 0.02863  0.04662  0.41363  Biso   1.000  H
  O48      1.0000 0.04193  0.10818  0.31373  Biso   1.000  O
  H192     1.0000 0.06011  0.11601  0.28718  Biso   1.000  H
  O49      1.0000 0.22235  0.36315  0.14517  Biso   1.000  O
  H193     1.0000 0.23661  0.33497  0.18922  Biso   1.000  H
  C193     1.0000 0.17699  0.37406  0.14239  Biso   1.000  C
  C194     1.0000 0.16218  0.36380  0.19686  Biso   1.000  C
  C195     1.0000 0.14698  0.39701  0.08537  Biso   1.000  C
  C196     1.0000 0.11656  0.37578  0.19375  Biso   1.000  C
  H194     1.0000 0.18430  0.34630  0.23780  Biso   1.000  H
  C197     1.0000 0.10114  0.40561  0.08452  Biso   1.000  C
  C198     1.0000 0.16398  0.41036  0.02721  Biso   1.000  C
  O50      1.0000 0.10221  0.36866  0.24785  Biso   1.000  O
  C199     1.0000 0.08459  0.39517  0.13725  Biso   1.000  C
  H195     1.0000 0.07938  0.42032  0.04598  Biso   1.000  H
  H196     1.0000 0.19229  0.43859  0.04292  Biso   1.000  H
  C200     1.0000 0.13163  0.46154  0.97689  Biso   1.000  C
  C201     1.0000 0.17502  0.33284  0.99896  Biso   1.000  C
  H197     1.0000 0.12422  0.37501  0.28110  Biso   1.000  H
  C202     1.0000 0.03433  0.40294  0.13550  Biso   1.000  C
  H198     1.0000 0.10024  0.43177  0.95519  Biso   1.000  H
  H199     1.0000 0.12412  0.51201  0.99458  Biso   1.000  H
  H200     1.0000 0.14272  0.47476  0.94128  Biso   1.000  H
  C203     1.0000 0.15826  0.25936  0.01156  Biso   1.000  C
  C204     1.0000 0.20392  0.33319  0.95864  Biso   1.000  C
  C205     1.0000 0.01364  0.32406  0.14682  Biso   1.000  C
  H201     1.0000 0.03320  0.44292  0.17172  Biso   1.000  H
  C206     1.0000 0.00545  0.44220  0.07471  Biso   1.000  C
  H202     1.0000 0.14020  0.25930  0.04231  Biso   1.000  H
  C207     1.0000 0.16818  0.18807  0.98637  Biso   1.000  C
  O51      1.0000 0.22189  0.40508  0.94798  Biso   1.000  O
  C208     1.0000 0.21382  0.26386  0.93166  Biso   1.000  C
  C209     1.0000 0.03009  0.25046  0.13300  Biso   1.000  C
  C210     1.0000 0.97657  0.32264  0.17337  Biso   1.000  C
  H203     1.0000 0.00391  0.41279  0.03801  Biso   1.000  H
  H204     1.0000 0.01821  0.49896  0.06848  Biso   1.000  H
  H205     1.0000 0.97339  0.44837  0.07650  Biso   1.000  H
  C211     1.0000 0.14980  0.10842  0.00208  Biso   1.000  C
  C212     1.0000 0.19614  0.19210  0.94487  Biso   1.000  C
  H206     1.0000 0.24493  0.39399  0.92458  Biso   1.000  H
  H207     1.0000 0.23454  0.26440  0.90317  Biso   1.000  H
  C213     1.0000 0.01220  0.17739  0.14493  Biso   1.000  C
  H208     1.0000 0.05830  0.24809  0.11862  Biso   1.000  H
  O52      1.0000 0.96027  0.39482  0.18734  Biso   1.000  O
  C214     1.0000 0.95751  0.25123  0.18554  Biso   1.000  C
  C215     1.0000 0.13743  0.10942  0.06480  Biso   1.000  C
  H209     1.0000 0.17409  0.06892  0.00670  Biso   1.000  H
  C216     1.0000 0.11073  0.08048  0.94637  Biso   1.000  C
  O53      1.0000 0.20599  0.12247  0.91798  Biso   1.000  O
  C217     1.0000 0.03210  0.09804  0.13206  Biso   1.000  C
  C218     1.0000 0.97558  0.17941  0.17229  Biso   1.000  C
  H210     1.0000 0.94332  0.39096  0.21299  Biso   1.000  H
  H211     1.0000 0.93321  0.25449  0.20832  Biso   1.000  H
  C219     1.0000 0.17137  0.11636  0.12215  Biso   1.000  C
  C220     1.0000 0.09266  0.10426  0.06980  Biso   1.000  C
  H212     1.0000 0.08463  0.11589  0.93520  Biso   1.000  H
  H213     1.0000 0.12061  0.07930  0.90468  Biso   1.000  H
  H214     1.0000 0.09875  0.03019  0.95439  Biso   1.000  H
  H215     1.0000 0.22892  0.13000  0.89978  Biso   1.000  H
  C221     1.0000 0.08075  0.10622  0.12697  Biso   1.000  C
  H216     1.0000 0.03341  0.05961  0.17182  Biso   1.000  H
  C222     1.0000 0.00078  0.05551  0.07504  Biso   1.000  C
  O54      1.0000 0.95810  0.10818  0.18625  Biso   1.000  O
  O55      1.0000 0.21622  0.11589  0.12074  Biso   1.000  O
  C223     1.0000 0.16079  0.12176  0.17927  Biso   1.000  C
  H217     1.0000 0.07011  0.09608  0.03330  Biso   1.000  H
  C224     1.0000 0.11592  0.11761  0.18224  Biso   1.000  C
  H218     1.0000 0.99582  0.08487  0.03990  Biso   1.000  H
  H219     1.0000 0.97140  0.04662  0.08640  Biso   1.000  H
  H220     1.0000 0.01159  0.99798  0.06910  Biso   1.000  H
  H221     1.0000 0.93992  0.11601  0.21280  Biso   1.000  H
  H222     1.0000 0.23590  0.11897  0.16399  Biso   1.000  H
  H223     1.0000 0.18441  0.13172  0.21761  Biso   1.000  H
  O56      1.0000 0.10519  0.12212  0.23874  Biso   1.000  O
  H224     1.0000 0.12780  0.12200  0.26421  Biso   1.000  H
  O57      1.0000 0.77767  0.63685  0.85480  Biso   1.000  O
  H225     1.0000 0.76343  0.66497  0.81080  Biso   1.000  H
  C225     1.0000 0.82304  0.62594  0.85763  Biso   1.000  C
  C226     1.0000 0.83788  0.63620  0.80315  Biso   1.000  C
  C227     1.0000 0.85306  0.60299  0.91465  Biso   1.000  C
  C228     1.0000 0.88347  0.62422  0.80627  Biso   1.000  C
  H226     1.0000 0.81573  0.65370  0.76222  Biso   1.000  H
  C229     1.0000 0.89890  0.59439  0.91550  Biso   1.000  C
  C230     1.0000 0.83605  0.58964  0.97280  Biso   1.000  C
  O58      1.0000 0.89783  0.63134  0.75217  Biso   1.000  O
  C231     1.0000 0.91545  0.60477  0.86277  Biso   1.000  C
  H227     1.0000 0.92065  0.57968  0.95403  Biso   1.000  H
  H228     1.0000 0.80774  0.56141  0.95710  Biso   1.000  H
  C232     1.0000 0.86841  0.53840  0.02313  Biso   1.000  C
  C233     1.0000 0.82502  0.66710  0.00105  Biso   1.000  C
  H229     1.0000 0.87582  0.62499  0.71892  Biso   1.000  H
  C234     1.0000 0.96574  0.59706  0.86452  Biso   1.000  C
  H230     1.0000 0.89979  0.56818  0.04482  Biso   1.000  H
  H231     1.0000 0.87591  0.48799  0.00539  Biso   1.000  H
  H232     1.0000 0.85732  0.52518  0.05874  Biso   1.000  H
  C235     1.0000 0.84177  0.74058  0.98846  Biso   1.000  C
  C236     1.0000 0.79612  0.66681  0.04138  Biso   1.000  C
  C237     1.0000 0.98643  0.67594  0.85320  Biso   1.000  C
  H233     1.0000 0.96684  0.55708  0.82829  Biso   1.000  H
  C238     1.0000 0.99458  0.55780  0.92531  Biso   1.000  C
  H234     1.0000 0.85984  0.74070  0.95771  Biso   1.000  H
  C239     1.0000 0.83185  0.81187  0.01365  Biso   1.000  C
  O59      1.0000 0.77814  0.59492  0.05204  Biso   1.000  O
  C240     1.0000 0.78622  0.73608  0.06836  Biso   1.000  C
  C241     1.0000 0.96994  0.74948  0.86701  Biso   1.000  C
  C242     1.0000 0.02347  0.67736  0.82664  Biso   1.000  C
  H235     1.0000 0.99612  0.58721  0.96200  Biso   1.000  H
  H236     1.0000 0.98183  0.50098  0.93154  Biso   1.000  H
  H237     1.0000 0.02665  0.55157  0.92352  Biso   1.000  H
  C243     1.0000 0.85023  0.89158  0.99794  Biso   1.000  C
  C244     1.0000 0.80390  0.80790  0.05515  Biso   1.000  C
  H238     1.0000 0.75510  0.60601  0.07543  Biso   1.000  H
  H239     1.0000 0.76552  0.73560  0.09680  Biso   1.000  H
  C245     1.0000 0.98784  0.82261  0.85508  Biso   1.000  C
  H240     1.0000 0.94174  0.75185  0.88140  Biso   1.000  H
  O60      1.0000 0.03976  0.60518  0.81268  Biso   1.000  O
  C246     1.0000 0.04253  0.74877  0.81447  Biso   1.000  C
  C247     1.0000 0.86260  0.89058  0.93521  Biso   1.000  C
  H241     1.0000 0.82595  0.93108  0.99332  Biso   1.000  H
  C248     1.0000 0.88930  0.91946  0.05360  Biso   1.000  C
  O61      1.0000 0.79407  0.87747  0.08204  Biso   1.000  O
  C249     1.0000 0.96793  0.90190  0.86796  Biso   1.000  C
  C250     1.0000 0.02446  0.82059  0.82773  Biso   1.000  C
  H242     1.0000 0.05675  0.60898  0.78702  Biso   1.000  H
  H243     1.0000 0.06683  0.74551  0.79169  Biso   1.000  H
  C251     1.0000 0.82867  0.88358  0.87786  Biso   1.000  C
  C252     1.0000 0.90738  0.89568  0.93021  Biso   1.000  C
  H244     1.0000 0.91540  0.88405  0.06482  Biso   1.000  H
  H245     1.0000 0.87942  0.92070  0.09534  Biso   1.000  H
  H246     1.0000 0.90132  0.96975  0.04562  Biso   1.000  H
  H247     1.0000 0.77111  0.87000  0.10024  Biso   1.000  H
  C253     1.0000 0.91929  0.89372  0.87305  Biso   1.000  C
  H248     1.0000 0.96662  0.94039  0.82820  Biso   1.000  H
  C254     1.0000 0.99925  0.94449  0.92493  Biso   1.000  C
  O62      1.0000 0.04192  0.89176  0.81372  Biso   1.000  O
  O63      1.0000 0.78381  0.88411  0.87923  Biso   1.000  O
  C255     1.0000 0.83923  0.87818  0.82070  Biso   1.000  C
  H249     1.0000 0.92995  0.90386  0.96672  Biso   1.000  H
  C256     1.0000 0.88412  0.88239  0.81778  Biso   1.000  C
  H250     1.0000 0.98844  0.00202  0.93092  Biso   1.000  H
  H251     1.0000 0.00425  0.91507  0.96012  Biso   1.000  H
  H252     1.0000 0.02863  0.95338  0.91361  Biso   1.000  H
  H253     1.0000 0.06012  0.88399  0.78721  Biso   1.000  H
  H254     1.0000 0.76413  0.88097  0.83603  Biso   1.000  H
  H255     1.0000 0.81563  0.86828  0.78240  Biso   1.000  H
  O64      1.0000 0.89484  0.87788  0.76127  Biso   1.000  O
  H256     1.0000 0.87224  0.87800  0.73580  Biso   1.000  H
