data_image0
_cell_length_a       23.342
_cell_length_b       23.342
_cell_length_c       11.302
_cell_angle_alpha    90
_cell_angle_beta     90
_cell_angle_gamma    120

_symmetry_space_group_name_H-M    "P 1"
_symmetry_int_tables_number       1

loop_
  _symmetry_equiv_pos_as_xyz
  'x, y, z'

loop_
  _atom_site_label
  _atom_site_occupancy
  _atom_site_fract_x
  _atom_site_fract_y
  _atom_site_fract_z
  _atom_site_thermal_displace_type
  _atom_site_B_iso_or_equiv
  _atom_site_type_symbol
  C1       1.0000 0.78161  0.68480  0.50513  Biso   1.000  C
  C2       1.0000 0.84097  0.74911  0.50062  Biso   1.000  C
  C3       1.0000 0.90814  0.74911  0.50062  Biso   1.000  C
  N1       1.0000 0.84439  0.78423  0.39170  Biso   1.000  N
  N2       1.0000 0.84468  0.78507  0.60618  Biso   1.000  N
  C4       1.0000 0.90319  0.68480  0.50513  Biso   1.000  C
  N3       1.0000 0.93984  0.78423  0.39170  Biso   1.000  N
  N4       1.0000 0.94039  0.78507  0.60618  Biso   1.000  N
  C5       1.0000 0.90146  0.80293  0.33295  Biso   1.000  C
  C6       1.0000 0.79038  0.79076  0.34472  Biso   1.000  C
  C7       1.0000 0.90198  0.80397  0.66802  Biso   1.000  C
  C8       1.0000 0.79073  0.79036  0.65528  Biso   1.000  C
  C9       1.0000 0.00038  0.79076  0.34472  Biso   1.000  C
  C10      1.0000 0.99963  0.79036  0.65528  Biso   1.000  C
  O1       1.0000 0.91613  0.83226  0.23624  Biso   1.000  O
  H1       1.0000 0.74927  0.74985  0.35941  Biso   1.000  H
  H2       1.0000 0.79567  0.79655  0.25978  Biso   1.000  H
  N5       1.0000 0.78510  0.84473  0.39382  Biso   1.000  N
  O2       1.0000 0.91591  0.83182  0.76314  Biso   1.000  O
  H3       1.0000 0.74983  0.74925  0.64059  Biso   1.000  H
  H4       1.0000 0.79651  0.79566  0.74022  Biso   1.000  H
  N6       1.0000 0.78424  0.84438  0.60830  Biso   1.000  N
  H5       1.0000 0.00058  0.74985  0.35941  Biso   1.000  H
  H6       1.0000 0.00088  0.79655  0.25978  Biso   1.000  H
  N7       1.0000 0.05963  0.84473  0.39382  Biso   1.000  N
  H7       1.0000 0.99942  0.74925  0.64059  Biso   1.000  H
  H8       1.0000 0.99915  0.79566  0.74022  Biso   1.000  H
  N8       1.0000 0.06014  0.84438  0.60830  Biso   1.000  N
  C11      1.0000 0.74912  0.84097  0.49938  Biso   1.000  C
  C12      1.0000 0.80395  0.90196  0.33198  Biso   1.000  C
  C13      1.0000 0.80293  0.90147  0.66705  Biso   1.000  C
  C14      1.0000 0.09185  0.84097  0.49938  Biso   1.000  C
  C15      1.0000 0.09801  0.90196  0.33198  Biso   1.000  C
  C16      1.0000 0.09854  0.90147  0.66705  Biso   1.000  C
  C17      1.0000 0.74912  0.90815  0.49938  Biso   1.000  C
  C18      1.0000 0.68478  0.78161  0.49487  Biso   1.000  C
  N9       1.0000 0.78506  0.94035  0.39382  Biso   1.000  N
  O3       1.0000 0.83179  0.91591  0.23686  Biso   1.000  O
  N10      1.0000 0.78425  0.93986  0.60830  Biso   1.000  N
  O4       1.0000 0.83223  0.91611  0.76376  Biso   1.000  O
  C19      1.0000 0.15903  0.90815  0.49938  Biso   1.000  C
  C20      1.0000 0.09683  0.78161  0.49487  Biso   1.000  C
  N11      1.0000 0.15529  0.94035  0.39382  Biso   1.000  N
  O5       1.0000 0.08412  0.91591  0.23686  Biso   1.000  O
  N12      1.0000 0.15560  0.93986  0.60830  Biso   1.000  N
  O6       1.0000 0.08388  0.91611  0.76376  Biso   1.000  O
  C21      1.0000 0.68476  0.90315  0.49487  Biso   1.000  C
  C22      1.0000 0.79036  0.99962  0.34472  Biso   1.000  C
  C23      1.0000 0.79075  0.00041  0.65528  Biso   1.000  C
  C24      1.0000 0.21839  0.90315  0.49487  Biso   1.000  C
  C25      1.0000 0.20926  0.99962  0.34472  Biso   1.000  C
  C26      1.0000 0.20965  0.00041  0.65528  Biso   1.000  C
  H9       1.0000 0.74926  0.99942  0.35941  Biso   1.000  H
  H10      1.0000 0.79568  0.99912  0.25978  Biso   1.000  H
  N13      1.0000 0.84441  0.06017  0.39170  Biso   1.000  N
  H11      1.0000 0.74983  0.00056  0.64059  Biso   1.000  H
  H12      1.0000 0.79657  0.00090  0.74022  Biso   1.000  H
  N14      1.0000 0.84469  0.05962  0.60618  Biso   1.000  N
  H13      1.0000 0.25016  0.99942  0.35941  Biso   1.000  H
  H14      1.0000 0.20344  0.99912  0.25978  Biso   1.000  H
  N15      1.0000 0.21576  0.06017  0.39170  Biso   1.000  N
  H15      1.0000 0.25073  0.00056  0.64059  Biso   1.000  H
  H16      1.0000 0.20433  0.00090  0.74022  Biso   1.000  H
  N16      1.0000 0.21493  0.05962  0.60618  Biso   1.000  N
  C27      1.0000 0.90147  0.09855  0.33295  Biso   1.000  C
  C28      1.0000 0.84099  0.09188  0.50062  Biso   1.000  C
  C29      1.0000 0.90197  0.09801  0.66802  Biso   1.000  C
  C30      1.0000 0.19708  0.09855  0.33295  Biso   1.000  C
  C31      1.0000 0.25089  0.09188  0.50062  Biso   1.000  C
  C32      1.0000 0.19604  0.09801  0.66802  Biso   1.000  C
  N17      1.0000 0.93985  0.15559  0.39170  Biso   1.000  N
  O7       1.0000 0.91611  0.08386  0.23624  Biso   1.000  O
  C33      1.0000 0.90814  0.15900  0.50062  Biso   1.000  C
  C34      1.0000 0.78160  0.09682  0.50513  Biso   1.000  C
  N18      1.0000 0.94038  0.15529  0.60618  Biso   1.000  N
  O8       1.0000 0.91589  0.08411  0.76314  Biso   1.000  O
  N19      1.0000 0.21574  0.15559  0.39170  Biso   1.000  N
  O9       1.0000 0.16776  0.08386  0.23624  Biso   1.000  O
  C35      1.0000 0.25087  0.15900  0.50062  Biso   1.000  C
  C36      1.0000 0.31523  0.09682  0.50513  Biso   1.000  C
  N20      1.0000 0.21491  0.15529  0.60618  Biso   1.000  N
  O10      1.0000 0.16822  0.08411  0.76314  Biso   1.000  O
  C37      1.0000 0.00038  0.20966  0.34472  Biso   1.000  C
  C38      1.0000 0.90318  0.21842  0.50513  Biso   1.000  C
  C39      1.0000 0.99963  0.20926  0.65528  Biso   1.000  C
  C40      1.0000 0.20928  0.20966  0.34472  Biso   1.000  C
  C41      1.0000 0.31523  0.21842  0.50513  Biso   1.000  C
  C42      1.0000 0.20964  0.20926  0.65528  Biso   1.000  C
  H17      1.0000 0.00059  0.25077  0.35941  Biso   1.000  H
  H18      1.0000 0.00086  0.20437  0.25978  Biso   1.000  H
  N21      1.0000 0.05960  0.21490  0.39382  Biso   1.000  N
  H19      1.0000 0.99943  0.25018  0.64059  Biso   1.000  H
  H20      1.0000 0.99913  0.20348  0.74022  Biso   1.000  H
  N22      1.0000 0.06015  0.21575  0.60830  Biso   1.000  N
  H21      1.0000 0.25018  0.25077  0.35941  Biso   1.000  H
  H22      1.0000 0.20350  0.20437  0.25978  Biso   1.000  H
  N23      1.0000 0.15531  0.21490  0.39382  Biso   1.000  N
  H23      1.0000 0.25074  0.25018  0.64059  Biso   1.000  H
  H24      1.0000 0.20434  0.20348  0.74022  Biso   1.000  H
  N24      1.0000 0.15560  0.21575  0.60830  Biso   1.000  N
  C43      1.0000 0.09187  0.25092  0.49938  Biso   1.000  C
  C44      1.0000 0.09803  0.19606  0.33198  Biso   1.000  C
  C45      1.0000 0.09855  0.19710  0.66705  Biso   1.000  C
  C46      1.0000 0.15905  0.25092  0.49938  Biso   1.000  C
  C47      1.0000 0.09682  0.31523  0.49487  Biso   1.000  C
  O11      1.0000 0.08410  0.16821  0.23686  Biso   1.000  O
  O12      1.0000 0.08388  0.16776  0.76376  Biso   1.000  O
  C48      1.0000 0.21841  0.31523  0.49487  Biso   1.000  C
  C49      1.0000 0.66704  0.54297  0.67811  Biso   1.000  C
  N25      1.0000 0.60653  0.48895  0.72509  Biso   1.000  N
  H25      1.0000 0.66724  0.58408  0.69280  Biso   1.000  H
  H26      1.0000 0.66752  0.53768  0.59308  Biso   1.000  H
  N26      1.0000 0.72628  0.54826  0.72722  Biso   1.000  N
  C50      1.0000 0.56813  0.43186  0.66625  Biso   1.000  C
  C51      1.0000 0.57482  0.49236  0.83392  Biso   1.000  C
  C52      1.0000 0.75853  0.58423  0.83268  Biso   1.000  C
  C53      1.0000 0.76468  0.52937  0.66528  Biso   1.000  C
  N27      1.0000 0.51106  0.39347  0.72509  Biso   1.000  N
  O13      1.0000 0.58279  0.41722  0.56955  Biso   1.000  O
  C54      1.0000 0.50764  0.42518  0.83392  Biso   1.000  C
  C55      1.0000 0.56984  0.55173  0.83844  Biso   1.000  C
  N28      1.0000 0.60704  0.48860  0.93948  Biso   1.000  N
  N29      1.0000 0.72683  0.54910  0.94160  Biso   1.000  N
  C56      1.0000 0.82570  0.58423  0.83268  Biso   1.000  C
  C57      1.0000 0.76348  0.64854  0.82817  Biso   1.000  C
  N30      1.0000 0.82198  0.54826  0.72722  Biso   1.000  N
  O14      1.0000 0.75078  0.50156  0.57016  Biso   1.000  O
  C58      1.0000 0.45704  0.33297  0.67811  Biso   1.000  C
  C59      1.0000 0.44828  0.43018  0.83844  Biso   1.000  C
  N31      1.0000 0.51137  0.39298  0.93948  Biso   1.000  N
  C60      1.0000 0.56865  0.43137  0.00133  Biso   1.000  C
  C61      1.0000 0.66628  0.54257  0.98859  Biso   1.000  C
  C62      1.0000 0.76520  0.53040  0.00044  Biso   1.000  C
  C63      1.0000 0.88506  0.64854  0.82817  Biso   1.000  C
  N32      1.0000 0.82228  0.54910  0.94160  Biso   1.000  N
  C64      1.0000 0.87593  0.54297  0.67811  Biso   1.000  C
  H27      1.0000 0.41594  0.33278  0.69280  Biso   1.000  H
  H28      1.0000 0.46236  0.33248  0.59308  Biso   1.000  H
  N33      1.0000 0.45174  0.27371  0.72722  Biso   1.000  N
  C65      1.0000 0.45741  0.33372  0.98859  Biso   1.000  C
  O15      1.0000 0.58254  0.41742  0.09644  Biso   1.000  O
  H29      1.0000 0.66609  0.58348  0.97390  Biso   1.000  H
  H30      1.0000 0.66579  0.53679  0.07362  Biso   1.000  H
  O16      1.0000 0.75053  0.50107  0.09706  Biso   1.000  O
  C66      1.0000 0.87629  0.54257  0.98859  Biso   1.000  C
  H31      1.0000 0.91684  0.58408  0.69280  Biso   1.000  H
  H32      1.0000 0.87016  0.53768  0.59308  Biso   1.000  H
  N34      1.0000 0.88242  0.48895  0.72509  Biso   1.000  N
  C67      1.0000 0.41578  0.24146  0.83268  Biso   1.000  C
  C68      1.0000 0.47063  0.23532  0.66528  Biso   1.000  C
  N35      1.0000 0.45091  0.27317  0.94160  Biso   1.000  N
  H33      1.0000 0.41651  0.33391  0.97390  Biso   1.000  H
  H34      1.0000 0.46322  0.33421  0.07362  Biso   1.000  H
  H35      1.0000 0.91740  0.58348  0.97390  Biso   1.000  H
  N36      1.0000 0.88156  0.48860  0.93948  Biso   1.000  N
  H36      1.0000 0.87100  0.53679  0.07362  Biso   1.000  H
  C69      1.0000 0.86373  0.43186  0.66625  Biso   1.000  C
  C70      1.0000 0.91755  0.49236  0.83392  Biso   1.000  C
  C71      1.0000 0.41580  0.17433  0.83268  Biso   1.000  C
  C72      1.0000 0.35144  0.23651  0.82817  Biso   1.000  C
  N37      1.0000 0.45176  0.17804  0.72722  Biso   1.000  N
  O17      1.0000 0.49844  0.24922  0.57016  Biso   1.000  O
  C73      1.0000 0.46959  0.23478  0.00044  Biso   1.000  C
  C74      1.0000 0.86272  0.43137  0.00133  Biso   1.000  C
  N38      1.0000 0.88241  0.39347  0.72509  Biso   1.000  N
  O18      1.0000 0.83443  0.41722  0.56955  Biso   1.000  O
  C75      1.0000 0.91754  0.42518  0.83392  Biso   1.000  C
  C76      1.0000 0.98189  0.55173  0.83844  Biso   1.000  C
  C77      1.0000 0.35146  0.11497  0.82817  Biso   1.000  C
  N39      1.0000 0.45092  0.17774  0.94160  Biso   1.000  N
  C78      1.0000 0.45703  0.12407  0.67811  Biso   1.000  C
  O19      1.0000 0.49891  0.24947  0.09706  Biso   1.000  O
  N40      1.0000 0.88161  0.39298  0.93948  Biso   1.000  N
  O20      1.0000 0.83488  0.41742  0.09644  Biso   1.000  O
  C79      1.0000 0.87594  0.33297  0.67811  Biso   1.000  C
  C80      1.0000 0.98191  0.43018  0.83844  Biso   1.000  C
  C81      1.0000 0.45741  0.12372  0.98859  Biso   1.000  C
  H37      1.0000 0.41593  0.08316  0.69280  Biso   1.000  H
  H38      1.0000 0.46232  0.12986  0.59308  Biso   1.000  H
  N41      1.0000 0.51107  0.11759  0.72509  Biso   1.000  N
  C82      1.0000 0.87631  0.33372  0.98859  Biso   1.000  C
  N42      1.0000 0.82197  0.27371  0.72722  Biso   1.000  N
  H39      1.0000 0.91684  0.33278  0.69280  Biso   1.000  H
  H40      1.0000 0.87012  0.33248  0.59308  Biso   1.000  H
  H41      1.0000 0.41651  0.08261  0.97390  Biso   1.000  H
  N43      1.0000 0.51136  0.11843  0.93948  Biso   1.000  N
  H42      1.0000 0.46319  0.12901  0.07362  Biso   1.000  H
  C83      1.0000 0.56814  0.13629  0.66625  Biso   1.000  C
  C84      1.0000 0.50764  0.08246  0.83392  Biso   1.000  C
  N44      1.0000 0.82226  0.27317  0.94160  Biso   1.000  N
  H43      1.0000 0.91741  0.33391  0.97390  Biso   1.000  H
  H44      1.0000 0.87099  0.33421  0.07362  Biso   1.000  H
  C85      1.0000 0.76469  0.23532  0.66528  Biso   1.000  C
  C86      1.0000 0.82568  0.24146  0.83268  Biso   1.000  C
  C87      1.0000 0.56866  0.13733  0.00133  Biso   1.000  C
  N45      1.0000 0.60652  0.11759  0.72509  Biso   1.000  N
  O21      1.0000 0.58279  0.16557  0.56955  Biso   1.000  O
  C88      1.0000 0.57482  0.08246  0.83392  Biso   1.000  C
  C89      1.0000 0.44826  0.01811  0.83844  Biso   1.000  C
  C90      1.0000 0.76519  0.23478  0.00044  Biso   1.000  C
  N46      1.0000 0.72628  0.17804  0.72722  Biso   1.000  N
  O22      1.0000 0.75078  0.24922  0.57016  Biso   1.000  O
  C91      1.0000 0.75853  0.17433  0.83268  Biso   1.000  C
  C92      1.0000 0.88507  0.23651  0.82817  Biso   1.000  C
  N47      1.0000 0.60707  0.11843  0.93948  Biso   1.000  N
  O23      1.0000 0.58256  0.16513  0.09644  Biso   1.000  O
  C93      1.0000 0.66704  0.12407  0.67811  Biso   1.000  C
  C94      1.0000 0.56984  0.01811  0.83844  Biso   1.000  C
  N48      1.0000 0.72682  0.17774  0.94160  Biso   1.000  N
  O24      1.0000 0.75056  0.24947  0.09706  Biso   1.000  O
  C95      1.0000 0.76351  0.11497  0.82817  Biso   1.000  C
  C96      1.0000 0.66631  0.12372  0.98859  Biso   1.000  C
  H45      1.0000 0.66723  0.08316  0.69280  Biso   1.000  H
  H46      1.0000 0.66753  0.12986  0.59308  Biso   1.000  H
  H47      1.0000 0.66610  0.08261  0.97390  Biso   1.000  H
  H48      1.0000 0.66583  0.12901  0.07362  Biso   1.000  H
  C97      1.0000 0.54297  0.66704  0.32189  Biso   1.000  C
  N49      1.0000 0.48894  0.60654  0.27491  Biso   1.000  N
  H49      1.0000 0.58407  0.66724  0.30720  Biso   1.000  H
  H50      1.0000 0.53765  0.66753  0.40692  Biso   1.000  H
  N50      1.0000 0.54827  0.72630  0.27278  Biso   1.000  N
  C98      1.0000 0.43188  0.56815  0.33375  Biso   1.000  C
  C99      1.0000 0.49234  0.57478  0.16608  Biso   1.000  C
  C100     1.0000 0.58423  0.75855  0.16732  Biso   1.000  C
  C101     1.0000 0.52938  0.76469  0.33472  Biso   1.000  C
  N51      1.0000 0.39348  0.51106  0.27491  Biso   1.000  N
  O25      1.0000 0.41722  0.58279  0.43045  Biso   1.000  O
  C102     1.0000 0.42519  0.50765  0.16608  Biso   1.000  C
  N52      1.0000 0.48863  0.60703  0.06052  Biso   1.000  N
  C103     1.0000 0.55173  0.56983  0.16156  Biso   1.000  C
  N53      1.0000 0.54907  0.72680  0.05840  Biso   1.000  N
  C104     1.0000 0.58421  0.82568  0.16732  Biso   1.000  C
  C105     1.0000 0.64857  0.76350  0.17183  Biso   1.000  C
  N54      1.0000 0.54825  0.82197  0.27278  Biso   1.000  N
  O26      1.0000 0.50156  0.75079  0.42984  Biso   1.000  O
  C106     1.0000 0.33297  0.45704  0.32189  Biso   1.000  C
  N55      1.0000 0.39294  0.51136  0.06052  Biso   1.000  N
  C107     1.0000 0.43017  0.44829  0.16156  Biso   1.000  C
  C108     1.0000 0.43135  0.56864  0.99867  Biso   1.000  C
  C109     1.0000 0.54260  0.66630  0.01141  Biso   1.000  C
  C110     1.0000 0.53039  0.76518  0.99956  Biso   1.000  C
  N56      1.0000 0.54908  0.82227  0.05840  Biso   1.000  N
  C111     1.0000 0.64855  0.88505  0.17183  Biso   1.000  C
  C112     1.0000 0.54298  0.87594  0.32189  Biso   1.000  C
  N57      1.0000 0.27373  0.45175  0.27278  Biso   1.000  N
  H51      1.0000 0.33276  0.41593  0.30720  Biso   1.000  H
  H52      1.0000 0.33249  0.46234  0.40692  Biso   1.000  H
  C113     1.0000 0.33370  0.45739  0.01141  Biso   1.000  C
  O27      1.0000 0.41744  0.58254  0.90356  Biso   1.000  O
  H53      1.0000 0.58350  0.66610  0.02610  Biso   1.000  H
  H54      1.0000 0.53678  0.66580  0.92638  Biso   1.000  H
  O28      1.0000 0.50109  0.75054  0.90294  Biso   1.000  O
  C114     1.0000 0.54259  0.87629  0.01141  Biso   1.000  C
  H55      1.0000 0.58408  0.91685  0.30720  Biso   1.000  H
  H56      1.0000 0.53768  0.87016  0.40692  Biso   1.000  H
  N58      1.0000 0.48894  0.88242  0.27491  Biso   1.000  N
  C115     1.0000 0.24148  0.41579  0.16732  Biso   1.000  C
  C116     1.0000 0.23532  0.47065  0.33472  Biso   1.000  C
  N59      1.0000 0.27318  0.45091  0.05840  Biso   1.000  N
  H57      1.0000 0.33389  0.41648  0.02610  Biso   1.000  H
  H58      1.0000 0.33419  0.46318  0.92638  Biso   1.000  H
  H59      1.0000 0.58350  0.91740  0.02610  Biso   1.000  H
  N60      1.0000 0.48865  0.88158  0.06052  Biso   1.000  N
  H60      1.0000 0.53682  0.87100  0.92638  Biso   1.000  H
  C117     1.0000 0.49236  0.91755  0.16608  Biso   1.000  C
  C118     1.0000 0.43186  0.86373  0.33375  Biso   1.000  C
  C119     1.0000 0.23650  0.35143  0.17183  Biso   1.000  C
  C120     1.0000 0.17431  0.41579  0.16732  Biso   1.000  C
  N61      1.0000 0.17802  0.45175  0.27278  Biso   1.000  N
  O29      1.0000 0.24922  0.49845  0.42984  Biso   1.000  O
  C121     1.0000 0.23480  0.46961  0.99956  Biso   1.000  C
  C122     1.0000 0.43134  0.86269  0.99867  Biso   1.000  C
  C123     1.0000 0.42519  0.91755  0.16608  Biso   1.000  C
  C124     1.0000 0.55174  0.98191  0.16156  Biso   1.000  C
  N62      1.0000 0.39349  0.88242  0.27491  Biso   1.000  N
  O30      1.0000 0.41720  0.83439  0.43045  Biso   1.000  O
  C125     1.0000 0.11492  0.35143  0.17183  Biso   1.000  C
  N63      1.0000 0.17773  0.45091  0.05840  Biso   1.000  N
  C126     1.0000 0.12407  0.45704  0.32189  Biso   1.000  C
  O31      1.0000 0.24947  0.49894  0.90294  Biso   1.000  O
  N64      1.0000 0.39294  0.88158  0.06052  Biso   1.000  N
  O32      1.0000 0.41744  0.83488  0.90356  Biso   1.000  O
  C127     1.0000 0.43016  0.98191  0.16156  Biso   1.000  C
  C128     1.0000 0.33297  0.87594  0.32189  Biso   1.000  C
  C129     1.0000 0.12369  0.45739  0.01141  Biso   1.000  C
  H61      1.0000 0.08317  0.41593  0.30720  Biso   1.000  H
  H62      1.0000 0.12985  0.46234  0.40692  Biso   1.000  H
  N65      1.0000 0.11758  0.51106  0.27491  Biso   1.000  N
  C130     1.0000 0.33370  0.87629  0.01141  Biso   1.000  C
  N66      1.0000 0.27372  0.82197  0.27278  Biso   1.000  N
  H63      1.0000 0.33277  0.91685  0.30720  Biso   1.000  H
  H64      1.0000 0.33247  0.87016  0.40692  Biso   1.000  H
  H65      1.0000 0.08259  0.41648  0.02610  Biso   1.000  H
  N67      1.0000 0.11842  0.51136  0.06052  Biso   1.000  N
  H66      1.0000 0.12898  0.46318  0.92638  Biso   1.000  H
  C131     1.0000 0.08246  0.50765  0.16608  Biso   1.000  C
  C132     1.0000 0.13627  0.56815  0.33375  Biso   1.000  C
  N68      1.0000 0.27319  0.82227  0.05840  Biso   1.000  N
  H67      1.0000 0.33390  0.91740  0.02610  Biso   1.000  H
  H68      1.0000 0.33418  0.87100  0.92638  Biso   1.000  H
  C133     1.0000 0.23531  0.76469  0.33472  Biso   1.000  C
  C134     1.0000 0.24148  0.82568  0.16732  Biso   1.000  C
  C135     1.0000 0.13729  0.56864  0.99867  Biso   1.000  C
  C136     1.0000 0.08244  0.57478  0.16608  Biso   1.000  C
  C137     1.0000 0.01812  0.44829  0.16156  Biso   1.000  C
  N69      1.0000 0.11759  0.60654  0.27491  Biso   1.000  N
  O33      1.0000 0.16557  0.58279  0.43045  Biso   1.000  O
  C138     1.0000 0.23479  0.76518  0.99956  Biso   1.000  C
  N70      1.0000 0.17803  0.72630  0.27278  Biso   1.000  N
  O34      1.0000 0.24923  0.75079  0.42984  Biso   1.000  O
  C139     1.0000 0.17432  0.75855  0.16732  Biso   1.000  C
  C140     1.0000 0.23650  0.88505  0.17183  Biso   1.000  C
  N71      1.0000 0.11840  0.60703  0.06052  Biso   1.000  N
  O35      1.0000 0.16510  0.58254  0.90356  Biso   1.000  O
  C141     1.0000 0.01810  0.56983  0.16156  Biso   1.000  C
  C142     1.0000 0.12407  0.66704  0.32189  Biso   1.000  C
  N72      1.0000 0.17772  0.72680  0.05840  Biso   1.000  N
  O36      1.0000 0.24945  0.75054  0.90294  Biso   1.000  O
  C143     1.0000 0.11494  0.76350  0.17183  Biso   1.000  C
  C144     1.0000 0.12370  0.66630  0.01141  Biso   1.000  C
  H69      1.0000 0.08317  0.66724  0.30720  Biso   1.000  H
  H70      1.0000 0.12988  0.66753  0.40692  Biso   1.000  H
  H71      1.0000 0.08260  0.66610  0.02610  Biso   1.000  H
  H72      1.0000 0.12902  0.66580  0.92638  Biso   1.000  H
