data_image0
_cell_length_a       20.18
_cell_length_b       20.18
_cell_length_c       20.18
_cell_angle_alpha    90
_cell_angle_beta     90
_cell_angle_gamma    90

_symmetry_space_group_name_H-M    "P 1"
_symmetry_int_tables_number       1

loop_
  _symmetry_equiv_pos_as_xyz
  'x, y, z'

loop_
  _atom_site_label
  _atom_site_occupancy
  _atom_site_fract_x
  _atom_site_fract_y
  _atom_site_fract_z
  _atom_site_thermal_displace_type
  _atom_site_B_iso_or_equiv
  _atom_site_type_symbol
  C1       1.0000 0.36947  0.77101  0.50892  Biso   1.000  C
  C2       1.0000 0.41056  0.81011  0.46962  Biso   1.000  C
  H1       1.0000 0.37161  0.72418  0.51348  Biso   1.000  H
  C3       1.0000 0.32587  0.81209  0.53940  Biso   1.000  C
  C4       1.0000 0.39024  0.87379  0.47785  Biso   1.000  C
  H2       1.0000 0.44589  0.79519  0.44242  Biso   1.000  H
  O1       1.0000 0.33806  0.87616  0.52136  Biso   1.000  O
  C5       1.0000 0.27017  0.80144  0.58295  Biso   1.000  C
  C6       1.0000 0.40768  0.93642  0.44752  Biso   1.000  C
  N1       1.0000 0.25208  0.74316  0.59782  Biso   1.000  N
  H3       1.0000 0.24698  0.83840  0.60059  Biso   1.000  H
  N2       1.0000 0.45292  0.93999  0.40377  Biso   1.000  N
  H4       1.0000 0.38499  0.97557  0.46060  Biso   1.000  H
  C7       1.0000 0.19475  0.73474  0.64113  Biso   1.000  C
  C8       1.0000 0.46452  0.00466  0.37294  Biso   1.000  C
  H5       1.0000 0.16169  0.70600  0.61918  Biso   1.000  H
  H6       1.0000 0.17389  0.77839  0.64941  Biso   1.000  H
  C9       1.0000 0.21521  0.70411  0.70624  Biso   1.000  C
  H7       1.0000 0.43380  0.03781  0.39207  Biso   1.000  H
  H8       1.0000 0.45580  0.00178  0.32478  Biso   1.000  H
  C10      1.0000 0.53543  0.02626  0.38454  Biso   1.000  C
  N3       1.0000 0.25124  0.75124  0.74876  Biso   1.000  N
  H9       1.0000 0.17532  0.68831  0.72988  Biso   1.000  H
  H10      1.0000 0.24381  0.66521  0.69747  Biso   1.000  H
  H11      1.0000 0.56571  0.98930  0.37339  Biso   1.000  H
  N4       1.0000 0.54638  0.04638  0.45362  Biso   1.000  N
  H12      1.0000 0.54599  0.06388  0.35481  Biso   1.000  H
  C11      1.0000 0.29376  0.71521  0.79589  Biso   1.000  C
  C12      1.0000 0.20411  0.79376  0.78479  Biso   1.000  C
  C13      1.0000 0.61546  0.03543  0.47374  Biso   1.000  C
  C14      1.0000 0.52626  0.11546  0.46457  Biso   1.000  C
  C15      1.0000 0.35882  0.69475  0.76526  Biso   1.000  C
  H13      1.0000 0.27012  0.67527  0.81169  Biso   1.000  H
  H14      1.0000 0.30248  0.74381  0.83479  Biso   1.000  H
  C16      1.0000 0.23474  0.85882  0.80525  Biso   1.000  C
  H15      1.0000 0.18831  0.77007  0.82468  Biso   1.000  H
  H16      1.0000 0.16521  0.80248  0.75619  Biso   1.000  H
  C17      1.0000 0.62706  0.96452  0.49534  Biso   1.000  C
  H17      1.0000 0.62661  0.06571  0.51070  Biso   1.000  H
  H18      1.0000 0.64519  0.04599  0.43608  Biso   1.000  H
  C18      1.0000 0.50466  0.12706  0.53543  Biso   1.000  C
  H19      1.0000 0.48930  0.12661  0.43429  Biso   1.000  H
  H20      1.0000 0.56388  0.14519  0.45401  Biso   1.000  H
  N5       1.0000 0.40213  0.75203  0.75684  Biso   1.000  N
  H21      1.0000 0.38077  0.66169  0.79400  Biso   1.000  H
  H22      1.0000 0.35059  0.67389  0.72161  Biso   1.000  H
  N6       1.0000 0.24316  0.90213  0.74792  Biso   1.000  N
  H23      1.0000 0.20600  0.88077  0.83831  Biso   1.000  H
  H24      1.0000 0.27839  0.85059  0.82611  Biso   1.000  H
  N7       1.0000 0.59623  0.95292  0.56001  Biso   1.000  N
  H25      1.0000 0.60788  0.93380  0.46219  Biso   1.000  H
  H26      1.0000 0.67517  0.95580  0.49822  Biso   1.000  H
  N8       1.0000 0.43999  0.09623  0.54703  Biso   1.000  N
  H27      1.0000 0.53781  0.10788  0.56620  Biso   1.000  H
  H28      1.0000 0.50178  0.17522  0.54420  Biso   1.000  H
  C19      1.0000 0.41705  0.77017  0.69856  Biso   1.000  C
  C20      1.0000 0.30144  0.91705  0.72978  Biso   1.000  C
  C21      1.0000 0.55243  0.90768  0.56358  Biso   1.000  C
  C22      1.0000 0.43642  0.05243  0.59227  Biso   1.000  C
  C23      1.0000 0.46060  0.82587  0.68791  Biso   1.000  C
  H29      1.0000 0.39941  0.74698  0.66160  Biso   1.000  H
  C24      1.0000 0.31209  0.96060  0.67413  Biso   1.000  C
  H30      1.0000 0.33840  0.89941  0.75297  Biso   1.000  H
  C25      1.0000 0.52215  0.89024  0.62621  Biso   1.000  C
  H31      1.0000 0.53940  0.88499  0.52438  Biso   1.000  H
  C26      1.0000 0.37379  0.02215  0.60976  Biso   1.000  C
  H32      1.0000 0.47562  0.03940  0.61501  Biso   1.000  H
  O2       1.0000 0.47864  0.83806  0.62384  Biso   1.000  O
  C27      1.0000 0.49108  0.86947  0.72899  Biso   1.000  C
  O3       1.0000 0.37616  0.97864  0.66194  Biso   1.000  O
  C28      1.0000 0.27101  0.99108  0.63048  Biso   1.000  C
  C29      1.0000 0.53038  0.91056  0.68984  Biso   1.000  C
  C30      1.0000 0.31016  0.03038  0.58944  Biso   1.000  C
  H33      1.0000 0.48647  0.87161  0.77577  Biso   1.000  H
  H34      1.0000 0.22418  0.98647  0.62839  Biso   1.000  H
  H35      1.0000 0.55758  0.94589  0.70481  Biso   1.000  H
  H36      1.0000 0.29519  0.05758  0.55411  Biso   1.000  H
  C31      1.0000 0.74534  0.28548  0.37706  Biso   1.000  C
  C32      1.0000 0.72374  0.21457  0.36546  Biso   1.000  C
  N9       1.0000 0.81001  0.29703  0.34623  Biso   1.000  N
  H37      1.0000 0.71219  0.31620  0.35788  Biso   1.000  H
  H38      1.0000 0.74822  0.29420  0.42517  Biso   1.000  H
  N10      1.0000 0.70362  0.20362  0.29638  Biso   1.000  N
  H39      1.0000 0.76070  0.18429  0.37661  Biso   1.000  H
  H40      1.0000 0.68608  0.20401  0.39519  Biso   1.000  H
  C33      1.0000 0.81358  0.34232  0.30243  Biso   1.000  C
  C34      1.0000 0.63449  0.22374  0.28543  Biso   1.000  C
  C35      1.0000 0.71457  0.13454  0.27626  Biso   1.000  C
  C36      1.0000 0.87621  0.35976  0.27215  Biso   1.000  C
  H41      1.0000 0.77438  0.36501  0.28940  Biso   1.000  H
  C37      1.0000 0.62294  0.24534  0.21452  Biso   1.000  C
  H42      1.0000 0.62339  0.26070  0.31571  Biso   1.000  H
  H43      1.0000 0.60481  0.18608  0.29599  Biso   1.000  H
  C38      1.0000 0.78543  0.12294  0.25466  Biso   1.000  C
  H44      1.0000 0.68429  0.12339  0.23930  Biso   1.000  H
  H45      1.0000 0.70401  0.10481  0.31388  Biso   1.000  H
  O4       1.0000 0.87384  0.41194  0.22864  Biso   1.000  O
  C39      1.0000 0.93984  0.33944  0.28038  Biso   1.000  C
  N11      1.0000 0.65377  0.31001  0.20292  Biso   1.000  N
  H46      1.0000 0.64207  0.21219  0.18380  Biso   1.000  H
  H47      1.0000 0.57478  0.24822  0.20580  Biso   1.000  H
  N12      1.0000 0.79703  0.15377  0.18999  Biso   1.000  N
  H48      1.0000 0.81620  0.14212  0.28781  Biso   1.000  H
  H49      1.0000 0.79420  0.07478  0.25178  Biso   1.000  H
  C40      1.0000 0.93791  0.42413  0.21060  Biso   1.000  C
  H50      1.0000 0.95481  0.30411  0.30758  Biso   1.000  H
  C41      1.0000 0.97899  0.38048  0.24108  Biso   1.000  C
  C42      1.0000 0.69752  0.31358  0.15768  Biso   1.000  C
  C43      1.0000 0.84227  0.19757  0.18642  Biso   1.000  C
  C44      1.0000 0.94856  0.47978  0.16705  Biso   1.000  C
  H51      1.0000 0.02582  0.37839  0.23652  Biso   1.000  H
  C45      1.0000 0.72785  0.37621  0.14024  Biso   1.000  C
  H52      1.0000 0.71060  0.27438  0.13499  Biso   1.000  H
  C46      1.0000 0.85976  0.22785  0.12379  Biso   1.000  C
  H53      1.0000 0.86501  0.21060  0.22562  Biso   1.000  H
  H54      1.0000 0.91160  0.50297  0.14941  Biso   1.000  H
  N13      1.0000 0.00684  0.49792  0.15213  Biso   1.000  N
  O5       1.0000 0.77136  0.37384  0.08806  Biso   1.000  O
  C47      1.0000 0.71962  0.43984  0.16056  Biso   1.000  C
  O6       1.0000 0.91194  0.27136  0.12616  Biso   1.000  O
  C48      1.0000 0.83944  0.21962  0.06016  Biso   1.000  C
  C49      1.0000 0.01526  0.55525  0.10882  Biso   1.000  C
  C50      1.0000 0.78940  0.43791  0.07587  Biso   1.000  C
  H55      1.0000 0.69237  0.45481  0.19589  Biso   1.000  H
  C51      1.0000 0.75887  0.47899  0.11947  Biso   1.000  C
  C52      1.0000 0.92413  0.28940  0.06209  Biso   1.000  C
  H56      1.0000 0.80411  0.19242  0.04519  Biso   1.000  H
  C53      1.0000 0.88048  0.25892  0.02101  Biso   1.000  C
  C54      1.0000 0.04589  0.53479  0.04376  Biso   1.000  C
  H57      1.0000 0.97161  0.57611  0.10059  Biso   1.000  H
  H58      1.0000 0.04400  0.58831  0.13082  Biso   1.000  H
  C55      1.0000 0.83295  0.44856  0.02017  Biso   1.000  C
  H59      1.0000 0.76348  0.52582  0.12161  Biso   1.000  H
  C56      1.0000 0.97978  0.33295  0.05144  Biso   1.000  C
  H60      1.0000 0.87839  0.26348  0.97418  Biso   1.000  H
  N14      1.0000 0.99876  0.49876  0.00124  Biso   1.000  N
  H61      1.0000 0.06169  0.57468  0.02012  Biso   1.000  H
  H62      1.0000 0.08479  0.50619  0.05248  Biso   1.000  H
  N15      1.0000 0.84782  0.50684  0.00208  Biso   1.000  N
  H63      1.0000 0.85059  0.41160  0.99698  Biso   1.000  H
  N16      1.0000 0.99792  0.34787  0.99316  Biso   1.000  N
  H64      1.0000 0.00302  0.35059  0.08840  Biso   1.000  H
  C57      1.0000 0.95624  0.54589  0.96521  Biso   1.000  C
  C58      1.0000 0.03479  0.45624  0.95411  Biso   1.000  C
  C59      1.0000 0.89113  0.51526  0.94475  Biso   1.000  C
  C60      1.0000 0.05525  0.39118  0.98474  Biso   1.000  C
  H65      1.0000 0.97988  0.56169  0.92527  Biso   1.000  H
  H66      1.0000 0.94747  0.58479  0.99381  Biso   1.000  H
  H67      1.0000 0.07468  0.47988  0.93831  Biso   1.000  H
  H68      1.0000 0.00619  0.44747  0.91521  Biso   1.000  H
  H69      1.0000 0.86918  0.54400  0.91169  Biso   1.000  H
  H70      1.0000 0.89941  0.47161  0.92389  Biso   1.000  H
  H71      1.0000 0.08831  0.36918  0.95600  Biso   1.000  H
  H72      1.0000 0.07611  0.39941  0.02839  Biso   1.000  H
