data_image0
_cell_length_a       12.306
_cell_length_b       12.532
_cell_length_c       25.592
_cell_angle_alpha    95.1
_cell_angle_beta     99.98
_cell_angle_gamma    107.52

_symmetry_space_group_name_H-M    "P 1"
_symmetry_int_tables_number       1

loop_
  _symmetry_equiv_pos_as_xyz
  'x, y, z'

loop_
  _atom_site_label
  _atom_site_occupancy
  _atom_site_fract_x
  _atom_site_fract_y
  _atom_site_fract_z
  _atom_site_thermal_displace_type
  _atom_site_B_iso_or_equiv
  _atom_site_type_symbol
  C1       1.0000 0.57209  0.26758  0.64341  Biso   1.000  C
  C2       1.0000 0.45687  0.17917  0.63928  Biso   1.000  C
  H1       1.0000 0.63065  0.23189  0.64168  Biso   1.000  H
  H2       1.0000 0.56742  0.31029  0.61419  Biso   1.000  H
  H3       1.0000 0.59220  0.31724  0.67680  Biso   1.000  H
  O1       1.0000 0.37583  0.24225  0.63900  Biso   1.000  O
  H4       1.0000 0.45797  0.13826  0.66969  Biso   1.000  H
  H5       1.0000 0.43649  0.12577  0.60649  Biso   1.000  H
  C3       1.0000 0.26333  0.18252  0.63851  Biso   1.000  C
  C4       1.0000 0.18672  0.24282  0.63867  Biso   1.000  C
  C5       1.0000 0.22404  0.06579  0.63691  Biso   1.000  C
  C6       1.0000 0.07381  0.18746  0.63719  Biso   1.000  C
  C7       1.0000 0.23275  0.37304  0.64188  Biso   1.000  C
  C8       1.0000 0.10552  0.00786  0.63578  Biso   1.000  C
  H6       1.0000 0.27610  0.02539  0.63671  Biso   1.000  H
  H7       1.0000 0.02263  0.22892  0.63759  Biso   1.000  H
  C9       1.0000 0.03107  0.07269  0.63518  Biso   1.000  C
  H8       1.0000 0.17411  0.39823  0.62078  Biso   1.000  H
  H9       1.0000 0.30203  0.39436  0.62680  Biso   1.000  H
  C10      1.0000 0.26164  0.43054  0.69951  Biso   1.000  C
  C11      1.0000 0.06619  0.88297  0.63538  Biso   1.000  C
  O2       1.0000 0.91552  0.01257  0.63402  Biso   1.000  O
  C12      1.0000 0.37156  0.45244  0.72929  Biso   1.000  C
  C13      1.0000 0.18307  0.46353  0.72311  Biso   1.000  C
  H10      1.0000 0.98629  0.85089  0.61548  Biso   1.000  H
  C14      1.0000 0.07360  0.85106  0.69209  Biso   1.000  C
  H11      1.0000 0.11400  0.85023  0.61708  Biso   1.000  H
  C15      1.0000 0.83458  0.07126  0.63570  Biso   1.000  C
  H12      1.0000 0.42661  0.43393  0.71287  Biso   1.000  H
  C16      1.0000 0.40460  0.50040  0.78218  Biso   1.000  C
  C17      1.0000 0.21368  0.51330  0.77720  Biso   1.000  C
  O3       1.0000 0.07453  0.44377  0.69241  Biso   1.000  O
  C18      1.0000 0.98069  0.84184  0.71609  Biso   1.000  C
  C19      1.0000 0.17189  0.83468  0.71990  Biso   1.000  C
  C20      1.0000 0.72147  0.99150  0.63751  Biso   1.000  C
  H13      1.0000 0.86134  0.12894  0.66721  Biso   1.000  H
  H14      1.0000 0.82762  0.10839  0.60420  Biso   1.000  H
  C21      1.0000 0.32408  0.53060  0.80750  Biso   1.000  C
  O4       1.0000 0.51204  0.51990  0.81388  Biso   1.000  O
  H15      1.0000 0.15930  0.53484  0.79289  Biso   1.000  H
  C22      1.0000 0.00360  0.50020  0.70758  Biso   1.000  C
  C23      1.0000 0.98461  0.82013  0.76958  Biso   1.000  C
  H16      1.0000 0.91318  0.85004  0.69678  Biso   1.000  H
  C24      1.0000 0.17724  0.81324  0.77239  Biso   1.000  C
  O5       1.0000 0.26168  0.84556  0.69373  Biso   1.000  O
  H17      1.0000 0.72854  0.95624  0.66909  Biso   1.000  H
  H18      1.0000 0.69550  0.93475  0.60629  Biso   1.000  H
  H19      1.0000 0.66604  0.03134  0.63831  Biso   1.000  H
  C25      1.0000 0.35475  0.57946  0.86637  Biso   1.000  C
  C26      1.0000 0.59881  0.48786  0.78880  Biso   1.000  C
  H20      1.0000 0.04409  0.58093  0.71360  Biso   1.000  H
  H21      1.0000 0.98315  0.47849  0.74101  Biso   1.000  H
  C27      1.0000 0.89731  0.47324  0.66580  Biso   1.000  C
  O6       1.0000 0.89692  0.81176  0.79651  Biso   1.000  O
  C28      1.0000 0.08776  0.80729  0.79771  Biso   1.000  C
  H22      1.0000 0.24437  0.80276  0.79081  Biso   1.000  H
  C29      1.0000 0.35405  0.80862  0.71609  Biso   1.000  C
  H23      1.0000 0.43646  0.62487  0.87608  Biso   1.000  H
  H24      1.0000 0.30920  0.62870  0.87259  Biso   1.000  H
  C30      1.0000 0.33140  0.48657  0.90201  Biso   1.000  C
  H25      1.0000 0.57403  0.40679  0.77748  Biso   1.000  H
  H26      1.0000 0.61127  0.52585  0.75790  Biso   1.000  H
  C31      1.0000 0.71059  0.52675  0.83339  Biso   1.000  C
  H27      1.0000 0.85355  0.52190  0.67411  Biso   1.000  H
  H28      1.0000 0.91811  0.48457  0.63181  Biso   1.000  H
  H29      1.0000 0.85096  0.39575  0.66420  Biso   1.000  H
  C32      1.0000 0.80092  0.84014  0.77251  Biso   1.000  C
  C33      1.0000 0.09829  0.78861  0.85498  Biso   1.000  C
  H30      1.0000 0.39564  0.85554  0.75008  Biso   1.000  H
  H31      1.0000 0.32385  0.73116  0.72251  Biso   1.000  H
  C34      1.0000 0.43458  0.81583  0.67860  Biso   1.000  C
  C35      1.0000 0.22664  0.44597  0.91597  Biso   1.000  C
  C36      1.0000 0.41668  0.44365  0.92079  Biso   1.000  C
  H32      1.0000 0.77365  0.51405  0.81918  Biso   1.000  H
  H33      1.0000 0.72962  0.60586  0.84619  Biso   1.000  H
  H34      1.0000 0.69791  0.48434  0.86248  Biso   1.000  H
  H35      1.0000 0.82639  0.91748  0.76520  Biso   1.000  H
  H36      1.0000 0.76334  0.79082  0.73860  Biso   1.000  H
  C37      1.0000 0.71627  0.82855  0.80859  Biso   1.000  C
  C38      1.0000 0.14333  0.89907  0.89410  Biso   1.000  C
  H37      1.0000 0.02254  0.74443  0.86027  Biso   1.000  H
  H38      1.0000 0.15092  0.74528  0.86268  Biso   1.000  H
  H39      1.0000 0.45565  0.89017  0.66841  Biso   1.000  H
  H40      1.0000 0.50340  0.80156  0.69590  Biso   1.000  H
  H41      1.0000 0.39670  0.76058  0.64710  Biso   1.000  H
  C39      1.0000 0.20325  0.36012  0.94687  Biso   1.000  C
  O7       1.0000 0.14111  0.49388  0.89631  Biso   1.000  O
  C40      1.0000 0.39943  0.35934  0.95209  Biso   1.000  C
  H42      1.0000 0.48935  0.47239  0.91220  Biso   1.000  H
  H43      1.0000 0.75768  0.86100  0.84470  Biso   1.000  H
  H44      1.0000 0.66212  0.86736  0.79691  Biso   1.000  H
  H45      1.0000 0.67462  0.74989  0.80750  Biso   1.000  H
  C41      1.0000 0.06685  0.95124  0.90899  Biso   1.000  C
  C42      1.0000 0.26017  0.95028  0.91389  Biso   1.000  C
  H46      1.0000 0.12969  0.33205  0.95470  Biso   1.000  H
  C43      1.0000 0.29226  0.31519  0.96670  Biso   1.000  C
  C44      1.0000 0.03210  0.46025  0.91509  Biso   1.000  C
  O8       1.0000 0.48090  0.31143  0.97200  Biso   1.000  O
  C45      1.0000 0.10387  0.05030  0.94278  Biso   1.000  C
  H47      1.0000 0.98721  0.91714  0.89539  Biso   1.000  H
  C46      1.0000 0.30050  0.05409  0.94920  Biso   1.000  C
  O9       1.0000 0.33512  0.89812  0.89743  Biso   1.000  O
  C47      1.0000 0.26703  0.21946  0.99840  Biso   1.000  C
  H48      1.0000 0.05011  0.46131  0.95358  Biso   1.000  H
  H49      1.0000 0.98782  0.38309  0.89868  Biso   1.000  H
  C48      1.0000 0.96747  0.52382  0.90470  Biso   1.000  C
  C49      1.0000 0.59199  0.35529  0.96200  Biso   1.000  C
  C50      1.0000 0.22309  0.10485  0.96361  Biso   1.000  C
  O10      1.0000 0.03175  0.10694  0.95807  Biso   1.000  O
  H50      1.0000 0.38000  0.08841  0.96269  Biso   1.000  H
  C51      1.0000 0.45552  0.95494  0.91329  Biso   1.000  C
  H51      1.0000 0.33783  0.22492  0.02380  Biso   1.000  H
  H52      1.0000 0.20944  0.22589  0.01871  Biso   1.000  H
  H53      1.0000 0.01597  0.60152  0.90959  Biso   1.000  H
  H54      1.0000 0.92437  0.50158  0.86830  Biso   1.000  H
  H55      1.0000 0.91426  0.51540  0.92858  Biso   1.000  H
  H56      1.0000 0.58917  0.34741  0.92368  Biso   1.000  H
  H57      1.0000 0.62588  0.43481  0.97689  Biso   1.000  H
  C52      1.0000 0.66277  0.28759  0.98869  Biso   1.000  C
  C53      1.0000 0.91213  0.06194  0.93568  Biso   1.000  C
  H58      1.0000 0.47379  0.02965  0.90269  Biso   1.000  H
  H59      1.0000 0.47940  0.96363  0.95209  Biso   1.000  H
  C54      1.0000 0.51815  0.88913  0.88780  Biso   1.000  C
  H60      1.0000 0.62683  0.20887  0.97420  Biso   1.000  H
  H61      1.0000 0.74036  0.31335  0.98231  Biso   1.000  H
  H62      1.0000 0.66615  0.29752  0.02661  Biso   1.000  H
  H63      1.0000 0.88009  0.98817  0.94607  Biso   1.000  H
  H64      1.0000 0.89883  0.05333  0.89687  Biso   1.000  H
  C55      1.0000 0.85524  0.14199  0.95619  Biso   1.000  C
  H65      1.0000 0.59807  0.93479  0.89170  Biso   1.000  H
  H66      1.0000 0.51458  0.82307  0.90458  Biso   1.000  H
  H67      1.0000 0.48258  0.86678  0.85028  Biso   1.000  H
  H68      1.0000 0.86892  0.20564  0.93708  Biso   1.000  H
  H69      1.0000 0.77297  0.10422  0.95081  Biso   1.000  H
  H70      1.0000 0.88734  0.16760  0.99371  Biso   1.000  H
  C56      1.0000 0.76717  0.62705  0.35808  Biso   1.000  C
  C57      1.0000 0.73830  0.56956  0.30050  Biso   1.000  C
  C58      1.0000 0.81320  0.75726  0.36129  Biso   1.000  C
  H71      1.0000 0.82580  0.60185  0.37919  Biso   1.000  H
  H72      1.0000 0.69791  0.60573  0.37321  Biso   1.000  H
  C59      1.0000 0.62828  0.54765  0.27068  Biso   1.000  C
  C60      1.0000 0.81678  0.53656  0.27690  Biso   1.000  C
  C61      1.0000 0.73661  0.81757  0.36149  Biso   1.000  C
  C62      1.0000 0.92611  0.81262  0.36278  Biso   1.000  C
  C63      1.0000 0.59527  0.49976  0.21779  Biso   1.000  C
  H73      1.0000 0.57331  0.56615  0.28709  Biso   1.000  H
  C64      1.0000 0.78617  0.48679  0.22280  Biso   1.000  C
  O11      1.0000 0.92541  0.55633  0.30760  Biso   1.000  O
  C65      1.0000 0.77590  0.93431  0.36310  Biso   1.000  C
  O12      1.0000 0.62410  0.75784  0.36101  Biso   1.000  O
  H74      1.0000 0.97729  0.77116  0.36238  Biso   1.000  H
  C66      1.0000 0.96879  0.92748  0.36478  Biso   1.000  C
  O13      1.0000 0.48788  0.48018  0.18608  Biso   1.000  O
  C67      1.0000 0.67577  0.46950  0.19251  Biso   1.000  C
  H75      1.0000 0.84063  0.46525  0.20711  Biso   1.000  H
  C68      1.0000 0.99626  0.49997  0.29239  Biso   1.000  C
  C69      1.0000 0.89440  0.99222  0.36418  Biso   1.000  C
  H76      1.0000 0.72375  0.97470  0.36330  Biso   1.000  H
  C70      1.0000 0.54297  0.82092  0.36069  Biso   1.000  C
  O14      1.0000 0.08439  0.98751  0.36595  Biso   1.000  O
  C71      1.0000 0.40112  0.51224  0.21121  Biso   1.000  C
  C72      1.0000 0.64508  0.42063  0.13359  Biso   1.000  C
  H77      1.0000 0.95576  0.41916  0.28641  Biso   1.000  H
  H78      1.0000 0.01678  0.52160  0.25900  Biso   1.000  H
  C73      1.0000 0.10262  0.52685  0.33421  Biso   1.000  C
  C74      1.0000 0.93375  0.11720  0.36458  Biso   1.000  C
  H79      1.0000 0.54188  0.86183  0.33031  Biso   1.000  H
  H80      1.0000 0.56335  0.87431  0.39348  Biso   1.000  H
  C75      1.0000 0.42776  0.73251  0.35660  Biso   1.000  C
  C76      1.0000 0.16528  0.92883  0.36430  Biso   1.000  C
  H81      1.0000 0.42589  0.59329  0.22248  Biso   1.000  H
  H82      1.0000 0.38859  0.47425  0.24211  Biso   1.000  H
  C77      1.0000 0.28933  0.47333  0.16658  Biso   1.000  C
  H83      1.0000 0.56338  0.37521  0.12388  Biso   1.000  H
  H84      1.0000 0.69074  0.37139  0.12741  Biso   1.000  H
  C78      1.0000 0.66853  0.51353  0.09800  Biso   1.000  C
  H85      1.0000 0.14639  0.47820  0.32590  Biso   1.000  H
  H86      1.0000 0.08174  0.51553  0.36820  Biso   1.000  H
  H87      1.0000 0.14898  0.60434  0.33581  Biso   1.000  H
  C79      1.0000 0.92632  0.14902  0.30788  Biso   1.000  C
  H88      1.0000 0.88592  0.14985  0.38288  Biso   1.000  H
  H89      1.0000 0.01363  0.14919  0.38449  Biso   1.000  H
  H90      1.0000 0.36929  0.76827  0.35828  Biso   1.000  H
  H91      1.0000 0.43246  0.68989  0.38581  Biso   1.000  H
  H92      1.0000 0.40766  0.68286  0.32321  Biso   1.000  H
  H93      1.0000 0.13860  0.87116  0.33280  Biso   1.000  H
  H94      1.0000 0.17234  0.89179  0.39581  Biso   1.000  H
  C80      1.0000 0.27846  0.00859  0.36250  Biso   1.000  C
  H95      1.0000 0.22619  0.48603  0.18079  Biso   1.000  H
  H96      1.0000 0.27030  0.39422  0.15378  Biso   1.000  H
  H97      1.0000 0.30201  0.51574  0.13749  Biso   1.000  H
  C81      1.0000 0.77320  0.55411  0.08399  Biso   1.000  C
  C82      1.0000 0.58326  0.55645  0.07922  Biso   1.000  C
  C83      1.0000 0.82808  0.16549  0.28011  Biso   1.000  C
  C84      1.0000 0.01923  0.15824  0.28388  Biso   1.000  C
  H98      1.0000 0.33390  0.96876  0.36169  Biso   1.000  H
  H99      1.0000 0.27131  0.04386  0.33091  Biso   1.000  H
  H100     1.0000 0.30441  0.06533  0.39368  Biso   1.000  H
  C85      1.0000 0.79661  0.64005  0.05309  Biso   1.000  C
  O15      1.0000 0.85882  0.50621  0.10370  Biso   1.000  O
  C86      1.0000 0.60042  0.64075  0.04792  Biso   1.000  C
  H101     1.0000 0.51050  0.52770  0.08781  Biso   1.000  H
  C87      1.0000 0.82268  0.18684  0.22758  Biso   1.000  C
  O16      1.0000 0.73826  0.15454  0.30627  Biso   1.000  O
  C88      1.0000 0.01522  0.17995  0.23039  Biso   1.000  C
  H102     1.0000 0.08673  0.15004  0.30318  Biso   1.000  H
  H103     1.0000 0.87024  0.66804  0.04531  Biso   1.000  H
  C89      1.0000 0.70767  0.68491  0.03331  Biso   1.000  C
  C90      1.0000 0.96784  0.53984  0.08492  Biso   1.000  C
  O17      1.0000 0.51907  0.68875  0.02801  Biso   1.000  O
  C91      1.0000 0.91218  0.19281  0.20230  Biso   1.000  C
  H104     1.0000 0.75556  0.19734  0.20920  Biso   1.000  H
  C92      1.0000 0.64586  0.19146  0.28388  Biso   1.000  C
  O18      1.0000 0.10293  0.18834  0.20350  Biso   1.000  O
  C93      1.0000 0.73283  0.78063  0.00161  Biso   1.000  C
  H105     1.0000 0.94983  0.53885  0.04639  Biso   1.000  H
  H106     1.0000 0.01210  0.61699  0.10129  Biso   1.000  H
  C94      1.0000 0.03241  0.47636  0.09531  Biso   1.000  C
  C95      1.0000 0.40794  0.64481  0.03800  Biso   1.000  C
  C96      1.0000 0.90155  0.21147  0.14499  Biso   1.000  C
  H107     1.0000 0.60428  0.14454  0.24989  Biso   1.000  H
  H108     1.0000 0.67601  0.26893  0.27750  Biso   1.000  H
  C97      1.0000 0.56536  0.18427  0.32140  Biso   1.000  C
  C98      1.0000 0.19893  0.15996  0.22750  Biso   1.000  C
  C99      1.0000 0.77685  0.89525  0.03640  Biso   1.000  C
  H109     1.0000 0.66211  0.77518  0.97620  Biso   1.000  H
  H110     1.0000 0.79049  0.77420  0.98130  Biso   1.000  H
  H111     1.0000 0.98389  0.39858  0.09041  Biso   1.000  H
  H112     1.0000 0.07548  0.49852  0.13171  Biso   1.000  H
  H113     1.0000 0.08558  0.48468  0.07139  Biso   1.000  H
  H114     1.0000 0.41077  0.65275  0.07629  Biso   1.000  H
  H115     1.0000 0.37405  0.56528  0.02312  Biso   1.000  H
  C100     1.0000 0.33717  0.71250  0.01132  Biso   1.000  C
  C101     1.0000 0.85653  0.10102  0.10590  Biso   1.000  C
  H116     1.0000 0.97738  0.25565  0.13969  Biso   1.000  H
  H117     1.0000 0.84892  0.25480  0.13729  Biso   1.000  H
  H118     1.0000 0.54421  0.10993  0.33160  Biso   1.000  H
  H119     1.0000 0.49654  0.19853  0.30411  Biso   1.000  H
  H120     1.0000 0.60326  0.23960  0.35291  Biso   1.000  H
  H121     1.0000 0.17355  0.08261  0.23480  Biso   1.000  H
  H122     1.0000 0.23659  0.20927  0.26141  Biso   1.000  H
  C102     1.0000 0.28365  0.17153  0.19138  Biso   1.000  C
  C103     1.0000 0.89605  0.94978  0.05719  Biso   1.000  C
  C104     1.0000 0.69943  0.94600  0.05080  Biso   1.000  C
  H123     1.0000 0.37302  0.79123  0.02580  Biso   1.000  H
  H124     1.0000 0.25957  0.68674  0.01770  Biso   1.000  H
  H125     1.0000 0.33378  0.70258  0.97339  Biso   1.000  H
  C105     1.0000 0.93309  0.04886  0.09102  Biso   1.000  C
  C106     1.0000 0.73974  0.04981  0.08608  Biso   1.000  C
  H126     1.0000 0.24228  0.13918  0.15530  Biso   1.000  H
  H127     1.0000 0.33773  0.13273  0.20310  Biso   1.000  H
  H128     1.0000 0.32526  0.25029  0.19251  Biso   1.000  H
  O19      1.0000 0.96817  0.89314  0.04190  Biso   1.000  O
  H129     1.0000 0.61992  0.91168  0.03728  Biso   1.000  H
  H130     1.0000 0.01263  0.08295  0.10458  Biso   1.000  H
  O20      1.0000 0.66482  0.10197  0.10257  Biso   1.000  O
  C107     1.0000 0.08771  0.93814  0.06429  Biso   1.000  C
  C108     1.0000 0.54440  0.04514  0.08668  Biso   1.000  C
  H131     1.0000 0.10101  0.94675  0.10309  Biso   1.000  H
  C109     1.0000 0.14460  0.85809  0.04378  Biso   1.000  C
  H132     1.0000 0.11975  0.01191  0.05390  Biso   1.000  H
  H133     1.0000 0.52614  0.97044  0.09732  Biso   1.000  H
  H134     1.0000 0.52045  0.03646  0.04792  Biso   1.000  H
  C110     1.0000 0.48179  0.11097  0.11220  Biso   1.000  C
  H135     1.0000 0.13091  0.79444  0.06288  Biso   1.000  H
  H136     1.0000 0.22699  0.89596  0.04920  Biso   1.000  H
  H137     1.0000 0.11252  0.83249  0.00630  Biso   1.000  H
  H138     1.0000 0.40189  0.06538  0.10831  Biso   1.000  H
  H139     1.0000 0.48525  0.17702  0.09539  Biso   1.000  H
  H140     1.0000 0.51734  0.13330  0.14969  Biso   1.000  H
