data_image0
_cell_length_a       13.447
_cell_length_b       20.407
_cell_length_c       12.409
_cell_angle_alpha    90
_cell_angle_beta     103.68
_cell_angle_gamma    90

_symmetry_space_group_name_H-M    "P 1"
_symmetry_int_tables_number       1

loop_
  _symmetry_equiv_pos_as_xyz
  'x, y, z'

loop_
  _atom_site_label
  _atom_site_occupancy
  _atom_site_fract_x
  _atom_site_fract_y
  _atom_site_fract_z
  _atom_site_thermal_displace_type
  _atom_site_B_iso_or_equiv
  _atom_site_type_symbol
  O1       1.0000 0.09116  0.28226  0.59692  Biso   1.000  O
  C1       1.0000 0.15006  0.30279  0.54582  Biso   1.000  C
  N1       1.0000 0.13549  0.30210  0.43170  Biso   1.000  N
  N2       1.0000 0.24272  0.33268  0.58572  Biso   1.000  N
  C2       1.0000 0.22691  0.32239  0.39297  Biso   1.000  C
  C3       1.0000 0.05057  0.26653  0.36087  Biso   1.000  C
  C4       1.0000 0.30105  0.34449  0.50303  Biso   1.000  C
  C5       1.0000 0.28381  0.33699  0.70582  Biso   1.000  C
  H1       1.0000 0.25512  0.28681  0.35631  Biso   1.000  H
  N3       1.0000 0.21278  0.38158  0.32927  Biso   1.000  N
  H2       1.0000 0.07719  0.23810  0.31177  Biso   1.000  H
  H3       1.0000 0.01894  0.23899  0.40707  Biso   1.000  H
  N4       1.0000 0.97447  0.30813  0.29568  Biso   1.000  N
  H4       1.0000 0.36523  0.31969  0.51837  Biso   1.000  H
  N5       1.0000 0.31716  0.41309  0.48553  Biso   1.000  N
  H5       1.0000 0.35433  0.32229  0.72365  Biso   1.000  H
  H6       1.0000 0.24511  0.30798  0.74247  Biso   1.000  H
  N6       1.0000 0.27951  0.40202  0.74745  Biso   1.000  N
  C6       1.0000 0.26489  0.43289  0.38127  Biso   1.000  C
  C7       1.0000 0.15860  0.38452  0.21390  Biso   1.000  C
  C8       1.0000 0.98035  0.33758  0.19109  Biso   1.000  C
  C9       1.0000 0.88326  0.32278  0.32073  Biso   1.000  C
  C10      1.0000 0.39126  0.45332  0.55959  Biso   1.000  C
  C11      1.0000 0.35558  0.45249  0.75492  Biso   1.000  C
  C12      1.0000 0.21006  0.41912  0.80816  Biso   1.000  C
  O2       1.0000 0.27030  0.48817  0.34370  Biso   1.000  O
  H7       1.0000 0.17109  0.34439  0.17708  Biso   1.000  H
  H8       1.0000 0.18492  0.42079  0.17840  Biso   1.000  H
  N7       1.0000 0.04860  0.39281  0.20088  Biso   1.000  N
  C13      1.0000 0.87321  0.37012  0.14722  Biso   1.000  C
  H9       1.0000 0.99464  0.30490  0.13901  Biso   1.000  H
  N8       1.0000 0.82446  0.35801  0.23870  Biso   1.000  N
  O3       1.0000 0.85964  0.30494  0.40740  Biso   1.000  O
  H10      1.0000 0.41382  0.48772  0.51713  Biso   1.000  H
  H11      1.0000 0.45032  0.42662  0.59235  Biso   1.000  H
  N9       1.0000 0.35255  0.48263  0.64701  Biso   1.000  N
  H12      1.0000 0.42423  0.43671  0.79075  Biso   1.000  H
  C14      1.0000 0.32284  0.50791  0.81787  Biso   1.000  C
  N10      1.0000 0.23112  0.48155  0.84706  Biso   1.000  N
  O4       1.0000 0.14094  0.38443  0.82400  Biso   1.000  O
  C15      1.0000 0.00161  0.45009  0.16447  Biso   1.000  C
  N11      1.0000 0.89773  0.43843  0.13519  Biso   1.000  N
  H13      1.0000 0.83514  0.35071  0.07738  Biso   1.000  H
  C16      1.0000 0.71714  0.37071  0.23148  Biso   1.000  C
  C17      1.0000 0.32384  0.54638  0.64187  Biso   1.000  C
  N12      1.0000 0.30200  0.56226  0.74148  Biso   1.000  N
  H14      1.0000 0.37592  0.51899  0.88422  Biso   1.000  H
  C18      1.0000 0.17611  0.51321  0.91938  Biso   1.000  C
  O5       1.0000 0.04201  0.50218  0.15908  Biso   1.000  O
  C19      1.0000 0.82395  0.48679  0.08062  Biso   1.000  C
  H15      1.0000 0.67822  0.36110  0.15676  Biso   1.000  H
  H16      1.0000 0.69326  0.34160  0.28191  Biso   1.000  H
  N13      1.0000 0.69805  0.43774  0.25852  Biso   1.000  N
  O6       1.0000 0.31809  0.58323  0.56407  Biso   1.000  O
  C20      1.0000 0.28292  0.62929  0.76852  Biso   1.000  C
  H17      1.0000 0.14076  0.47998  0.95198  Biso   1.000  H
  H18      1.0000 0.22517  0.53433  0.97927  Biso   1.000  H
  N14      1.0000 0.10233  0.56157  0.86481  Biso   1.000  N
  H19      1.0000 0.85937  0.52002  0.04802  Biso   1.000  H
  H20      1.0000 0.77496  0.46572  0.02073  Biso   1.000  H
  N15      1.0000 0.76891  0.51850  0.15286  Biso   1.000  N
  C21      1.0000 0.67722  0.49209  0.18214  Biso   1.000  C
  C22      1.0000 0.67621  0.45362  0.35813  Biso   1.000  C
  H21      1.0000 0.32181  0.63890  0.84316  Biso   1.000  H
  H22      1.0000 0.30686  0.65840  0.71809  Biso   1.000  H
  N16      1.0000 0.17567  0.64199  0.76130  Biso   1.000  N
  C23      1.0000 0.12684  0.62988  0.85278  Biso   1.000  C
  C24      1.0000 0.99842  0.54991  0.83545  Biso   1.000  C
  C25      1.0000 0.79005  0.58093  0.19176  Biso   1.000  C
  C26      1.0000 0.64455  0.54751  0.24509  Biso   1.000  C
  H23      1.0000 0.62414  0.48101  0.11578  Biso   1.000  H
  N17      1.0000 0.64750  0.51737  0.35299  Biso   1.000  N
  O7       1.0000 0.68196  0.41677  0.43593  Biso   1.000  O
  C27      1.0000 0.11679  0.67722  0.67927  Biso   1.000  C
  H24      1.0000 0.16492  0.64929  0.92262  Biso   1.000  H
  C28      1.0000 0.01970  0.66242  0.80891  Biso   1.000  C
  N18      1.0000 0.95145  0.60719  0.79912  Biso   1.000  N
  O8       1.0000 0.95803  0.49787  0.84084  Biso   1.000  O
  N19      1.0000 0.72053  0.59798  0.25247  Biso   1.000  N
  O9       1.0000 0.85911  0.61557  0.17600  Biso   1.000  O
  H25      1.0000 0.57581  0.56329  0.20917  Biso   1.000  H
  C29      1.0000 0.60887  0.54672  0.44041  Biso   1.000  C
  N20      1.0000 0.02566  0.69192  0.70432  Biso   1.000  N
  O10      1.0000 0.14041  0.69506  0.59260  Biso   1.000  O
  H26      1.0000 0.00541  0.69510  0.86100  Biso   1.000  H
  C30      1.0000 0.84145  0.61552  0.78610  Biso   1.000  C
  C31      1.0000 0.71625  0.66301  0.29419  Biso   1.000  C
  H27      1.0000 0.58623  0.51232  0.48287  Biso   1.000  H
  H28      1.0000 0.54972  0.57338  0.40756  Biso   1.000  H
  N21      1.0000 0.68297  0.58691  0.51447  Biso   1.000  N
  C32      1.0000 0.94946  0.73352  0.63905  Biso   1.000  C
  H29      1.0000 0.82894  0.65561  0.82284  Biso   1.000  H
  H30      1.0000 0.81514  0.57921  0.82160  Biso   1.000  H
  N22      1.0000 0.78725  0.61846  0.67065  Biso   1.000  N
  H31      1.0000 0.64570  0.67771  0.27627  Biso   1.000  H
  H32      1.0000 0.75495  0.69202  0.25753  Biso   1.000  H
  N23      1.0000 0.75733  0.66732  0.41428  Biso   1.000  N
  C33      1.0000 0.73515  0.56711  0.61865  Biso   1.000  C
  C34      1.0000 0.69900  0.65551  0.49697  Biso   1.000  C
  H33      1.0000 0.92285  0.76190  0.68815  Biso   1.000  H
  H34      1.0000 0.98117  0.76101  0.59285  Biso   1.000  H
  N24      1.0000 0.86456  0.69795  0.56830  Biso   1.000  N
  C35      1.0000 0.77313  0.67761  0.60695  Biso   1.000  C
  C36      1.0000 0.85007  0.69721  0.45418  Biso   1.000  C
  O11      1.0000 0.72976  0.51183  0.65630  Biso   1.000  O
  H35      1.0000 0.63482  0.68031  0.48163  Biso   1.000  H
  H36      1.0000 0.74493  0.71319  0.64369  Biso   1.000  H
  O12      1.0000 0.90897  0.71774  0.40309  Biso   1.000  O
  C37      1.0000 0.05061  0.23350  0.86091  Biso   1.000  C
  N25      1.0000 0.97443  0.19189  0.79572  Biso   1.000  N
  N26      1.0000 0.13551  0.19792  0.93166  Biso   1.000  N
  H37      1.0000 0.07722  0.26192  0.81181  Biso   1.000  H
  H38      1.0000 0.01897  0.26099  0.90711  Biso   1.000  H
  C38      1.0000 0.98037  0.16240  0.69105  Biso   1.000  C
  C39      1.0000 0.88328  0.17719  0.82069  Biso   1.000  C
  C40      1.0000 0.22695  0.17759  0.89301  Biso   1.000  C
  C41      1.0000 0.15000  0.19719  0.04578  Biso   1.000  C
  N27      1.0000 0.04864  0.10722  0.70092  Biso   1.000  N
  C42      1.0000 0.87323  0.12991  0.64718  Biso   1.000  C
  H39      1.0000 0.99466  0.19508  0.63897  Biso   1.000  H
  N28      1.0000 0.82448  0.14201  0.73866  Biso   1.000  N
  O13      1.0000 0.85966  0.19503  0.90736  Biso   1.000  O
  N29      1.0000 0.21282  0.11844  0.82931  Biso   1.000  N
  H40      1.0000 0.25514  0.21321  0.85627  Biso   1.000  H
  C43      1.0000 0.30100  0.15549  0.00299  Biso   1.000  C
  N30      1.0000 0.24267  0.16730  0.08568  Biso   1.000  N
  O14      1.0000 0.09110  0.21772  0.09688  Biso   1.000  O
  C44      1.0000 0.15862  0.11550  0.71386  Biso   1.000  C
  C45      1.0000 0.00165  0.04988  0.66451  Biso   1.000  C
  N31      1.0000 0.89775  0.06160  0.63515  Biso   1.000  N
  H41      1.0000 0.83517  0.14931  0.57742  Biso   1.000  H
  C46      1.0000 0.71715  0.12932  0.73144  Biso   1.000  C
  C47      1.0000 0.26492  0.06708  0.88132  Biso   1.000  C
  N32      1.0000 0.31718  0.08688  0.98549  Biso   1.000  N
  H42      1.0000 0.36519  0.18028  0.01841  Biso   1.000  H
  C48      1.0000 0.28383  0.16298  0.20577  Biso   1.000  C
  H43      1.0000 0.17113  0.15558  0.67712  Biso   1.000  H
  H44      1.0000 0.18493  0.07919  0.67836  Biso   1.000  H
  O15      1.0000 0.04204  0.99784  0.65912  Biso   1.000  O
  C49      1.0000 0.82396  0.01318  0.58058  Biso   1.000  C
  H45      1.0000 0.67826  0.13892  0.65680  Biso   1.000  H
  H46      1.0000 0.69321  0.15843  0.78187  Biso   1.000  H
  N33      1.0000 0.69807  0.06228  0.75848  Biso   1.000  N
  O16      1.0000 0.27031  0.01181  0.84366  Biso   1.000  O
  C50      1.0000 0.39122  0.04670  0.05964  Biso   1.000  C
  H47      1.0000 0.35429  0.17768  0.22369  Biso   1.000  H
  H48      1.0000 0.24507  0.19199  0.24252  Biso   1.000  H
  N34      1.0000 0.27947  0.09801  0.24749  Biso   1.000  N
  H49      1.0000 0.85931  0.98001  0.54798  Biso   1.000  H
  N35      1.0000 0.76895  0.98153  0.65290  Biso   1.000  N
  H50      1.0000 0.77498  0.03430  0.52069  Biso   1.000  H
  C51      1.0000 0.67723  0.00789  0.68209  Biso   1.000  C
  C52      1.0000 0.67623  0.04641  0.85809  Biso   1.000  C
  H51      1.0000 0.41376  0.01230  0.01709  Biso   1.000  H
  H52      1.0000 0.45028  0.07341  0.09240  Biso   1.000  H
  N36      1.0000 0.35250  0.01740  0.14697  Biso   1.000  N
  C53      1.0000 0.35552  0.04748  0.25487  Biso   1.000  C
  C54      1.0000 0.21003  0.08090  0.30821  Biso   1.000  C
  C55      1.0000 0.79008  0.91910  0.69180  Biso   1.000  C
  C56      1.0000 0.64457  0.95252  0.74505  Biso   1.000  C
  H53      1.0000 0.62417  0.01901  0.61583  Biso   1.000  H
  N37      1.0000 0.64752  0.98265  0.85295  Biso   1.000  N
  O17      1.0000 0.68198  0.08321  0.93589  Biso   1.000  O
  C57      1.0000 0.32380  0.95359  0.14191  Biso   1.000  C
  C58      1.0000 0.32280  0.99211  0.31791  Biso   1.000  C
  H54      1.0000 0.42419  0.06331  0.29079  Biso   1.000  H
  N38      1.0000 0.23108  0.01847  0.34710  Biso   1.000  N
  O18      1.0000 0.14088  0.11560  0.32396  Biso   1.000  O
  N39      1.0000 0.72056  0.90199  0.75251  Biso   1.000  N
  O19      1.0000 0.85913  0.88440  0.67596  Biso   1.000  O
  H55      1.0000 0.57584  0.93669  0.70922  Biso   1.000  H
  C59      1.0000 0.60881  0.95330  0.94037  Biso   1.000  C
  N40      1.0000 0.30204  0.93777  0.24152  Biso   1.000  N
  O20      1.0000 0.31813  0.91679  0.06411  Biso   1.000  O
  H56      1.0000 0.37593  0.98099  0.38418  Biso   1.000  H
  C60      1.0000 0.17607  0.98682  0.41943  Biso   1.000  C
  C61      1.0000 0.71626  0.83702  0.79415  Biso   1.000  C
  H57      1.0000 0.58627  0.98770  0.98292  Biso   1.000  H
  H58      1.0000 0.54976  0.92659  0.90761  Biso   1.000  H
  N41      1.0000 0.68293  0.91312  0.01452  Biso   1.000  N
  C62      1.0000 0.28286  0.87073  0.26848  Biso   1.000  C
  H59      1.0000 0.22513  0.96570  0.47931  Biso   1.000  H
  N42      1.0000 0.10227  0.93840  0.36477  Biso   1.000  N
  H60      1.0000 0.14072  0.01999  0.45202  Biso   1.000  H
  H61      1.0000 0.64574  0.82232  0.77631  Biso   1.000  H
  H62      1.0000 0.75496  0.80801  0.75749  Biso   1.000  H
  N43      1.0000 0.75735  0.83270  0.91424  Biso   1.000  N
  C63      1.0000 0.69904  0.84451  0.99702  Biso   1.000  C
  C64      1.0000 0.73511  0.93292  0.11869  Biso   1.000  C
  H63      1.0000 0.32178  0.86113  0.34321  Biso   1.000  H
  H64      1.0000 0.30682  0.84162  0.21813  Biso   1.000  H
  N44      1.0000 0.17561  0.85799  0.26126  Biso   1.000  N
  C65      1.0000 0.12681  0.87009  0.35283  Biso   1.000  C
  C66      1.0000 0.99839  0.95012  0.33549  Biso   1.000  C
  C67      1.0000 0.85001  0.80281  0.95414  Biso   1.000  C
  H65      1.0000 0.63484  0.81972  0.98159  Biso   1.000  H
  C68      1.0000 0.77309  0.82241  0.10699  Biso   1.000  C
  N45      1.0000 0.78721  0.88156  0.17069  Biso   1.000  N
  O21      1.0000 0.72970  0.98819  0.15626  Biso   1.000  O
  C69      1.0000 0.11683  0.82281  0.17932  Biso   1.000  C
  H66      1.0000 0.16486  0.85069  0.42258  Biso   1.000  H
  C70      1.0000 0.01972  0.83760  0.30887  Biso   1.000  C
  N46      1.0000 0.95140  0.89283  0.29908  Biso   1.000  N
  O22      1.0000 0.95799  0.00216  0.34088  Biso   1.000  O
  O23      1.0000 0.90892  0.78228  0.90305  Biso   1.000  O
  N47      1.0000 0.86451  0.80208  0.06826  Biso   1.000  N
  H67      1.0000 0.74489  0.78679  0.14374  Biso   1.000  H
  C71      1.0000 0.84139  0.88450  0.28606  Biso   1.000  C
  N48      1.0000 0.02560  0.80811  0.20428  Biso   1.000  N
  O24      1.0000 0.14036  0.80497  0.09256  Biso   1.000  O
  H68      1.0000 0.00536  0.80492  0.36095  Biso   1.000  H
  C72      1.0000 0.94942  0.76650  0.13909  Biso   1.000  C
  H69      1.0000 0.82891  0.84442  0.32289  Biso   1.000  H
  H70      1.0000 0.81508  0.92081  0.32156  Biso   1.000  H
  H71      1.0000 0.92281  0.73813  0.18819  Biso   1.000  H
  H72      1.0000 0.98114  0.73901  0.09289  Biso   1.000  H
  Ne1      1.0000 0.00003  0.50001  0.49999  Biso   1.000  Ne
  He1      1.0000 0.92481  0.39332  0.63429  Biso   1.000  He
  He2      1.0000 0.07626  0.60774  0.36435  Biso   1.000  He
  Ar1      1.0000 0.00003  0.50000  0.49996  Biso   1.000  Ar
  Ne2      1.0000 0.00002  0.00000  0.99998  Biso   1.000  Ne
  He3      1.0000 0.92452  0.10696  0.13464  Biso   1.000  He
  He4      1.0000 0.10378  0.90042  0.87444  Biso   1.000  He
  Ar2      1.0000 0.00002  0.00000  0.00000  Biso   1.000  Ar
