data_image0
_cell_length_a       12.673
_cell_length_b       12.602
_cell_length_c       23.356
_cell_angle_alpha    90
_cell_angle_beta     105.14
_cell_angle_gamma    90

_symmetry_space_group_name_H-M    "P 1"
_symmetry_int_tables_number       1

loop_
  _symmetry_equiv_pos_as_xyz
  'x, y, z'

loop_
  _atom_site_label
  _atom_site_occupancy
  _atom_site_fract_x
  _atom_site_fract_y
  _atom_site_fract_z
  _atom_site_thermal_displace_type
  _atom_site_B_iso_or_equiv
  _atom_site_type_symbol
  C1       1.0000 0.31841  0.29376  0.13200  Biso   1.000  C
  H1       1.0000 0.27193  0.26226  0.15511  Biso   1.000  H
  N1       1.0000 0.25861  0.31106  0.07039  Biso   1.000  N
  N2       1.0000 0.37557  0.38787  0.16092  Biso   1.000  N
  C2       1.0000 0.41418  0.21766  0.12801  Biso   1.000  C
  C3       1.0000 0.29909  0.24996  0.03251  Biso   1.000  C
  C4       1.0000 0.14979  0.35526  0.05398  Biso   1.000  C
  C5       1.0000 0.32081  0.47500  0.17862  Biso   1.000  C
  C6       1.0000 0.48743  0.37518  0.17560  Biso   1.000  C
  N3       1.0000 0.39378  0.20243  0.06334  Biso   1.000  N
  N4       1.0000 0.50899  0.27837  0.15400  Biso   1.000  N
  H2       1.0000 0.41240  0.15061  0.14890  Biso   1.000  H
  O1       1.0000 0.25749  0.24210  0.97822  Biso   1.000  O
  N5       1.0000 0.14970  0.46921  0.04493  Biso   1.000  N
  H3       1.0000 0.10818  0.32162  0.01770  Biso   1.000  H
  H4       1.0000 0.11370  0.33971  0.08490  Biso   1.000  H
  N6       1.0000 0.27717  0.55118  0.13173  Biso   1.000  N
  H5       1.0000 0.26120  0.44810  0.19330  Biso   1.000  H
  H6       1.0000 0.37127  0.51127  0.21100  Biso   1.000  H
  O2       1.0000 0.55358  0.43811  0.20319  Biso   1.000  O
  C7       1.0000 0.44434  0.11578  0.03952  Biso   1.000  C
  C8       1.0000 0.61940  0.23663  0.16651  Biso   1.000  C
  C9       1.0000 0.16761  0.54817  0.09182  Biso   1.000  C
  C10      1.0000 0.12808  0.51214  0.99020  Biso   1.000  C
  C11      1.0000 0.32581  0.64585  0.12672  Biso   1.000  C
  H7       1.0000 0.41297  0.04880  0.03189  Biso   1.000  H
  N7       1.0000 0.54572  0.14299  0.02901  Biso   1.000  N
  N8       1.0000 0.66287  0.23346  0.11501  Biso   1.000  N
  H8       1.0000 0.66681  0.28019  0.19680  Biso   1.000  H
  H9       1.0000 0.61990  0.16537  0.18230  Biso   1.000  H
  H10      1.0000 0.11254  0.54166  0.11430  Biso   1.000  H
  C12      1.0000 0.15575  0.65450  0.05881  Biso   1.000  C
  O3       1.0000 0.10633  0.46540  0.94385  Biso   1.000  O
  N9       1.0000 0.13273  0.62165  0.99707  Biso   1.000  N
  O4       1.0000 0.41587  0.67315  0.15644  Biso   1.000  O
  N10      1.0000 0.26044  0.70521  0.08370  Biso   1.000  N
  C13      1.0000 0.64919  0.14506  0.07478  Biso   1.000  C
  C14      1.0000 0.56179  0.15593  0.97272  Biso   1.000  C
  C15      1.0000 0.74467  0.29829  0.10920  Biso   1.000  C
  H11      1.0000 0.09549  0.69656  0.06609  Biso   1.000  H
  C16      1.0000 0.11602  0.69457  0.94744  Biso   1.000  C
  C17      1.0000 0.28537  0.81360  0.07221  Biso   1.000  C
  H12      1.0000 0.66270  0.07761  0.09629  Biso   1.000  H
  C18      1.0000 0.73571  0.16537  0.03912  Biso   1.000  C
  O5       1.0000 0.48964  0.15053  0.92659  Biso   1.000  O
  N11      1.0000 0.67104  0.17251  0.97853  Biso   1.000  N
  O6       1.0000 0.77842  0.37621  0.14114  Biso   1.000  O
  N12      1.0000 0.78429  0.26639  0.06365  Biso   1.000  N
  N13      1.0000 0.21571  0.73353  0.93635  Biso   1.000  N
  H13      1.0000 0.07347  0.75448  0.95494  Biso   1.000  H
  H14      1.0000 0.07371  0.65886  0.91200  Biso   1.000  H
  H15      1.0000 0.21932  0.85558  0.06631  Biso   1.000  H
  H16      1.0000 0.33793  0.84106  0.10698  Biso   1.000  H
  N14      1.0000 0.32898  0.82749  0.02151  Biso   1.000  N
  H17      1.0000 0.79004  0.10840  0.04462  Biso   1.000  H
  C19      1.0000 0.71465  0.18640  0.92783  Biso   1.000  C
  C20      1.0000 0.88400  0.30535  0.05261  Biso   1.000  C
  C21      1.0000 0.25533  0.70163  0.89080  Biso   1.000  C
  C22      1.0000 0.26431  0.83455  0.96092  Biso   1.000  C
  C23      1.0000 0.43821  0.84407  0.02728  Biso   1.000  C
  N15      1.0000 0.73966  0.29479  0.91635  Biso   1.000  N
  H18      1.0000 0.78070  0.14442  0.93373  Biso   1.000  H
  H19      1.0000 0.66215  0.15886  0.89302  Biso   1.000  H
  N16      1.0000 0.86727  0.37827  0.00293  Biso   1.000  N
  H20      1.0000 0.92663  0.24552  0.04511  Biso   1.000  H
  H21      1.0000 0.92629  0.34106  0.08800  Biso   1.000  H
  O7       1.0000 0.22166  0.62379  0.85886  Biso   1.000  O
  N17      1.0000 0.33713  0.76647  0.88499  Biso   1.000  N
  C24      1.0000 0.35081  0.85486  0.92522  Biso   1.000  C
  H22      1.0000 0.21006  0.89153  0.95542  Biso   1.000  H
  O8       1.0000 0.51038  0.84947  0.07345  Biso   1.000  O
  N18      1.0000 0.45430  0.85693  0.97104  Biso   1.000  N
  C25      1.0000 0.67421  0.35407  0.87332  Biso   1.000  C
  C26      1.0000 0.84435  0.34550  0.94123  Biso   1.000  C
  C27      1.0000 0.87192  0.48778  0.00980  Biso   1.000  C
  C28      1.0000 0.38062  0.76337  0.83354  Biso   1.000  C
  H23      1.0000 0.33730  0.92239  0.90371  Biso   1.000  H
  C29      1.0000 0.55576  0.88415  0.96052  Biso   1.000  C
  O9       1.0000 0.58413  0.32677  0.84356  Biso   1.000  O
  N19      1.0000 0.72285  0.44882  0.86831  Biso   1.000  N
  C30      1.0000 0.83241  0.45175  0.90823  Biso   1.000  C
  H24      1.0000 0.90451  0.30336  0.93391  Biso   1.000  H
  O10      1.0000 0.89370  0.53460  0.05620  Biso   1.000  O
  N20      1.0000 0.85030  0.53079  0.95507  Biso   1.000  N
  N21      1.0000 0.49103  0.72155  0.84604  Biso   1.000  N
  H25      1.0000 0.33319  0.71981  0.80320  Biso   1.000  H
  H26      1.0000 0.38010  0.83455  0.81770  Biso   1.000  H
  N22      1.0000 0.60622  0.79757  0.93666  Biso   1.000  N
  H27      1.0000 0.58703  0.95120  0.96811  Biso   1.000  H
  C31      1.0000 0.67921  0.52500  0.82143  Biso   1.000  C
  H28      1.0000 0.88754  0.45826  0.88570  Biso   1.000  H
  C32      1.0000 0.85021  0.64466  0.94602  Biso   1.000  C
  C33      1.0000 0.51265  0.62474  0.82440  Biso   1.000  C
  C34      1.0000 0.58584  0.78226  0.87204  Biso   1.000  C
  C35      1.0000 0.70093  0.74996  0.96753  Biso   1.000  C
  N23      1.0000 0.62443  0.61205  0.83908  Biso   1.000  N
  H29      1.0000 0.73880  0.55190  0.80670  Biso   1.000  H
  H30      1.0000 0.62873  0.48865  0.78900  Biso   1.000  H
  N24      1.0000 0.74139  0.68886  0.92961  Biso   1.000  N
  H31      1.0000 0.89182  0.67838  0.98230  Biso   1.000  H
  H32      1.0000 0.88630  0.66029  0.91510  Biso   1.000  H
  O11      1.0000 0.44644  0.56189  0.79685  Biso   1.000  O
  C36      1.0000 0.68159  0.70616  0.86800  Biso   1.000  C
  H33      1.0000 0.58760  0.84939  0.85110  Biso   1.000  H
  O12      1.0000 0.74251  0.75790  0.02178  Biso   1.000  O
  H34      1.0000 0.72817  0.73766  0.84493  Biso   1.000  H
  C37      1.0000 0.17424  0.14593  0.37329  Biso   1.000  C
  O13      1.0000 0.08408  0.17323  0.34353  Biso   1.000  O
  N25      1.0000 0.22280  0.05118  0.36828  Biso   1.000  N
  N26      1.0000 0.23961  0.20521  0.41632  Biso   1.000  N
  C38      1.0000 0.33244  0.04817  0.40820  Biso   1.000  C
  C39      1.0000 0.17924  0.97500  0.32140  Biso   1.000  C
  C40      1.0000 0.21460  0.31360  0.42780  Biso   1.000  C
  C41      1.0000 0.34430  0.15450  0.44120  Biso   1.000  C
  H35      1.0000 0.38751  0.04166  0.38571  Biso   1.000  H
  N27      1.0000 0.35035  0.96921  0.45508  Biso   1.000  N
  H36      1.0000 0.12870  0.01127  0.28902  Biso   1.000  H
  N28      1.0000 0.12438  0.88795  0.33905  Biso   1.000  N
  H37      1.0000 0.23885  0.94810  0.30672  Biso   1.000  H
  H38      1.0000 0.28073  0.35558  0.43370  Biso   1.000  H
  H39      1.0000 0.16210  0.34106  0.39299  Biso   1.000  H
  N29      1.0000 0.17099  0.32749  0.47850  Biso   1.000  N
  N30      1.0000 0.36732  0.12173  0.50294  Biso   1.000  N
  H40      1.0000 0.40454  0.19656  0.43388  Biso   1.000  H
  C42      1.0000 0.37189  0.01222  0.50982  Biso   1.000  C
  C43      1.0000 0.35024  0.85534  0.44599  Biso   1.000  C
  C44      1.0000 0.18164  0.79384  0.36801  Biso   1.000  C
  C45      1.0000 0.01262  0.87526  0.32441  Biso   1.000  C
  C46      1.0000 0.23574  0.33455  0.53909  Biso   1.000  C
  C47      1.0000 0.06182  0.34407  0.47269  Biso   1.000  C
  C48      1.0000 0.38405  0.19457  0.55262  Biso   1.000  C
  O14      1.0000 0.39372  0.96540  0.55617  Biso   1.000  O
  N31      1.0000 0.24142  0.81114  0.42958  Biso   1.000  N
  H41      1.0000 0.39179  0.82162  0.48232  Biso   1.000  H
  H42      1.0000 0.38635  0.83971  0.41512  Biso   1.000  H
  H43      1.0000 0.22812  0.76234  0.34491  Biso   1.000  H
  C49      1.0000 0.08579  0.71774  0.37201  Biso   1.000  C
  O15      1.0000 0.94639  0.93811  0.29682  Biso   1.000  O
  N32      1.0000 0.99098  0.77845  0.34601  Biso   1.000  N
  N33      1.0000 0.28434  0.23361  0.56366  Biso   1.000  N
  C50      1.0000 0.14924  0.35486  0.57480  Biso   1.000  C
  H44      1.0000 0.28999  0.39160  0.54459  Biso   1.000  H
  N34      1.0000 0.04569  0.35701  0.52902  Biso   1.000  N
  O16      1.0000 0.98959  0.34947  0.42656  Biso   1.000  O
  H45      1.0000 0.42660  0.25448  0.54512  Biso   1.000  H
  H46      1.0000 0.42634  0.15886  0.58802  Biso   1.000  H
  C51      1.0000 0.20088  0.75004  0.46750  Biso   1.000  C
  N35      1.0000 0.10619  0.70243  0.43668  Biso   1.000  N
  H47      1.0000 0.08765  0.65069  0.35111  Biso   1.000  H
  C52      1.0000 0.88065  0.73663  0.33351  Biso   1.000  C
  C53      1.0000 0.24472  0.20171  0.60922  Biso   1.000  C
  N36      1.0000 0.16292  0.26647  0.61503  Biso   1.000  N
  H48      1.0000 0.16275  0.42239  0.59631  Biso   1.000  H
  C54      1.0000 0.94429  0.38415  0.53949  Biso   1.000  C
  O17      1.0000 0.24248  0.74218  0.52179  Biso   1.000  O
  C55      1.0000 0.05571  0.61585  0.46049  Biso   1.000  C
  N37      1.0000 0.83710  0.73353  0.38500  Biso   1.000  N
  H49      1.0000 0.83324  0.78027  0.30321  Biso   1.000  H
  H50      1.0000 0.88015  0.66545  0.31772  Biso   1.000  H
  O18      1.0000 0.27839  0.12379  0.64115  Biso   1.000  O
  C56      1.0000 0.11945  0.26337  0.66652  Biso   1.000  C
  N38      1.0000 0.89383  0.29757  0.56335  Biso   1.000  N
  H51      1.0000 0.91302  0.45120  0.53191  Biso   1.000  H
  N39      1.0000 0.95433  0.64307  0.47101  Biso   1.000  N
  H52      1.0000 0.08700  0.54888  0.46812  Biso   1.000  H
  C57      1.0000 0.75531  0.79837  0.39081  Biso   1.000  C
  C58      1.0000 0.85084  0.64514  0.42519  Biso   1.000  C
  N40      1.0000 0.00902  0.22155  0.65397  Biso   1.000  N
  H53      1.0000 0.16686  0.21981  0.69682  Biso   1.000  H
  H54      1.0000 0.11995  0.33455  0.68231  Biso   1.000  H
  C59      1.0000 0.79912  0.24996  0.53248  Biso   1.000  C
  C60      1.0000 0.91423  0.28226  0.62802  Biso   1.000  C
  C61      1.0000 0.93818  0.65593  0.52729  Biso   1.000  C
  O19      1.0000 0.72163  0.87621  0.35888  Biso   1.000  O
  N41      1.0000 0.71566  0.76647  0.43632  Biso   1.000  N
  H55      1.0000 0.83735  0.57769  0.40372  Biso   1.000  H
  C62      1.0000 0.76434  0.66545  0.46089  Biso   1.000  C
  C63      1.0000 0.98740  0.12482  0.67562  Biso   1.000  C
  N42      1.0000 0.75858  0.18886  0.57041  Biso   1.000  N
  O20      1.0000 0.75754  0.25790  0.47824  Biso   1.000  O
  C64      1.0000 0.81838  0.20616  0.63202  Biso   1.000  C
  H56      1.0000 0.91245  0.34939  0.64892  Biso   1.000  H
  N43      1.0000 0.82901  0.67259  0.52148  Biso   1.000  N
  O21      1.0000 0.01041  0.65053  0.57342  Biso   1.000  O
  C65      1.0000 0.61605  0.80543  0.44741  Biso   1.000  C
  H57      1.0000 0.71001  0.60847  0.45539  Biso   1.000  H
  O22      1.0000 0.05361  0.06189  0.70316  Biso   1.000  O
  N44      1.0000 0.87562  0.11213  0.66094  Biso   1.000  N
  C66      1.0000 0.64984  0.14466  0.55400  Biso   1.000  C
  H58      1.0000 0.77190  0.23766  0.65512  Biso   1.000  H
  C67      1.0000 0.78540  0.68648  0.57218  Biso   1.000  C
  N45      1.0000 0.63268  0.87835  0.49704  Biso   1.000  N
  H59      1.0000 0.57342  0.74552  0.45491  Biso   1.000  H
  H60      1.0000 0.57369  0.84114  0.41201  Biso   1.000  H
  C68      1.0000 0.82084  0.02500  0.67859  Biso   1.000  C
  N46      1.0000 0.64975  0.03079  0.54495  Biso   1.000  N
  H61      1.0000 0.60823  0.17838  0.51771  Biso   1.000  H
  H62      1.0000 0.61375  0.16029  0.58491  Biso   1.000  H
  N47      1.0000 0.76039  0.79487  0.58367  Biso   1.000  N
  H63      1.0000 0.71927  0.64442  0.56628  Biso   1.000  H
  H64      1.0000 0.83790  0.65894  0.60700  Biso   1.000  H
  C69      1.0000 0.62813  0.98786  0.49021  Biso   1.000  C
  C70      1.0000 0.65570  0.84558  0.55879  Biso   1.000  C
  N48      1.0000 0.77720  0.94882  0.63171  Biso   1.000  N
  H65      1.0000 0.87132  0.98873  0.71101  Biso   1.000  H
  H66      1.0000 0.76125  0.05190  0.69331  Biso   1.000  H
  C71      1.0000 0.66764  0.95183  0.59179  Biso   1.000  C
  C72      1.0000 0.82584  0.85415  0.62669  Biso   1.000  C
  O23      1.0000 0.60627  0.03460  0.44382  Biso   1.000  O
  H67      1.0000 0.59554  0.80344  0.56610  Biso   1.000  H
  H68      1.0000 0.61251  0.95834  0.61432  Biso   1.000  H
  O24      1.0000 0.91592  0.82685  0.65646  Biso   1.000  O
