data_image0
_cell_length_a       9.224
_cell_length_b       12.949
_cell_length_c       14.548
_cell_angle_alpha    66.66
_cell_angle_beta     85.29
_cell_angle_gamma    72.48

_symmetry_space_group_name_H-M    "P 1"
_symmetry_int_tables_number       1

loop_
  _symmetry_equiv_pos_as_xyz
  'x, y, z'

loop_
  _atom_site_label
  _atom_site_occupancy
  _atom_site_fract_x
  _atom_site_fract_y
  _atom_site_fract_z
  _atom_site_thermal_displace_type
  _atom_site_B_iso_or_equiv
  _atom_site_type_symbol
  C1       1.0000 0.60601  0.50466  0.59930  Biso   1.000  C
  O1       1.0000 0.70120  0.43166  0.55457  Biso   1.000  O
  C2       1.0000 0.55895  0.45291  0.69462  Biso   1.000  C
  C3       1.0000 0.55459  0.62340  0.54528  Biso   1.000  C
  C4       1.0000 0.85057  0.39646  0.57585  Biso   1.000  C
  O2       1.0000 0.61774  0.33642  0.75134  Biso   1.000  O
  C5       1.0000 0.45708  0.52597  0.73463  Biso   1.000  C
  C6       1.0000 0.45293  0.69460  0.58724  Biso   1.000  C
  H1       1.0000 0.58742  0.65626  0.48091  Biso   1.000  H
  N1       1.0000 0.90532  0.44113  0.62763  Biso   1.000  N
  N2       1.0000 0.92893  0.31828  0.53816  Biso   1.000  N
  C7       1.0000 0.52829  0.26369  0.75524  Biso   1.000  C
  C8       1.0000 0.56211  0.25733  0.72744  Biso   1.000  C
  O3       1.0000 0.39980  0.47261  0.82867  Biso   1.000  O
  C9       1.0000 0.40392  0.64477  0.68293  Biso   1.000  C
  C10      1.0000 0.39989  0.82478  0.53261  Biso   1.000  C
  C11      1.0000 0.05434  0.39966  0.64194  Biso   1.000  C
  C12      1.0000 0.07645  0.28707  0.55817  Biso   1.000  C
  H2       1.0000 0.43732  0.27995  0.79180  Biso   1.000  H
  H3       1.0000 0.49800  0.27745  0.68802  Biso   1.000  H
  C13      1.0000 0.62526  0.13760  0.80799  Biso   1.000  C
  C14      1.0000 0.55802  0.15145  0.82492  Biso   1.000  C
  H4       1.0000 0.46019  0.29740  0.69641  Biso   1.000  H
  H5       1.0000 0.62746  0.23093  0.68068  Biso   1.000  H
  C15      1.0000 0.49844  0.42033  0.90817  Biso   1.000  C
  H6       1.0000 0.33571  0.69169  0.71163  Biso   1.000  H
  O4       1.0000 0.33942  0.89156  0.57150  Biso   1.000  O
  O5       1.0000 0.43115  0.85819  0.43670  Biso   1.000  O
  O6       1.0000 0.12504  0.43811  0.69297  Biso   1.000  O
  N3       1.0000 0.14938  0.32288  0.60897  Biso   1.000  N
  Cl1      1.0000 0.18751  0.18595  0.51366  Biso   1.000  Cl
  H7       1.0000 0.72565  0.11892  0.78940  Biso   1.000  H
  C16      1.0000 0.58340  0.05633  0.87408  Biso   1.000  C
  C17      1.0000 0.67303  0.10446  0.89131  Biso   1.000  C
  H8       1.0000 0.47616  0.12088  0.83684  Biso   1.000  H
  N4       1.0000 0.62626  0.44848  0.90083  Biso   1.000  N
  N5       1.0000 0.45002  0.34595  0.98820  Biso   1.000  N
  C18      1.0000 0.39843  0.98333  0.37983  Biso   1.000  C
  C19      1.0000 0.03715  0.49430  0.75299  Biso   1.000  C
  H9       1.0000 0.48392  0.07080  0.89513  Biso   1.000  H
  H10      1.0000 0.65154  0.98140  0.90218  Biso   1.000  H
  H11      1.0000 0.75476  0.13545  0.87902  Biso   1.000  H
  H12      1.0000 0.67215  0.04045  0.95051  Biso   1.000  H
  C20      1.0000 0.71217  0.39169  0.98453  Biso   1.000  C
  C21      1.0000 0.54922  0.29702  0.06500  Biso   1.000  C
  H13      1.0000 0.40760  0.99851  0.30969  Biso   1.000  H
  H14      1.0000 0.46924  0.01217  0.40028  Biso   1.000  H
  H15      1.0000 0.29679  0.02250  0.39137  Biso   1.000  H
  C22      1.0000 0.97207  0.42888  0.83609  Biso   1.000  C
  C23      1.0000 0.03076  0.60853  0.73261  Biso   1.000  C
  O7       1.0000 0.84272  0.41438  0.98820  Biso   1.000  O
  N6       1.0000 0.68160  0.31461  0.07025  Biso   1.000  N
  Cl2      1.0000 0.49931  0.19837  0.17283  Biso   1.000  Cl
  O8       1.0000 0.97553  0.31670  0.85235  Biso   1.000  O
  C24      1.0000 0.89677  0.48342  0.89880  Biso   1.000  C
  C25      1.0000 0.95611  0.66000  0.79780  Biso   1.000  C
  H16      1.0000 0.07562  0.65071  0.67633  Biso   1.000  H
  C26      1.0000 0.11091  0.22648  0.90248  Biso   1.000  C
  C27      1.0000 0.09609  0.22725  0.92233  Biso   1.000  C
  C28      1.0000 0.88921  0.59719  0.88067  Biso   1.000  C
  C29      1.0000 0.95070  0.78158  0.78274  Biso   1.000  C
  H17      1.0000 0.19853  0.23909  0.86284  Biso   1.000  H
  H18      1.0000 0.12668  0.22761  0.96707  Biso   1.000  H
  C30      1.0000 0.09114  0.11011  0.91589  Biso   1.000  C
  C31      1.0000 0.13408  0.11893  0.89543  Biso   1.000  C
  H19      1.0000 0.18435  0.25461  0.91671  Biso   1.000  H
  H20      1.0000 0.06209  0.20809  0.99037  Biso   1.000  H
  H21      1.0000 0.83916  0.63174  0.92413  Biso   1.000  H
  O9       1.0000 0.88812  0.82996  0.83684  Biso   1.000  O
  O10      1.0000 0.02169  0.83094  0.70218  Biso   1.000  O
  H22      1.0000 0.01700  0.08492  0.95860  Biso   1.000  H
  C32      1.0000 0.17053  0.04262  0.87220  Biso   1.000  C
  C33      1.0000 0.02855  0.10355  0.84972  Biso   1.000  C
  H23      1.0000 0.23039  0.06481  0.91102  Biso   1.000  H
  C34      1.0000 0.02979  0.94729  0.68353  Biso   1.000  C
  H24      1.0000 0.15225  0.97170  0.88397  Biso   1.000  H
  H25      1.0000 0.24576  0.06513  0.82897  Biso   1.000  H
  H26      1.0000 0.05082  0.03825  0.83301  Biso   1.000  H
  H27      1.0000 0.93243  0.15796  0.83421  Biso   1.000  H
  H28      1.0000 0.95302  0.98240  0.71979  Biso   1.000  H
  H29      1.0000 0.12831  0.94176  0.70511  Biso   1.000  H
  H30      1.0000 0.01333  0.99500  0.61309  Biso   1.000  H
  C35      1.0000 0.39403  0.49529  0.40073  Biso   1.000  C
  O11      1.0000 0.29884  0.56833  0.44539  Biso   1.000  O
  C36      1.0000 0.44109  0.54705  0.30542  Biso   1.000  C
  C37      1.0000 0.44545  0.37659  0.45468  Biso   1.000  C
  C38      1.0000 0.14948  0.60349  0.42419  Biso   1.000  C
  C39      1.0000 0.54285  0.47399  0.26541  Biso   1.000  C
  O12      1.0000 0.38230  0.66354  0.24870  Biso   1.000  O
  C40      1.0000 0.54711  0.30536  0.41280  Biso   1.000  C
  H31      1.0000 0.41263  0.34370  0.51913  Biso   1.000  H
  N7       1.0000 0.09472  0.55886  0.37234  Biso   1.000  N
  N8       1.0000 0.07112  0.68167  0.46188  Biso   1.000  N
  O13      1.0000 0.60023  0.52738  0.17129  Biso   1.000  O
  C41      1.0000 0.59612  0.35518  0.31711  Biso   1.000  C
  C42      1.0000 0.47176  0.73627  0.24480  Biso   1.000  C
  C43      1.0000 0.43793  0.74262  0.27260  Biso   1.000  C
  C44      1.0000 0.60015  0.17517  0.46742  Biso   1.000  C
  C45      1.0000 0.94570  0.60030  0.35810  Biso   1.000  C
  C46      1.0000 0.92359  0.71292  0.44180  Biso   1.000  C
  C47      1.0000 0.50156  0.57974  0.09179  Biso   1.000  C
  H32      1.0000 0.66433  0.30827  0.28841  Biso   1.000  H
  H33      1.0000 0.56261  0.72001  0.20823  Biso   1.000  H
  H34      1.0000 0.50193  0.72251  0.31202  Biso   1.000  H
  C48      1.0000 0.37478  0.86239  0.19197  Biso   1.000  C
  C49      1.0000 0.44191  0.84851  0.17512  Biso   1.000  C
  H35      1.0000 0.53986  0.70255  0.30362  Biso   1.000  H
  H36      1.0000 0.37255  0.76914  0.31928  Biso   1.000  H
  O14      1.0000 0.66062  0.10840  0.42853  Biso   1.000  O
  O15      1.0000 0.56888  0.14180  0.56326  Biso   1.000  O
  O16      1.0000 0.87496  0.56196  0.30699  Biso   1.000  O
  N9       1.0000 0.85055  0.67708  0.39107  Biso   1.000  N
  Cl3      1.0000 0.81250  0.81413  0.48631  Biso   1.000  Cl
  N10      1.0000 0.37378  0.55147  0.09921  Biso   1.000  N
  N11      1.0000 0.55003  0.65401  0.01184  Biso   1.000  N
  H37      1.0000 0.27435  0.88112  0.21063  Biso   1.000  H
  C50      1.0000 0.41661  0.94374  0.12589  Biso   1.000  C
  C51      1.0000 0.32690  0.89549  0.10873  Biso   1.000  C
  H38      1.0000 0.52388  0.87908  0.16320  Biso   1.000  H
  C52      1.0000 0.60158  0.01671  0.62021  Biso   1.000  C
  C53      1.0000 0.96289  0.50569  0.24697  Biso   1.000  C
  C54      1.0000 0.28787  0.60827  0.01551  Biso   1.000  C
  C55      1.0000 0.45082  0.70298  0.93496  Biso   1.000  C
  H39      1.0000 0.51598  0.92924  0.10490  Biso   1.000  H
  H40      1.0000 0.34850  0.01859  0.09779  Biso   1.000  H
  H41      1.0000 0.24528  0.86451  0.12101  Biso   1.000  H
  H42      1.0000 0.32790  0.95951  0.04953  Biso   1.000  H
  H43      1.0000 0.59233  0.00148  0.69027  Biso   1.000  H
  H44      1.0000 0.53080  0.98782  0.59968  Biso   1.000  H
  H45      1.0000 0.70324  0.97749  0.60859  Biso   1.000  H
  C56      1.0000 0.96914  0.39151  0.26743  Biso   1.000  C
  C57      1.0000 0.02796  0.57112  0.16388  Biso   1.000  C
  O17      1.0000 0.15732  0.58561  0.01176  Biso   1.000  O
  N12      1.0000 0.31841  0.68543  0.92979  Biso   1.000  N
  Cl4      1.0000 0.50073  0.80158  0.82721  Biso   1.000  Cl
  C58      1.0000 0.04392  0.33999  0.20217  Biso   1.000  C
  H46      1.0000 0.92439  0.34932  0.32370  Biso   1.000  H
  C59      1.0000 0.10323  0.51661  0.10123  Biso   1.000  C
  O18      1.0000 0.02440  0.68329  0.14762  Biso   1.000  O
  C60      1.0000 0.11083  0.40281  0.11929  Biso   1.000  C
  C61      1.0000 0.04935  0.21837  0.21730  Biso   1.000  C
  C62      1.0000 0.88912  0.77351  0.09749  Biso   1.000  C
  C63      1.0000 0.90395  0.77271  0.07770  Biso   1.000  C
  H47      1.0000 0.16088  0.36822  0.07591  Biso   1.000  H
  O19      1.0000 0.11192  0.16999  0.16320  Biso   1.000  O
  O20      1.0000 0.97832  0.16913  0.29778  Biso   1.000  O
  H48      1.0000 0.80151  0.76087  0.13720  Biso   1.000  H
  H49      1.0000 0.87336  0.77238  0.03289  Biso   1.000  H
  C64      1.0000 0.90886  0.88996  0.08407  Biso   1.000  C
  C65      1.0000 0.86597  0.88103  0.10460  Biso   1.000  C
  H50      1.0000 0.81566  0.74543  0.08332  Biso   1.000  H
  H51      1.0000 0.93794  0.79190  0.00959  Biso   1.000  H
  C66      1.0000 0.97025  0.05267  0.31651  Biso   1.000  C
  H52      1.0000 0.98300  0.91512  0.04144  Biso   1.000  H
  C67      1.0000 0.82948  0.95742  0.12783  Biso   1.000  C
  C68      1.0000 0.97139  0.89641  0.15031  Biso   1.000  C
  H53      1.0000 0.76962  0.93523  0.08902  Biso   1.000  H
  H54      1.0000 0.04702  0.01760  0.28017  Biso   1.000  H
  H55      1.0000 0.87173  0.05820  0.29493  Biso   1.000  H
  H56      1.0000 0.98671  0.00499  0.38687  Biso   1.000  H
  H57      1.0000 0.75425  0.93494  0.17099  Biso   1.000  H
  H58      1.0000 0.94922  0.96171  0.16702  Biso   1.000  H
  H59      1.0000 0.84779  0.02829  0.11599  Biso   1.000  H
  H60      1.0000 0.06751  0.84200  0.16582  Biso   1.000  H
