data_image0
_cell_length_a       10.738
_cell_length_b       17.845
_cell_length_c       22.437
_cell_angle_alpha    90
_cell_angle_beta     97.87
_cell_angle_gamma    90

_symmetry_space_group_name_H-M    "P 1"
_symmetry_int_tables_number       1

loop_
  _symmetry_equiv_pos_as_xyz
  'x, y, z'

loop_
  _atom_site_label
  _atom_site_occupancy
  _atom_site_fract_x
  _atom_site_fract_y
  _atom_site_fract_z
  _atom_site_thermal_displace_type
  _atom_site_B_iso_or_equiv
  _atom_site_type_symbol
  C1       1.0000 0.67309  0.59731  0.54671  Biso   1.000  C
  C2       1.0000 0.76702  0.65127  0.58176  Biso   1.000  C
  H1       1.0000 0.59076  0.60291  0.56039  Biso   1.000  H
  H2       1.0000 0.66578  0.60880  0.50361  Biso   1.000  H
  H3       1.0000 0.70262  0.54570  0.55359  Biso   1.000  H
  C3       1.0000 0.77563  0.63867  0.64992  Biso   1.000  C
  C4       1.0000 0.89749  0.63850  0.56255  Biso   1.000  C
  C5       1.0000 0.72436  0.73158  0.56579  Biso   1.000  C
  C6       1.0000 0.84997  0.68557  0.69037  Biso   1.000  C
  C7       1.0000 0.70991  0.58190  0.67445  Biso   1.000  C
  H4       1.0000 0.89371  0.64870  0.51940  Biso   1.000  H
  H5       1.0000 0.95858  0.67218  0.58531  Biso   1.000  H
  H6       1.0000 0.92329  0.58638  0.57069  Biso   1.000  H
  H7       1.0000 0.64005  0.73948  0.57672  Biso   1.000  H
  H8       1.0000 0.78311  0.76699  0.58788  Biso   1.000  H
  H9       1.0000 0.72257  0.73959  0.52241  Biso   1.000  H
  C8       1.0000 0.85570  0.67543  0.75143  Biso   1.000  C
  H10      1.0000 0.89693  0.72480  0.67548  Biso   1.000  H
  H11      1.0000 0.65797  0.54912  0.64848  Biso   1.000  H
  C9       1.0000 0.71901  0.57243  0.73618  Biso   1.000  C
  O1       1.0000 0.91909  0.72906  0.79003  Biso   1.000  O
  C10      1.0000 0.79109  0.61849  0.77653  Biso   1.000  C
  O2       1.0000 0.64357  0.51712  0.75863  Biso   1.000  O
  C11      1.0000 0.03125  0.71168  0.82108  Biso   1.000  C
  O3       1.0000 0.80104  0.61250  0.83736  Biso   1.000  O
  C12      1.0000 0.69574  0.44875  0.76943  Biso   1.000  C
  N1       1.0000 0.07986  0.64416  0.81392  Biso   1.000  N
  N2       1.0000 0.08093  0.76699  0.85608  Biso   1.000  N
  H12      1.0000 0.75948  0.57529  0.84641  Biso   1.000  H
  N3       1.0000 0.81840  0.44136  0.76979  Biso   1.000  N
  N4       1.0000 0.61283  0.39608  0.77910  Biso   1.000  N
  C13      1.0000 0.18950  0.63491  0.84821  Biso   1.000  C
  C14      1.0000 0.19332  0.75097  0.88695  Biso   1.000  C
  C15      1.0000 0.85791  0.37153  0.78256  Biso   1.000  C
  C16      1.0000 0.66428  0.32810  0.78999  Biso   1.000  C
  O4       1.0000 0.24842  0.56789  0.84713  Biso   1.000  O
  N5       1.0000 0.25217  0.68473  0.88528  Biso   1.000  N
  C17      1.0000 0.25862  0.81373  0.92510  Biso   1.000  C
  O5       1.0000 0.98045  0.35567  0.78612  Biso   1.000  O
  N6       1.0000 0.78710  0.31258  0.79255  Biso   1.000  N
  C18      1.0000 0.57733  0.26332  0.79989  Biso   1.000  C
  C19      1.0000 0.19667  0.51454  0.80362  Biso   1.000  C
  C20      1.0000 0.28886  0.87515  0.88236  Biso   1.000  C
  C21      1.0000 0.37967  0.78672  0.96312  Biso   1.000  C
  C22      1.0000 0.16953  0.84405  0.96753  Biso   1.000  C
  C23      1.0000 0.37818  0.83530  0.89608  Biso   1.000  C
  C24      1.0000 0.29075  0.78778  0.98661  Biso   1.000  C
  C25      1.0000 0.17480  0.88439  0.92281  Biso   1.000  C
  C26      1.0000 0.06447  0.41272  0.77316  Biso   1.000  C
  C27      1.0000 0.58143  0.20717  0.74877  Biso   1.000  C
  C28      1.0000 0.44235  0.29050  0.80007  Biso   1.000  C
  C29      1.0000 0.62440  0.22690  0.86022  Biso   1.000  C
  C30      1.0000 0.10494  0.46534  0.81761  Biso   1.000  C
  C31      1.0000 0.24860  0.51023  0.75044  Biso   1.000  C
  H13      1.0000 0.34110  0.85453  0.85370  Biso   1.000  H
  H14      1.0000 0.21059  0.89482  0.86040  Biso   1.000  H
  H15      1.0000 0.33447  0.91572  0.90539  Biso   1.000  H
  H16      1.0000 0.35374  0.84651  0.85329  Biso   1.000  H
  H17      1.0000 0.36042  0.74491  0.98859  Biso   1.000  H
  H18      1.0000 0.43961  0.77019  0.93662  Biso   1.000  H
  H19      1.0000 0.41666  0.82791  0.98859  Biso   1.000  H
  H20      1.0000 0.34181  0.74222  0.98701  Biso   1.000  H
  H21      1.0000 0.20859  0.88720  0.98980  Biso   1.000  H
  H22      1.0000 0.09023  0.85962  0.94391  Biso   1.000  H
  H23      1.0000 0.15316  0.80471  0.99592  Biso   1.000  H
  H24      1.0000 0.09291  0.87111  0.93441  Biso   1.000  H
  H25      1.0000 0.43769  0.79333  0.90031  Biso   1.000  H
  H26      1.0000 0.41802  0.87952  0.91651  Biso   1.000  H
  H27      1.0000 0.33860  0.82673  0.01063  Biso   1.000  H
  H28      1.0000 0.21353  0.77691  0.00379  Biso   1.000  H
  H29      1.0000 0.21535  0.92222  0.95061  Biso   1.000  H
  H30      1.0000 0.16308  0.90468  0.88182  Biso   1.000  H
  C32      1.0000 0.11171  0.40846  0.71921  Biso   1.000  C
  H31      1.0000 0.66815  0.19008  0.74850  Biso   1.000  H
  H32      1.0000 0.52784  0.16408  0.75480  Biso   1.000  H
  H33      1.0000 0.55105  0.23133  0.71030  Biso   1.000  H
  H34      1.0000 0.41177  0.31370  0.76119  Biso   1.000  H
  H35      1.0000 0.38859  0.24791  0.80681  Biso   1.000  H
  H36      1.0000 0.44021  0.32737  0.83228  Biso   1.000  H
  H37      1.0000 0.62943  0.26478  0.89212  Biso   1.000  H
  H38      1.0000 0.56595  0.18722  0.86850  Biso   1.000  H
  H39      1.0000 0.70784  0.20532  0.85892  Biso   1.000  H
  O6       1.0000 0.05207  0.46388  0.86882  Biso   1.000  O
  C33      1.0000 0.20676  0.45716  0.70671  Biso   1.000  C
  H40      1.0000 0.31363  0.54402  0.74369  Biso   1.000  H
  H41      1.0000 0.07948  0.37209  0.69019  Biso   1.000  H
  H42      1.0000 0.09095  0.49330  0.89401  Biso   1.000  H
  C34      1.0000 0.25820  0.45105  0.64628  Biso   1.000  C
  C35      1.0000 0.27554  0.36845  0.63040  Biso   1.000  C
  C36      1.0000 0.16356  0.48523  0.59773  Biso   1.000  C
  C37      1.0000 0.38300  0.49022  0.64794  Biso   1.000  C
  H43      1.0000 0.33174  0.34419  0.66279  Biso   1.000  H
  H44      1.0000 0.19374  0.34318  0.62540  Biso   1.000  H
  H45      1.0000 0.31227  0.36520  0.59278  Biso   1.000  H
  H46      1.0000 0.19548  0.48182  0.55890  Biso   1.000  H
  H47      1.0000 0.08386  0.45800  0.59548  Biso   1.000  H
  H48      1.0000 0.15029  0.53791  0.60732  Biso   1.000  H
  H49      1.0000 0.37102  0.54430  0.65199  Biso   1.000  H
  H50      1.0000 0.44116  0.47178  0.68232  Biso   1.000  H
  H51      1.0000 0.41767  0.47991  0.61060  Biso   1.000  H
  C38      1.0000 0.32703  0.40269  0.45330  Biso   1.000  C
  C39      1.0000 0.23309  0.34873  0.41826  Biso   1.000  C
  H52      1.0000 0.40934  0.39709  0.43958  Biso   1.000  H
  H53      1.0000 0.33433  0.39120  0.49641  Biso   1.000  H
  H54      1.0000 0.29740  0.45430  0.44642  Biso   1.000  H
  C40      1.0000 0.22449  0.36133  0.35009  Biso   1.000  C
  C41      1.0000 0.10263  0.36150  0.43747  Biso   1.000  C
  C42      1.0000 0.27575  0.26842  0.43423  Biso   1.000  C
  C43      1.0000 0.15015  0.31443  0.30964  Biso   1.000  C
  C44      1.0000 0.29020  0.41816  0.32557  Biso   1.000  C
  H55      1.0000 0.10631  0.35130  0.48062  Biso   1.000  H
  H56      1.0000 0.04154  0.32782  0.41470  Biso   1.000  H
  H57      1.0000 0.07681  0.41362  0.42928  Biso   1.000  H
  H58      1.0000 0.36007  0.26052  0.42329  Biso   1.000  H
  H59      1.0000 0.21690  0.23301  0.41209  Biso   1.000  H
  H60      1.0000 0.27755  0.26041  0.47760  Biso   1.000  H
  C45      1.0000 0.14440  0.32463  0.24854  Biso   1.000  C
  H61      1.0000 0.10308  0.27520  0.32449  Biso   1.000  H
  C46      1.0000 0.28102  0.42757  0.26384  Biso   1.000  C
  H62      1.0000 0.34213  0.45088  0.35149  Biso   1.000  H
  O7       1.0000 0.08102  0.27094  0.20994  Biso   1.000  O
  C47      1.0000 0.20903  0.38151  0.22348  Biso   1.000  C
  O8       1.0000 0.35655  0.48288  0.24139  Biso   1.000  O
  C48      1.0000 0.96886  0.28832  0.17889  Biso   1.000  C
  O9       1.0000 0.19908  0.38750  0.16265  Biso   1.000  O
  C49      1.0000 0.30438  0.55125  0.23059  Biso   1.000  C
  N7       1.0000 0.92016  0.35590  0.18609  Biso   1.000  N
  N8       1.0000 0.91917  0.23301  0.14389  Biso   1.000  N
  H63      1.0000 0.24063  0.42471  0.15361  Biso   1.000  H
  N9       1.0000 0.18172  0.55864  0.23023  Biso   1.000  N
  N10      1.0000 0.38729  0.60398  0.22092  Biso   1.000  N
  C50      1.0000 0.81051  0.36509  0.15176  Biso   1.000  C
  C51      1.0000 0.80680  0.24903  0.11307  Biso   1.000  C
  C52      1.0000 0.14221  0.62847  0.21745  Biso   1.000  C
  C53      1.0000 0.33583  0.67190  0.20998  Biso   1.000  C
  O10      1.0000 0.75168  0.43211  0.15284  Biso   1.000  O
  N11      1.0000 0.74795  0.31527  0.11473  Biso   1.000  N
  C54      1.0000 0.74148  0.18627  0.07487  Biso   1.000  C
  O11      1.0000 0.01966  0.64433  0.21390  Biso   1.000  O
  N12      1.0000 0.21292  0.68742  0.20746  Biso   1.000  N
  C55      1.0000 0.42269  0.73668  0.20013  Biso   1.000  C
  C56      1.0000 0.80344  0.48546  0.19639  Biso   1.000  C
  C57      1.0000 0.71126  0.12485  0.11766  Biso   1.000  C
  C58      1.0000 0.62043  0.21328  0.03685  Biso   1.000  C
  C59      1.0000 0.83048  0.15595  0.03244  Biso   1.000  C
  C60      1.0000 0.62192  0.16470  0.10389  Biso   1.000  C
  C61      1.0000 0.70927  0.21222  0.01341  Biso   1.000  C
  C62      1.0000 0.82531  0.11561  0.07721  Biso   1.000  C
  C63      1.0000 0.93563  0.58728  0.22681  Biso   1.000  C
  C64      1.0000 0.41858  0.79283  0.25120  Biso   1.000  C
  C65      1.0000 0.55775  0.70950  0.19990  Biso   1.000  C
  C66      1.0000 0.37572  0.77310  0.13979  Biso   1.000  C
  C67      1.0000 0.89516  0.53466  0.18236  Biso   1.000  C
  C68      1.0000 0.75151  0.48977  0.24958  Biso   1.000  C
  H64      1.0000 0.65902  0.14547  0.14632  Biso   1.000  H
  H65      1.0000 0.78953  0.10518  0.13961  Biso   1.000  H
  H66      1.0000 0.66564  0.08428  0.09462  Biso   1.000  H
  H67      1.0000 0.64637  0.15349  0.14672  Biso   1.000  H
  H68      1.0000 0.63969  0.25509  0.01138  Biso   1.000  H
  H69      1.0000 0.56051  0.22981  0.06340  Biso   1.000  H
  H70      1.0000 0.58344  0.17209  0.01138  Biso   1.000  H
  H71      1.0000 0.65831  0.25778  0.01300  Biso   1.000  H
  H72      1.0000 0.79152  0.11280  0.01021  Biso   1.000  H
  H73      1.0000 0.90979  0.14038  0.05611  Biso   1.000  H
  H74      1.0000 0.84695  0.19529  0.00409  Biso   1.000  H
  H75      1.0000 0.90720  0.12889  0.06560  Biso   1.000  H
  H76      1.0000 0.56242  0.20672  0.09970  Biso   1.000  H
  H77      1.0000 0.58210  0.12048  0.08351  Biso   1.000  H
  H78      1.0000 0.66142  0.17333  0.98938  Biso   1.000  H
  H79      1.0000 0.78658  0.22309  0.99618  Biso   1.000  H
  H80      1.0000 0.78476  0.07778  0.04940  Biso   1.000  H
  H81      1.0000 0.83704  0.09532  0.11820  Biso   1.000  H
  C69      1.0000 0.88840  0.59154  0.28080  Biso   1.000  C
  H82      1.0000 0.33197  0.80992  0.25151  Biso   1.000  H
  H83      1.0000 0.47219  0.83592  0.24521  Biso   1.000  H
  H84      1.0000 0.44906  0.76873  0.28971  Biso   1.000  H
  H85      1.0000 0.58834  0.68630  0.23878  Biso   1.000  H
  H86      1.0000 0.61152  0.75209  0.19320  Biso   1.000  H
  H87      1.0000 0.55990  0.67263  0.16769  Biso   1.000  H
  H88      1.0000 0.37069  0.73522  0.10789  Biso   1.000  H
  H89      1.0000 0.43416  0.81278  0.13151  Biso   1.000  H
  H90      1.0000 0.29218  0.79473  0.14110  Biso   1.000  H
  O12      1.0000 0.94804  0.53612  0.13120  Biso   1.000  O
  C70      1.0000 0.79336  0.54284  0.29331  Biso   1.000  C
  H91      1.0000 0.68638  0.45598  0.25628  Biso   1.000  H
  H92      1.0000 0.92064  0.62791  0.30982  Biso   1.000  H
  H93      1.0000 0.90917  0.50670  0.10600  Biso   1.000  H
  C71      1.0000 0.74181  0.54895  0.35369  Biso   1.000  C
  C72      1.0000 0.72458  0.63155  0.36962  Biso   1.000  C
  C73      1.0000 0.83655  0.51477  0.40228  Biso   1.000  C
  C74      1.0000 0.61712  0.50978  0.35207  Biso   1.000  C
  H94      1.0000 0.66836  0.65581  0.33718  Biso   1.000  H
  H95      1.0000 0.80638  0.65682  0.37461  Biso   1.000  H
  H96      1.0000 0.68783  0.63480  0.40719  Biso   1.000  H
  H97      1.0000 0.80464  0.51818  0.44111  Biso   1.000  H
  H98      1.0000 0.91625  0.54200  0.40449  Biso   1.000  H
  H99      1.0000 0.84983  0.46209  0.39270  Biso   1.000  H
  H100     1.0000 0.62900  0.45570  0.34802  Biso   1.000  H
  H101     1.0000 0.55895  0.52822  0.31770  Biso   1.000  H
  H102     1.0000 0.58245  0.52009  0.38941  Biso   1.000  H
  C75      1.0000 0.16952  0.65598  0.46752  Biso   1.000  C
  C76      1.0000 0.25862  0.68624  0.42514  Biso   1.000  C
  C77      1.0000 0.29074  0.71219  0.48660  Biso   1.000  C
  C78      1.0000 0.17470  0.61558  0.42280  Biso   1.000  C
  H103     1.0000 0.20858  0.61278  0.48979  Biso   1.000  H
  H104     1.0000 0.09022  0.64040  0.44390  Biso   1.000  H
  H105     1.0000 0.15315  0.69532  0.49591  Biso   1.000  H
  H106     1.0000 0.09281  0.62892  0.43441  Biso   1.000  H
  C79      1.0000 0.19331  0.74906  0.38694  Biso   1.000  C
  C80      1.0000 0.28885  0.62488  0.38235  Biso   1.000  C
  C81      1.0000 0.37966  0.71325  0.46311  Biso   1.000  C
  C82      1.0000 0.37819  0.66472  0.39612  Biso   1.000  C
  H107     1.0000 0.36031  0.75511  0.48858  Biso   1.000  H
  H108     1.0000 0.34170  0.75780  0.48700  Biso   1.000  H
  H109     1.0000 0.33867  0.67330  0.51058  Biso   1.000  H
  H110     1.0000 0.21352  0.72312  0.50379  Biso   1.000  H
  H111     1.0000 0.21534  0.57781  0.45061  Biso   1.000  H
  H112     1.0000 0.16307  0.59529  0.38181  Biso   1.000  H
  N13      1.0000 0.08093  0.73298  0.35612  Biso   1.000  N
  N14      1.0000 0.25216  0.81530  0.38528  Biso   1.000  N
  H113     1.0000 0.34100  0.64550  0.35369  Biso   1.000  H
  H114     1.0000 0.21049  0.60521  0.36039  Biso   1.000  H
  H115     1.0000 0.33446  0.58431  0.40539  Biso   1.000  H
  H116     1.0000 0.35373  0.65352  0.35329  Biso   1.000  H
  H117     1.0000 0.43950  0.72978  0.43661  Biso   1.000  H
  H118     1.0000 0.41665  0.67212  0.48858  Biso   1.000  H
  H119     1.0000 0.43768  0.70670  0.40030  Biso   1.000  H
  H120     1.0000 0.41792  0.62051  0.41650  Biso   1.000  H
  C83      1.0000 0.03123  0.78829  0.32107  Biso   1.000  C
  C84      1.0000 0.18949  0.86506  0.34820  Biso   1.000  C
  O13      1.0000 0.91909  0.77097  0.29007  Biso   1.000  O
  N15      1.0000 0.07985  0.85587  0.31392  Biso   1.000  N
  O14      1.0000 0.24841  0.93208  0.34712  Biso   1.000  O
  C85      1.0000 0.85560  0.82460  0.25142  Biso   1.000  C
  C86      1.0000 0.19666  0.98549  0.30361  Biso   1.000  C
  C87      1.0000 0.84996  0.81446  0.19037  Biso   1.000  C
  C88      1.0000 0.79098  0.88154  0.27653  Biso   1.000  C
  C89      1.0000 0.24850  0.98975  0.25043  Biso   1.000  C
  C90      1.0000 0.10494  0.03469  0.31765  Biso   1.000  C
  C91      1.0000 0.77552  0.86136  0.14992  Biso   1.000  C
  H121     1.0000 0.89693  0.77523  0.17552  Biso   1.000  H
  C92      1.0000 0.71899  0.92760  0.23617  Biso   1.000  C
  O15      1.0000 0.80103  0.88753  0.33736  Biso   1.000  O
  H122     1.0000 0.31362  0.95601  0.24368  Biso   1.000  H
  C93      1.0000 0.20665  0.04287  0.20670  Biso   1.000  C
  C94      1.0000 0.06438  0.08731  0.27320  Biso   1.000  C
  O16      1.0000 0.05206  0.03614  0.36881  Biso   1.000  O
  C95      1.0000 0.76692  0.84875  0.08175  Biso   1.000  C
  C96      1.0000 0.70981  0.91813  0.17444  Biso   1.000  C
  O17      1.0000 0.64356  0.98285  0.25862  Biso   1.000  O
  H123     1.0000 0.75947  0.92468  0.34640  Biso   1.000  H
  C97      1.0000 0.11170  0.09157  0.21921  Biso   1.000  C
  C98      1.0000 0.25818  0.04892  0.14627  Biso   1.000  C
  O18      1.0000 0.98035  0.14430  0.28611  Biso   1.000  O
  H124     1.0000 0.09094  0.00672  0.39400  Biso   1.000  H
  C99      1.0000 0.72435  0.76839  0.06578  Biso   1.000  C
  C100     1.0000 0.67298  0.90272  0.04670  Biso   1.000  C
  C101     1.0000 0.89739  0.86153  0.06254  Biso   1.000  C
  H125     1.0000 0.65797  0.95091  0.14852  Biso   1.000  H
  C102     1.0000 0.69573  0.05127  0.26942  Biso   1.000  C
  H126     1.0000 0.07937  0.12788  0.19019  Biso   1.000  H
  C103     1.0000 0.27552  0.13152  0.13039  Biso   1.000  C
  C104     1.0000 0.16355  0.01479  0.09772  Biso   1.000  C
  C105     1.0000 0.38289  0.00981  0.14794  Biso   1.000  C
  C106     1.0000 0.85789  0.12844  0.28256  Biso   1.000  C
  H127     1.0000 0.64003  0.76049  0.07671  Biso   1.000  H
  H128     1.0000 0.78312  0.73298  0.08792  Biso   1.000  H
  H129     1.0000 0.72256  0.76038  0.02241  Biso   1.000  H
  H130     1.0000 0.59075  0.89711  0.06038  Biso   1.000  H
  H131     1.0000 0.66568  0.89123  0.00360  Biso   1.000  H
  H132     1.0000 0.70261  0.95433  0.05359  Biso   1.000  H
  H133     1.0000 0.89370  0.85133  0.01939  Biso   1.000  H
  H134     1.0000 0.95857  0.82779  0.08531  Biso   1.000  H
  H135     1.0000 0.92318  0.91359  0.07068  Biso   1.000  H
  N16      1.0000 0.81829  0.05862  0.26978  Biso   1.000  N
  N17      1.0000 0.61282  0.10395  0.27909  Biso   1.000  N
  H136     1.0000 0.33173  0.15579  0.16278  Biso   1.000  H
  H137     1.0000 0.19373  0.15679  0.12540  Biso   1.000  H
  H138     1.0000 0.31218  0.13483  0.09282  Biso   1.000  H
  H139     1.0000 0.15018  0.96212  0.10731  Biso   1.000  H
  H140     1.0000 0.19538  0.01821  0.05890  Biso   1.000  H
  H141     1.0000 0.08386  0.04197  0.09552  Biso   1.000  H
  H142     1.0000 0.37101  0.95573  0.15199  Biso   1.000  H
  H143     1.0000 0.44115  0.02819  0.18231  Biso   1.000  H
  H144     1.0000 0.41765  0.02012  0.11059  Biso   1.000  H
  N18      1.0000 0.78709  0.18745  0.29254  Biso   1.000  N
  C107     1.0000 0.66427  0.17187  0.28998  Biso   1.000  C
  C108     1.0000 0.57732  0.23670  0.29988  Biso   1.000  C
  C109     1.0000 0.58143  0.29280  0.24881  Biso   1.000  C
  C110     1.0000 0.44234  0.20947  0.30006  Biso   1.000  C
  C111     1.0000 0.62439  0.27307  0.36021  Biso   1.000  C
  H145     1.0000 0.66813  0.30989  0.24850  Biso   1.000  H
  H146     1.0000 0.52782  0.33589  0.25480  Biso   1.000  H
  H147     1.0000 0.55104  0.26870  0.21030  Biso   1.000  H
  H148     1.0000 0.41175  0.18633  0.26118  Biso   1.000  H
  H149     1.0000 0.38849  0.25212  0.30681  Biso   1.000  H
  H150     1.0000 0.44011  0.17260  0.33232  Biso   1.000  H
  H151     1.0000 0.62932  0.23519  0.39211  Biso   1.000  H
  H152     1.0000 0.56594  0.31280  0.36849  Biso   1.000  H
  H153     1.0000 0.70783  0.29470  0.35891  Biso   1.000  H
  C112     1.0000 0.83058  0.34402  0.53245  Biso   1.000  C
  C113     1.0000 0.74149  0.31376  0.57488  Biso   1.000  C
  C114     1.0000 0.70938  0.28781  0.51342  Biso   1.000  C
  C115     1.0000 0.82532  0.38442  0.57722  Biso   1.000  C
  H154     1.0000 0.79154  0.38722  0.51022  Biso   1.000  H
  H155     1.0000 0.90990  0.35960  0.55611  Biso   1.000  H
  H156     1.0000 0.84696  0.30468  0.50410  Biso   1.000  H
  H157     1.0000 0.90731  0.37108  0.56561  Biso   1.000  H
  C116     1.0000 0.80681  0.25094  0.61307  Biso   1.000  C
  C117     1.0000 0.71127  0.37518  0.61766  Biso   1.000  C
  C118     1.0000 0.62044  0.28675  0.53686  Biso   1.000  C
  C119     1.0000 0.62193  0.33528  0.60390  Biso   1.000  C
  H158     1.0000 0.63979  0.24489  0.51139  Biso   1.000  H
  H159     1.0000 0.65832  0.24220  0.51301  Biso   1.000  H
  H160     1.0000 0.66144  0.32670  0.48939  Biso   1.000  H
  H161     1.0000 0.78659  0.27688  0.49618  Biso   1.000  H
  H162     1.0000 0.78477  0.42219  0.54941  Biso   1.000  H
  H163     1.0000 0.83705  0.40471  0.61820  Biso   1.000  H
  N19      1.0000 0.91918  0.26702  0.64390  Biso   1.000  N
  N20      1.0000 0.74796  0.18470  0.61474  Biso   1.000  N
  H164     1.0000 0.65902  0.35450  0.64628  Biso   1.000  H
  H165     1.0000 0.78954  0.39479  0.63962  Biso   1.000  H
  H166     1.0000 0.66564  0.41569  0.59458  Biso   1.000  H
  H167     1.0000 0.64637  0.34648  0.64668  Biso   1.000  H
  H168     1.0000 0.56052  0.27022  0.56340  Biso   1.000  H
  H169     1.0000 0.58345  0.32788  0.51139  Biso   1.000  H
  H170     1.0000 0.56244  0.29330  0.59971  Biso   1.000  H
  H171     1.0000 0.58220  0.37949  0.58351  Biso   1.000  H
  C120     1.0000 0.96887  0.21171  0.67890  Biso   1.000  C
  C121     1.0000 0.81061  0.13494  0.65177  Biso   1.000  C
  O19      1.0000 0.08103  0.22903  0.70994  Biso   1.000  O
  N21      1.0000 0.92027  0.14413  0.68610  Biso   1.000  N
  O20      1.0000 0.75169  0.06792  0.65285  Biso   1.000  O
  C122     1.0000 0.14451  0.17540  0.74855  Biso   1.000  C
  C123     1.0000 0.80345  0.01451  0.69640  Biso   1.000  C
  C124     1.0000 0.20904  0.11846  0.72349  Biso   1.000  C
  C125     1.0000 0.15015  0.18560  0.80960  Biso   1.000  C
  C126     1.0000 0.89517  0.96531  0.68236  Biso   1.000  C
  C127     1.0000 0.75153  0.01025  0.74958  Biso   1.000  C
  O21      1.0000 0.19909  0.11247  0.66266  Biso   1.000  O
  C128     1.0000 0.28112  0.07240  0.76385  Biso   1.000  C
  H172     1.0000 0.10319  0.22482  0.82450  Biso   1.000  H
  C129     1.0000 0.22459  0.13869  0.85010  Biso   1.000  C
  C130     1.0000 0.93564  0.91269  0.72682  Biso   1.000  C
  O22      1.0000 0.94805  0.96391  0.63121  Biso   1.000  O
  C131     1.0000 0.79337  0.95713  0.79332  Biso   1.000  C
  H173     1.0000 0.68648  0.04399  0.75629  Biso   1.000  H
  H174     1.0000 0.24064  0.07532  0.65361  Biso   1.000  H
  O23      1.0000 0.35656  0.01715  0.74139  Biso   1.000  O
  C132     1.0000 0.29020  0.08187  0.82553  Biso   1.000  C
  C133     1.0000 0.23311  0.15125  0.91826  Biso   1.000  C
  O24      1.0000 0.01967  0.85570  0.71390  Biso   1.000  O
  C134     1.0000 0.88842  0.90843  0.78081  Biso   1.000  C
  H175     1.0000 0.90918  0.99333  0.60601  Biso   1.000  H
  C135     1.0000 0.74192  0.95108  0.85370  Biso   1.000  C
  C136     1.0000 0.30439  0.94878  0.73060  Biso   1.000  C
  H176     1.0000 0.34215  0.04909  0.85149  Biso   1.000  H
  C137     1.0000 0.32704  0.09728  0.95331  Biso   1.000  C
  C138     1.0000 0.10262  0.13847  0.93743  Biso   1.000  C
  C139     1.0000 0.27576  0.23161  0.93423  Biso   1.000  C
  C140     1.0000 0.14221  0.87156  0.71741  Biso   1.000  C
  H177     1.0000 0.92064  0.87212  0.80978  Biso   1.000  H
  C141     1.0000 0.72459  0.86848  0.86962  Biso   1.000  C
  C142     1.0000 0.83656  0.98521  0.90229  Biso   1.000  C
  C143     1.0000 0.61722  0.99019  0.85208  Biso   1.000  C
  N22      1.0000 0.18172  0.94138  0.73019  Biso   1.000  N
  N23      1.0000 0.38729  0.89605  0.72088  Biso   1.000  N
  H178     1.0000 0.40935  0.10289  0.93959  Biso   1.000  H
  H179     1.0000 0.33434  0.10883  0.99642  Biso   1.000  H
  H180     1.0000 0.29749  0.04573  0.94638  Biso   1.000  H
  H181     1.0000 0.10641  0.14873  0.98062  Biso   1.000  H
  H182     1.0000 0.04155  0.17221  0.91471  Biso   1.000  H
  H183     1.0000 0.07683  0.08641  0.92929  Biso   1.000  H
  H184     1.0000 0.36008  0.23951  0.92330  Biso   1.000  H
  H185     1.0000 0.21700  0.26702  0.91210  Biso   1.000  H
  H186     1.0000 0.27756  0.23962  0.97761  Biso   1.000  H
  N24      1.0000 0.21303  0.81255  0.70747  Biso   1.000  N
  H187     1.0000 0.66837  0.84421  0.83719  Biso   1.000  H
  H188     1.0000 0.80639  0.84321  0.87462  Biso   1.000  H
  H189     1.0000 0.68785  0.86523  0.90719  Biso   1.000  H
  H190     1.0000 0.80465  0.98179  0.94112  Biso   1.000  H
  H191     1.0000 0.91626  0.95803  0.90449  Biso   1.000  H
  H192     1.0000 0.84984  0.03788  0.89271  Biso   1.000  H
  H193     1.0000 0.55896  0.97181  0.81770  Biso   1.000  H
  H194     1.0000 0.58246  0.97988  0.88942  Biso   1.000  H
  H195     1.0000 0.62909  0.04433  0.84798  Biso   1.000  H
  C144     1.0000 0.33584  0.82813  0.70999  Biso   1.000  C
  C145     1.0000 0.42278  0.76335  0.70009  Biso   1.000  C
  C146     1.0000 0.41869  0.70720  0.75120  Biso   1.000  C
  C147     1.0000 0.55776  0.79053  0.69991  Biso   1.000  C
  C148     1.0000 0.37573  0.72693  0.63980  Biso   1.000  C
  H196     1.0000 0.33198  0.69011  0.75152  Biso   1.000  H
  H197     1.0000 0.47229  0.66411  0.74522  Biso   1.000  H
  H198     1.0000 0.44908  0.73130  0.78972  Biso   1.000  H
  H199     1.0000 0.58835  0.81373  0.73879  Biso   1.000  H
  H200     1.0000 0.61154  0.74788  0.69321  Biso   1.000  H
  H201     1.0000 0.56000  0.82740  0.66770  Biso   1.000  H
  H202     1.0000 0.37079  0.76481  0.60790  Biso   1.000  H
  H203     1.0000 0.43417  0.68720  0.63152  Biso   1.000  H
  H204     1.0000 0.29229  0.70530  0.64111  Biso   1.000  H
