data_image0
_cell_length_a       10.626
_cell_length_b       18.268
_cell_length_c       22.502
_cell_angle_alpha    90
_cell_angle_beta     96.46
_cell_angle_gamma    90

_symmetry_space_group_name_H-M    "P 1"
_symmetry_int_tables_number       1

loop_
  _symmetry_equiv_pos_as_xyz
  'x, y, z'

loop_
  _atom_site_label
  _atom_site_occupancy
  _atom_site_fract_x
  _atom_site_fract_y
  _atom_site_fract_z
  _atom_site_thermal_displace_type
  _atom_site_B_iso_or_equiv
  _atom_site_type_symbol
  C1       1.0000 0.52704  0.66198  0.35560  Biso   1.000  C
  C2       1.0000 0.60601  0.68891  0.30869  Biso   1.000  C
  H1       1.0000 0.48830  0.64528  0.36840  Biso   1.000  H
  H2       1.0000 0.49879  0.61309  0.34608  Biso   1.000  H
  H3       1.0000 0.45514  0.69362  0.35681  Biso   1.000  H
  H4       1.0000 0.57700  0.66242  0.39389  Biso   1.000  H
  C3       1.0000 0.69016  0.62470  0.29648  Biso   1.000  C
  C4       1.0000 0.57788  0.73292  0.25341  Biso   1.000  C
  C5       1.0000 0.47634  0.66181  0.32770  Biso   1.000  C
  C6       1.0000 0.67364  0.73779  0.35829  Biso   1.000  C
  C7       1.0000 0.52603  0.71201  0.25068  Biso   1.000  C
  C8       1.0000 0.69103  0.75520  0.32899  Biso   1.000  C
  N1       1.0000 0.63116  0.56312  0.27599  Biso   1.000  N
  N2       1.0000 0.81418  0.63318  0.30471  Biso   1.000  N
  H5       1.0000 0.65532  0.75268  0.24191  Biso   1.000  H
  H6       1.0000 0.52162  0.77222  0.26061  Biso   1.000  H
  H7       1.0000 0.53865  0.70232  0.22188  Biso   1.000  H
  H8       1.0000 0.57895  0.73621  0.22510  Biso   1.000  H
  H9       1.0000 0.46000  0.74420  0.25989  Biso   1.000  H
  H10      1.0000 0.44467  0.62218  0.30220  Biso   1.000  H
  H11      1.0000 0.41648  0.70139  0.32412  Biso   1.000  H
  H12      1.0000 0.75438  0.75268  0.34720  Biso   1.000  H
  H13      1.0000 0.68561  0.71092  0.39510  Biso   1.000  H
  H14      1.0000 0.62290  0.78033  0.36339  Biso   1.000  H
  H15      1.0000 0.71579  0.75257  0.37090  Biso   1.000  H
  H16      1.0000 0.48939  0.66898  0.23078  Biso   1.000  H
  H17      1.0000 0.76534  0.75449  0.30788  Biso   1.000  H
  H18      1.0000 0.64499  0.79970  0.31942  Biso   1.000  H
  C9       1.0000 0.70719  0.50898  0.26450  Biso   1.000  C
  C10      1.0000 0.87893  0.57461  0.29169  Biso   1.000  C
  O1       1.0000 0.64719  0.44778  0.24491  Biso   1.000  O
  N3       1.0000 0.83379  0.51067  0.27049  Biso   1.000  N
  O2       1.0000 0.00492  0.58310  0.30229  Biso   1.000  O
  C11      1.0000 0.71944  0.38729  0.22899  Biso   1.000  C
  C12      1.0000 0.08300  0.52940  0.28002  Biso   1.000  C
  C13      1.0000 0.77081  0.34109  0.27358  Biso   1.000  C
  C14      1.0000 0.72670  0.37470  0.16942  Biso   1.000  C
  C15      1.0000 0.12146  0.46858  0.31428  Biso   1.000  C
  C16      1.0000 0.12998  0.54341  0.22680  Biso   1.000  C
  O3       1.0000 0.76306  0.35122  0.33271  Biso   1.000  O
  C17      1.0000 0.83706  0.28120  0.25462  Biso   1.000  C
  C18      1.0000 0.79094  0.31312  0.15108  Biso   1.000  C
  H19      1.0000 0.68875  0.40721  0.14088  Biso   1.000  H
  O4       1.0000 0.08662  0.45270  0.36831  Biso   1.000  O
  C19      1.0000 0.20708  0.42249  0.29049  Biso   1.000  C
  H20      1.0000 0.10142  0.58452  0.20488  Biso   1.000  H
  C20      1.0000 0.21864  0.49830  0.20470  Biso   1.000  C
  H21      1.0000 0.69212  0.36589  0.33749  Biso   1.000  H
  O5       1.0000 0.88972  0.23079  0.29791  Biso   1.000  O
  C21      1.0000 0.84662  0.26779  0.19558  Biso   1.000  C
  C22      1.0000 0.80392  0.29921  0.08551  Biso   1.000  C
  H22      1.0000 0.03399  0.48270  0.37689  Biso   1.000  H
  O6       1.0000 0.25775  0.36348  0.32542  Biso   1.000  O
  C23      1.0000 0.25434  0.43661  0.23762  Biso   1.000  C
  C24      1.0000 0.27017  0.51538  0.14450  Biso   1.000  C
  C25      1.0000 0.00929  0.24250  0.32220  Biso   1.000  C
  H23      1.0000 0.89193  0.22712  0.18511  Biso   1.000  H
  C26      1.0000 0.82904  0.21918  0.07281  Biso   1.000  C
  C27      1.0000 0.67251  0.31629  0.04902  Biso   1.000  C
  C28      1.0000 0.89001  0.35340  0.06369  Biso   1.000  C
  C29      1.0000 0.75597  0.22121  0.06829  Biso   1.000  C
  C30      1.0000 0.74502  0.35308  0.04289  Biso   1.000  C
  C31      1.0000 0.95083  0.29538  0.07880  Biso   1.000  C
  C32      1.0000 0.18381  0.30600  0.33579  Biso   1.000  C
  H24      1.0000 0.31151  0.40399  0.22362  Biso   1.000  H
  C33      1.0000 0.16175  0.52961  0.09589  Biso   1.000  C
  C34      1.0000 0.34808  0.58660  0.15591  Biso   1.000  C
  C35      1.0000 0.35643  0.45539  0.12500  Biso   1.000  C
  C36      1.0000 0.17398  0.48101  0.09549  Biso   1.000  C
  C37      1.0000 0.27295  0.59870  0.13091  Biso   1.000  C
  C38      1.0000 0.40098  0.48292  0.14410  Biso   1.000  C
  N4       1.0000 0.05351  0.18820  0.35851  Biso   1.000  N
  N5       1.0000 0.06846  0.30200  0.30748  Biso   1.000  N
  H25      1.0000 0.90726  0.20440  0.09499  Biso   1.000  H
  H26      1.0000 0.83430  0.21278  0.03090  Biso   1.000  H
  H27      1.0000 0.76108  0.18979  0.08462  Biso   1.000  H
  H28      1.0000 0.81632  0.18568  0.08502  Biso   1.000  H
  H29      1.0000 0.60585  0.30649  0.07339  Biso   1.000  H
  H30      1.0000 0.66160  0.28607  0.01391  Biso   1.000  H
  H31      1.0000 0.66955  0.36693  0.03739  Biso   1.000  H
  H32      1.0000 0.67124  0.37328  0.05792  Biso   1.000  H
  H33      1.0000 0.72058  0.32981  0.00510  Biso   1.000  H
  H34      1.0000 0.97380  0.34662  0.08399  Biso   1.000  H
  H35      1.0000 0.86101  0.40180  0.07151  Biso   1.000  H
  H36      1.0000 0.89210  0.34711  0.02151  Biso   1.000  H
  H37      1.0000 0.80413  0.39172  0.03779  Biso   1.000  H
  H38      1.0000 0.98109  0.34350  0.07071  Biso   1.000  H
  H39      1.0000 0.74438  0.21650  0.02558  Biso   1.000  H
  H40      1.0000 0.67610  0.21300  0.08381  Biso   1.000  H
  H41      1.0000 0.99573  0.27721  0.11521  Biso   1.000  H
  H42      1.0000 0.96437  0.26330  0.04638  Biso   1.000  H
  N6       1.0000 0.24406  0.25750  0.37340  Biso   1.000  N
  H43      1.0000 0.11326  0.48560  0.08829  Biso   1.000  H
  H44      1.0000 0.19524  0.54472  0.05989  Biso   1.000  H
  H45      1.0000 0.10833  0.56750  0.10868  Biso   1.000  H
  H46      1.0000 0.09876  0.51018  0.09061  Biso   1.000  H
  H47      1.0000 0.42635  0.57582  0.17988  Biso   1.000  H
  H48      1.0000 0.30066  0.62120  0.17648  Biso   1.000  H
  H49      1.0000 0.36568  0.60713  0.11839  Biso   1.000  H
  H50      1.0000 0.34421  0.60948  0.10962  Biso   1.000  H
  H51      1.0000 0.28060  0.62557  0.16772  Biso   1.000  H
  H52      1.0000 0.30836  0.41121  0.11718  Biso   1.000  H
  H53      1.0000 0.42409  0.44679  0.15618  Biso   1.000  H
  H54      1.0000 0.39084  0.47039  0.08931  Biso   1.000  H
  H55      1.0000 0.39402  0.43119  0.13699  Biso   1.000  H
  H56      1.0000 0.15391  0.43229  0.10720  Biso   1.000  H
  H57      1.0000 0.21110  0.47931  0.05850  Biso   1.000  H
  H58      1.0000 0.19627  0.61249  0.10689  Biso   1.000  H
  H59      1.0000 0.44947  0.49141  0.18212  Biso   1.000  H
  H60      1.0000 0.44263  0.50547  0.11311  Biso   1.000  H
  C39      1.0000 0.17309  0.19969  0.38168  Biso   1.000  C
  C40      1.0000 0.23649  0.13910  0.42300  Biso   1.000  C
  C41      1.0000 0.24119  0.07012  0.38588  Biso   1.000  C
  C42      1.0000 0.37066  0.16099  0.44778  Biso   1.000  C
  C43      1.0000 0.15808  0.12848  0.47350  Biso   1.000  C
  C44      1.0000 0.35104  0.11402  0.39702  Biso   1.000  C
  C45      1.0000 0.27202  0.16948  0.48562  Biso   1.000  C
  C46      1.0000 0.14297  0.07412  0.43141  Biso   1.000  C
  H61      1.0000 0.28007  0.03148  0.41039  Biso   1.000  H
  H62      1.0000 0.28978  0.07910  0.35319  Biso   1.000  H
  H63      1.0000 0.15671  0.05600  0.37059  Biso   1.000  H
  H64      1.0000 0.32722  0.09519  0.35748  Biso   1.000  H
  H65      1.0000 0.40812  0.12267  0.47310  Biso   1.000  H
  H66      1.0000 0.36800  0.20528  0.47059  Biso   1.000  H
  H67      1.0000 0.42052  0.16887  0.41531  Biso   1.000  H
  H68      1.0000 0.40834  0.15431  0.39501  Biso   1.000  H
  H69      1.0000 0.33015  0.20938  0.48392  Biso   1.000  H
  H70      1.0000 0.19529  0.09098  0.49971  Biso   1.000  H
  H71      1.0000 0.07390  0.11419  0.45789  Biso   1.000  H
  H72      1.0000 0.15483  0.17347  0.49541  Biso   1.000  H
  H73      1.0000 0.19693  0.18650  0.50150  Biso   1.000  H
  H74      1.0000 0.07076  0.09218  0.44908  Biso   1.000  H
  H75      1.0000 0.39193  0.07609  0.42171  Biso   1.000  H
  H76      1.0000 0.31091  0.13171  0.51102  Biso   1.000  H
  H77      1.0000 0.18532  0.03772  0.45708  Biso   1.000  H
  H78      1.0000 0.11505  0.05272  0.39322  Biso   1.000  H
  C47      1.0000 0.47303  0.33802  0.64439  Biso   1.000  C
  C48      1.0000 0.39396  0.31109  0.69131  Biso   1.000  C
  H79      1.0000 0.51167  0.35472  0.63160  Biso   1.000  H
  H80      1.0000 0.50118  0.38691  0.65392  Biso   1.000  H
  H81      1.0000 0.54492  0.30638  0.64318  Biso   1.000  H
  H82      1.0000 0.42297  0.33758  0.60611  Biso   1.000  H
  C49      1.0000 0.32643  0.26221  0.64171  Biso   1.000  C
  C50      1.0000 0.30981  0.37530  0.70352  Biso   1.000  C
  C51      1.0000 0.42209  0.26708  0.74659  Biso   1.000  C
  C52      1.0000 0.52372  0.33819  0.67230  Biso   1.000  C
  C53      1.0000 0.47403  0.28799  0.74931  Biso   1.000  C
  C54      1.0000 0.30903  0.24480  0.67100  Biso   1.000  C
  H83      1.0000 0.24559  0.24732  0.65280  Biso   1.000  H
  H84      1.0000 0.31436  0.28908  0.60490  Biso   1.000  H
  H85      1.0000 0.37707  0.21967  0.63661  Biso   1.000  H
  H86      1.0000 0.28418  0.24743  0.62909  Biso   1.000  H
  N7       1.0000 0.18579  0.36682  0.69529  Biso   1.000  N
  N8       1.0000 0.36881  0.43688  0.72400  Biso   1.000  N
  H87      1.0000 0.34474  0.24732  0.75808  Biso   1.000  H
  H88      1.0000 0.47844  0.22778  0.73938  Biso   1.000  H
  H89      1.0000 0.46132  0.29768  0.77812  Biso   1.000  H
  H90      1.0000 0.42112  0.26379  0.77490  Biso   1.000  H
  H91      1.0000 0.53997  0.25580  0.74010  Biso   1.000  H
  H92      1.0000 0.55530  0.37782  0.69779  Biso   1.000  H
  H93      1.0000 0.58350  0.29861  0.67592  Biso   1.000  H
  H94      1.0000 0.51058  0.33102  0.76922  Biso   1.000  H
  H95      1.0000 0.23473  0.24551  0.69211  Biso   1.000  H
  H96      1.0000 0.35499  0.20030  0.68062  Biso   1.000  H
  C55      1.0000 0.12114  0.42539  0.70830  Biso   1.000  C
  C56      1.0000 0.29278  0.49102  0.73549  Biso   1.000  C
  N9       1.0000 0.16618  0.48933  0.72950  Biso   1.000  N
  O7       1.0000 0.99514  0.41690  0.69770  Biso   1.000  O
  O8       1.0000 0.35278  0.55222  0.75508  Biso   1.000  O
  C57      1.0000 0.91698  0.47060  0.72002  Biso   1.000  C
  C58      1.0000 0.28063  0.61271  0.77101  Biso   1.000  C
  C59      1.0000 0.87851  0.53142  0.68572  Biso   1.000  C
  C60      1.0000 0.86999  0.45659  0.77320  Biso   1.000  C
  C61      1.0000 0.22916  0.65891  0.72641  Biso   1.000  C
  C62      1.0000 0.27327  0.62530  0.83058  Biso   1.000  C
  O9       1.0000 0.91344  0.54730  0.63169  Biso   1.000  O
  C63      1.0000 0.79289  0.57751  0.70951  Biso   1.000  C
  H97      1.0000 0.89864  0.41548  0.79511  Biso   1.000  H
  C64      1.0000 0.78143  0.50170  0.79529  Biso   1.000  C
  O10      1.0000 0.23691  0.64878  0.66729  Biso   1.000  O
  C65      1.0000 0.16291  0.71880  0.74538  Biso   1.000  C
  C66      1.0000 0.20913  0.68688  0.84892  Biso   1.000  C
  H98      1.0000 0.31122  0.59279  0.85911  Biso   1.000  H
  H99      1.0000 0.96598  0.51730  0.62310  Biso   1.000  H
  O11      1.0000 0.74231  0.63652  0.67458  Biso   1.000  O
  C67      1.0000 0.74574  0.56339  0.76242  Biso   1.000  C
  C68      1.0000 0.72980  0.48462  0.85549  Biso   1.000  C
  H100     1.0000 0.30795  0.63411  0.66250  Biso   1.000  H
  O12      1.0000 0.11034  0.76921  0.70208  Biso   1.000  O
  C69      1.0000 0.15345  0.73221  0.80441  Biso   1.000  C
  C70      1.0000 0.19614  0.70079  0.91448  Biso   1.000  C
  C71      1.0000 0.81616  0.69400  0.66420  Biso   1.000  C
  H101     1.0000 0.68847  0.59601  0.77642  Biso   1.000  H
  C72      1.0000 0.83822  0.47039  0.90411  Biso   1.000  C
  C73      1.0000 0.65189  0.41340  0.84408  Biso   1.000  C
  C74      1.0000 0.64363  0.54461  0.87499  Biso   1.000  C
  C75      1.0000 0.82599  0.51899  0.90451  Biso   1.000  C
  C76      1.0000 0.72701  0.40130  0.86909  Biso   1.000  C
  C77      1.0000 0.59899  0.51708  0.85589  Biso   1.000  C
  C78      1.0000 0.99068  0.75750  0.67780  Biso   1.000  C
  H102     1.0000 0.10813  0.77288  0.81488  Biso   1.000  H
  C79      1.0000 0.17103  0.78082  0.92718  Biso   1.000  C
  C80      1.0000 0.32747  0.68371  0.95102  Biso   1.000  C
  C81      1.0000 0.10996  0.64660  0.93631  Biso   1.000  C
  C82      1.0000 0.24400  0.77879  0.93170  Biso   1.000  C
  C83      1.0000 0.25504  0.64692  0.95710  Biso   1.000  C
  C84      1.0000 0.04923  0.70462  0.92119  Biso   1.000  C
  N10      1.0000 0.75591  0.74250  0.62659  Biso   1.000  N
  N11      1.0000 0.93151  0.69800  0.69251  Biso   1.000  N
  H103     1.0000 0.88671  0.51440  0.91171  Biso   1.000  H
  H104     1.0000 0.80482  0.45528  0.94011  Biso   1.000  H
  H105     1.0000 0.89173  0.43250  0.89131  Biso   1.000  H
  H106     1.0000 0.90121  0.48982  0.90938  Biso   1.000  H
  H107     1.0000 0.57362  0.42418  0.82011  Biso   1.000  H
  H108     1.0000 0.69931  0.37880  0.82351  Biso   1.000  H
  H109     1.0000 0.63429  0.39287  0.88161  Biso   1.000  H
  H110     1.0000 0.65578  0.39052  0.89042  Biso   1.000  H
  H111     1.0000 0.71938  0.37443  0.83232  Biso   1.000  H
  H112     1.0000 0.69161  0.58879  0.88282  Biso   1.000  H
  H113     1.0000 0.57588  0.55321  0.84382  Biso   1.000  H
  H114     1.0000 0.60922  0.52961  0.91068  Biso   1.000  H
  H115     1.0000 0.60605  0.56881  0.86300  Biso   1.000  H
  H116     1.0000 0.84606  0.56771  0.89279  Biso   1.000  H
  H117     1.0000 0.78887  0.52069  0.94149  Biso   1.000  H
  H118     1.0000 0.80369  0.38751  0.89310  Biso   1.000  H
  H119     1.0000 0.55051  0.50859  0.81792  Biso   1.000  H
  H120     1.0000 0.55744  0.49453  0.88689  Biso   1.000  H
  N12      1.0000 0.94646  0.81180  0.64148  Biso   1.000  N
  H121     1.0000 0.09271  0.79560  0.90500  Biso   1.000  H
  H122     1.0000 0.16567  0.78722  0.96909  Biso   1.000  H
  H123     1.0000 0.23890  0.81021  0.91542  Biso   1.000  H
  H124     1.0000 0.18375  0.81432  0.91502  Biso   1.000  H
  H125     1.0000 0.39412  0.69351  0.92660  Biso   1.000  H
  H126     1.0000 0.33836  0.71393  0.98609  Biso   1.000  H
  H127     1.0000 0.33042  0.63307  0.96260  Biso   1.000  H
  H128     1.0000 0.32883  0.62672  0.94212  Biso   1.000  H
  H129     1.0000 0.27939  0.67019  0.99490  Biso   1.000  H
  H130     1.0000 0.02617  0.65338  0.91600  Biso   1.000  H
  H131     1.0000 0.13896  0.59820  0.92848  Biso   1.000  H
  H132     1.0000 0.10787  0.65289  0.97848  Biso   1.000  H
  H133     1.0000 0.19593  0.60828  0.96220  Biso   1.000  H
  H134     1.0000 0.01888  0.65650  0.92928  Biso   1.000  H
  H135     1.0000 0.25559  0.78350  0.97441  Biso   1.000  H
  H136     1.0000 0.32387  0.78700  0.91618  Biso   1.000  H
  H137     1.0000 0.00433  0.72279  0.88478  Biso   1.000  H
  H138     1.0000 0.03560  0.73670  0.95362  Biso   1.000  H
  C85      1.0000 0.82688  0.80031  0.61832  Biso   1.000  C
  C86      1.0000 0.76348  0.86090  0.57699  Biso   1.000  C
  C87      1.0000 0.75877  0.92988  0.61411  Biso   1.000  C
  C88      1.0000 0.62931  0.83901  0.55221  Biso   1.000  C
  C89      1.0000 0.84189  0.87152  0.52650  Biso   1.000  C
  C90      1.0000 0.64904  0.88598  0.60302  Biso   1.000  C
  C91      1.0000 0.72796  0.83052  0.51442  Biso   1.000  C
  C92      1.0000 0.85700  0.92588  0.56858  Biso   1.000  C
  H139     1.0000 0.71990  0.96852  0.58960  Biso   1.000  H
  H140     1.0000 0.71019  0.92090  0.64681  Biso   1.000  H
  H141     1.0000 0.84326  0.94400  0.62941  Biso   1.000  H
  H142     1.0000 0.67284  0.90481  0.64251  Biso   1.000  H
  H143     1.0000 0.59194  0.87733  0.52690  Biso   1.000  H
  H144     1.0000 0.63197  0.79472  0.52940  Biso   1.000  H
  H145     1.0000 0.57945  0.83113  0.58468  Biso   1.000  H
  H146     1.0000 0.59172  0.84569  0.60499  Biso   1.000  H
  H147     1.0000 0.66993  0.79062  0.51612  Biso   1.000  H
  H148     1.0000 0.80468  0.90902  0.50029  Biso   1.000  H
  H149     1.0000 0.92607  0.88581  0.54211  Biso   1.000  H
  H150     1.0000 0.84523  0.82653  0.50458  Biso   1.000  H
  H151     1.0000 0.80313  0.81350  0.49850  Biso   1.000  H
  H152     1.0000 0.92921  0.90782  0.55092  Biso   1.000  H
  H153     1.0000 0.60814  0.92391  0.57829  Biso   1.000  H
  H154     1.0000 0.68907  0.86829  0.48902  Biso   1.000  H
  H155     1.0000 0.81475  0.96228  0.54291  Biso   1.000  H
  H156     1.0000 0.88503  0.94728  0.60682  Biso   1.000  H
  C93      1.0000 0.75596  0.27879  0.56831  Biso   1.000  C
  C94      1.0000 0.80390  0.20079  0.58549  Biso   1.000  C
  H157     1.0000 0.83428  0.28722  0.53088  Biso   1.000  H
  H158     1.0000 0.76106  0.31021  0.58459  Biso   1.000  H
  H159     1.0000 0.81630  0.31432  0.58500  Biso   1.000  H
  H160     1.0000 0.74437  0.28350  0.52560  Biso   1.000  H
  H161     1.0000 0.67607  0.28700  0.58379  Biso   1.000  H
  C95      1.0000 0.67249  0.18371  0.54899  Biso   1.000  C
  C96      1.0000 0.74501  0.14692  0.54291  Biso   1.000  C
  C97      1.0000 0.79093  0.18688  0.65110  Biso   1.000  C
  C98      1.0000 0.82902  0.28082  0.57279  Biso   1.000  C
  C99      1.0000 0.89000  0.14660  0.56371  Biso   1.000  C
  C100     1.0000 0.95081  0.20462  0.57878  Biso   1.000  C
  H162     1.0000 0.60594  0.19351  0.57341  Biso   1.000  H
  H163     1.0000 0.66158  0.21393  0.51388  Biso   1.000  H
  H164     1.0000 0.66964  0.13307  0.53741  Biso   1.000  H
  H165     1.0000 0.67122  0.12672  0.55789  Biso   1.000  H
  H166     1.0000 0.72057  0.17019  0.50512  Biso   1.000  H
  H167     1.0000 0.80412  0.10828  0.53781  Biso   1.000  H
  C101     1.0000 0.84661  0.23221  0.69560  Biso   1.000  C
  C102     1.0000 0.72668  0.12530  0.66939  Biso   1.000  C
  H168     1.0000 0.90734  0.29560  0.59501  Biso   1.000  H
  H169     1.0000 0.97379  0.15338  0.58401  Biso   1.000  H
  H170     1.0000 0.86099  0.09820  0.57149  Biso   1.000  H
  H171     1.0000 0.89208  0.15289  0.52149  Biso   1.000  H
  H172     1.0000 0.98106  0.15650  0.57068  Biso   1.000  H
  H173     1.0000 0.99571  0.22279  0.61519  Biso   1.000  H
  H174     1.0000 0.96436  0.23670  0.54640  Biso   1.000  H
  C103     1.0000 0.83713  0.21880  0.75459  Biso   1.000  C
  H175     1.0000 0.89191  0.27288  0.68509  Biso   1.000  H
  C104     1.0000 0.71943  0.11271  0.72901  Biso   1.000  C
  H176     1.0000 0.68884  0.09279  0.64090  Biso   1.000  H
  O13      1.0000 0.88970  0.26921  0.79788  Biso   1.000  O
  C105     1.0000 0.77080  0.15891  0.77360  Biso   1.000  C
  O14      1.0000 0.64717  0.05222  0.74489  Biso   1.000  O
  C106     1.0000 0.00928  0.25750  0.82221  Biso   1.000  C
  O15      1.0000 0.76314  0.14878  0.83268  Biso   1.000  O
  C107     1.0000 0.70718  0.99102  0.76452  Biso   1.000  C
  N13      1.0000 0.05349  0.31180  0.85849  Biso   1.000  N
  N14      1.0000 0.06854  0.19800  0.80750  Biso   1.000  N
  H177     1.0000 0.69211  0.13411  0.83751  Biso   1.000  H
  N15      1.0000 0.83378  0.98933  0.77051  Biso   1.000  N
  N16      1.0000 0.63125  0.93688  0.77601  Biso   1.000  N
  C108     1.0000 0.17308  0.30031  0.88170  Biso   1.000  C
  C109     1.0000 0.18380  0.19400  0.83581  Biso   1.000  C
  C110     1.0000 0.87892  0.92539  0.79171  Biso   1.000  C
  C111     1.0000 0.69024  0.87530  0.79650  Biso   1.000  C
  N17      1.0000 0.24413  0.24250  0.87338  Biso   1.000  N
  C112     1.0000 0.23647  0.36090  0.92298  Biso   1.000  C
  O16      1.0000 0.25773  0.13652  0.82539  Biso   1.000  O
  N18      1.0000 0.81415  0.86682  0.80468  Biso   1.000  N
  O17      1.0000 0.00491  0.91690  0.80231  Biso   1.000  O
  C113     1.0000 0.60600  0.81109  0.80871  Biso   1.000  C
  C114     1.0000 0.24118  0.42988  0.88590  Biso   1.000  C
  C115     1.0000 0.37075  0.33901  0.94780  Biso   1.000  C
  C116     1.0000 0.15807  0.37152  0.97352  Biso   1.000  C
  C117     1.0000 0.35102  0.38598  0.89699  Biso   1.000  C
  C118     1.0000 0.27199  0.33052  0.98559  Biso   1.000  C
  C119     1.0000 0.14304  0.42588  0.93139  Biso   1.000  C
  C120     1.0000 0.20707  0.07751  0.79050  Biso   1.000  C
  C121     1.0000 0.08298  0.97060  0.77999  Biso   1.000  C
  C122     1.0000 0.57786  0.76708  0.75338  Biso   1.000  C
  C123     1.0000 0.47633  0.83819  0.82772  Biso   1.000  C
  C124     1.0000 0.67363  0.76221  0.85831  Biso   1.000  C
  C125     1.0000 0.52602  0.78799  0.75070  Biso   1.000  C
  C126     1.0000 0.52701  0.83802  0.85558  Biso   1.000  C
  C127     1.0000 0.69102  0.74480  0.82901  Biso   1.000  C
  H178     1.0000 0.28006  0.46852  0.91041  Biso   1.000  H
  H179     1.0000 0.28977  0.42090  0.85321  Biso   1.000  H
  H180     1.0000 0.15670  0.44400  0.87061  Biso   1.000  H
  H181     1.0000 0.32721  0.40481  0.85750  Biso   1.000  H
  H182     1.0000 0.40811  0.37733  0.97311  Biso   1.000  H
  H183     1.0000 0.36799  0.29472  0.97061  Biso   1.000  H
  H184     1.0000 0.42050  0.33113  0.91529  Biso   1.000  H
  H185     1.0000 0.40832  0.34569  0.89498  Biso   1.000  H
  H186     1.0000 0.33013  0.29062  0.98389  Biso   1.000  H
  H187     1.0000 0.19526  0.40902  0.99968  Biso   1.000  H
  H188     1.0000 0.07389  0.38581  0.95791  Biso   1.000  H
  H189     1.0000 0.15481  0.32653  0.99539  Biso   1.000  H
  H190     1.0000 0.07075  0.40782  0.94910  Biso   1.000  H
  H191     1.0000 0.19683  0.31350  0.00151  Biso   1.000  H
  H192     1.0000 0.39191  0.42391  0.92168  Biso   1.000  H
  H193     1.0000 0.31089  0.36829  0.01100  Biso   1.000  H
  H194     1.0000 0.18531  0.46228  0.95710  Biso   1.000  H
  H195     1.0000 0.11503  0.44728  0.89319  Biso   1.000  H
  C128     1.0000 0.12155  0.03142  0.81430  Biso   1.000  C
  C129     1.0000 0.25432  0.06339  0.73760  Biso   1.000  C
  C130     1.0000 0.12997  0.95659  0.72682  Biso   1.000  C
  H196     1.0000 0.65530  0.74732  0.74189  Biso   1.000  H
  H197     1.0000 0.52160  0.72778  0.76058  Biso   1.000  H
  H198     1.0000 0.53874  0.79768  0.72190  Biso   1.000  H
  H199     1.0000 0.57894  0.76379  0.72512  Biso   1.000  H
  H200     1.0000 0.45999  0.75580  0.75991  Biso   1.000  H
  H201     1.0000 0.44465  0.87782  0.80218  Biso   1.000  H
  H202     1.0000 0.41646  0.79861  0.82409  Biso   1.000  H
  H203     1.0000 0.48829  0.85472  0.86841  Biso   1.000  H
  H204     1.0000 0.49878  0.88691  0.84610  Biso   1.000  H
  H205     1.0000 0.45512  0.80638  0.85679  Biso   1.000  H
  H206     1.0000 0.75437  0.74732  0.84722  Biso   1.000  H
  H207     1.0000 0.68560  0.78908  0.89512  Biso   1.000  H
  H208     1.0000 0.62289  0.71967  0.86341  Biso   1.000  H
  H209     1.0000 0.71578  0.74743  0.87092  Biso   1.000  H
  H210     1.0000 0.48938  0.83102  0.73080  Biso   1.000  H
  H211     1.0000 0.57699  0.83758  0.89391  Biso   1.000  H
  H212     1.0000 0.76533  0.74551  0.80790  Biso   1.000  H
  H213     1.0000 0.64497  0.70030  0.81940  Biso   1.000  H
  O18      1.0000 0.08660  0.04730  0.86828  Biso   1.000  O
  C131     1.0000 0.21862  0.00170  0.70468  Biso   1.000  C
  H214     1.0000 0.31149  0.09601  0.72360  Biso   1.000  H
  H215     1.0000 0.10141  0.91548  0.70490  Biso   1.000  H
  H216     1.0000 0.03398  0.01730  0.87691  Biso   1.000  H
  C132     1.0000 0.27015  0.98462  0.64448  Biso   1.000  C
  C133     1.0000 0.16183  0.97039  0.59591  Biso   1.000  C
  C134     1.0000 0.34806  0.91340  0.65588  Biso   1.000  C
  C135     1.0000 0.27303  0.90130  0.63088  Biso   1.000  C
  C136     1.0000 0.35641  0.04461  0.62498  Biso   1.000  C
  C137     1.0000 0.17397  0.01899  0.59551  Biso   1.000  C
  C138     1.0000 0.40097  0.01708  0.64412  Biso   1.000  C
  H217     1.0000 0.19523  0.95528  0.55991  Biso   1.000  H
  H218     1.0000 0.10832  0.93250  0.60870  Biso   1.000  H
  H219     1.0000 0.09883  0.98982  0.59059  Biso   1.000  H
  H220     1.0000 0.11335  0.01440  0.58831  Biso   1.000  H
  H221     1.0000 0.42644  0.92418  0.67990  Biso   1.000  H
  H222     1.0000 0.30074  0.87880  0.67650  Biso   1.000  H
  H223     1.0000 0.36567  0.89287  0.61841  Biso   1.000  H
  H224     1.0000 0.34418  0.89052  0.60959  Biso   1.000  H
  H225     1.0000 0.28057  0.87443  0.66769  Biso   1.000  H
  H226     1.0000 0.19626  0.88751  0.60691  Biso   1.000  H
  H227     1.0000 0.30835  0.08879  0.61720  Biso   1.000  H
  H228     1.0000 0.42408  0.05321  0.65620  Biso   1.000  H
  H229     1.0000 0.39082  0.02961  0.58929  Biso   1.000  H
  H230     1.0000 0.39401  0.06881  0.63701  Biso   1.000  H
  H231     1.0000 0.15389  0.06771  0.60718  Biso   1.000  H
  H232     1.0000 0.21109  0.02069  0.55852  Biso   1.000  H
  H233     1.0000 0.44261  0.99453  0.61308  Biso   1.000  H
  H234     1.0000 0.44954  0.00859  0.68209  Biso   1.000  H
  C139     1.0000 0.24401  0.72121  0.43168  Biso   1.000  C
  C140     1.0000 0.19607  0.79921  0.41451  Biso   1.000  C
  H235     1.0000 0.16569  0.71278  0.46911  Biso   1.000  H
  H236     1.0000 0.23891  0.68979  0.41540  Biso   1.000  H
  H237     1.0000 0.18367  0.68568  0.41500  Biso   1.000  H
  H238     1.0000 0.25560  0.71650  0.47439  Biso   1.000  H
  H239     1.0000 0.32389  0.71300  0.41621  Biso   1.000  H
  C141     1.0000 0.20914  0.81312  0.34890  Biso   1.000  C
  C142     1.0000 0.17105  0.71918  0.42721  Biso   1.000  C
  C143     1.0000 0.32748  0.81629  0.45100  Biso   1.000  C
  C144     1.0000 0.10997  0.85340  0.43629  Biso   1.000  C
  C145     1.0000 0.25496  0.85308  0.45708  Biso   1.000  C
  C146     1.0000 0.04916  0.79538  0.42122  Biso   1.000  C
  C147     1.0000 0.15336  0.76779  0.30439  Biso   1.000  C
  C148     1.0000 0.27329  0.87470  0.33060  Biso   1.000  C
  H240     1.0000 0.09272  0.70440  0.40498  Biso   1.000  H
  H241     1.0000 0.39413  0.80649  0.42658  Biso   1.000  H
  H242     1.0000 0.33839  0.78607  0.48611  Biso   1.000  H
  H243     1.0000 0.33043  0.86693  0.46259  Biso   1.000  H
  H244     1.0000 0.32884  0.87328  0.44210  Biso   1.000  H
  H245     1.0000 0.27941  0.82981  0.49492  Biso   1.000  H
  H246     1.0000 0.02618  0.84662  0.41598  Biso   1.000  H
  H247     1.0000 0.13898  0.90180  0.42851  Biso   1.000  H
  H248     1.0000 0.10789  0.84711  0.47851  Biso   1.000  H
  H249     1.0000 0.19585  0.89172  0.46218  Biso   1.000  H
  H250     1.0000 0.01890  0.84350  0.42931  Biso   1.000  H
  H251     1.0000 0.00426  0.77721  0.38481  Biso   1.000  H
  H252     1.0000 0.03561  0.76330  0.45360  Biso   1.000  H
  C149     1.0000 0.16293  0.78120  0.24540  Biso   1.000  C
  H253     1.0000 0.10806  0.72712  0.31490  Biso   1.000  H
  C150     1.0000 0.28064  0.88729  0.27099  Biso   1.000  C
  H254     1.0000 0.31123  0.90721  0.35909  Biso   1.000  H
  O19      1.0000 0.11027  0.73079  0.20211  Biso   1.000  O
  C151     1.0000 0.22917  0.84109  0.22640  Biso   1.000  C
  O20      1.0000 0.35280  0.94778  0.25511  Biso   1.000  O
  C152     1.0000 0.99069  0.74250  0.17778  Biso   1.000  C
  O21      1.0000 0.23693  0.85122  0.16731  Biso   1.000  O
  C153     1.0000 0.29280  0.00898  0.23552  Biso   1.000  C
  N19      1.0000 0.94648  0.68820  0.14151  Biso   1.000  N
  N20      1.0000 0.93152  0.80200  0.19249  Biso   1.000  N
  H255     1.0000 0.30786  0.86589  0.16248  Biso   1.000  H
  N21      1.0000 0.16619  0.01067  0.22948  Biso   1.000  N
  N22      1.0000 0.36882  0.06312  0.22398  Biso   1.000  N
  C154     1.0000 0.82689  0.69969  0.11830  Biso   1.000  C
  C155     1.0000 0.81617  0.80600  0.16418  Biso   1.000  C
  C156     1.0000 0.12105  0.07461  0.20828  Biso   1.000  C
  C157     1.0000 0.30982  0.12470  0.20350  Biso   1.000  C
  N23      1.0000 0.75593  0.75750  0.12661  Biso   1.000  N
  C158     1.0000 0.76350  0.63910  0.07702  Biso   1.000  C
  O22      1.0000 0.74233  0.86348  0.17460  Biso   1.000  O
  O23      1.0000 0.99506  0.08310  0.19768  Biso   1.000  O
  N24      1.0000 0.18581  0.13318  0.19531  Biso   1.000  N
  C159     1.0000 0.39397  0.18891  0.19129  Biso   1.000  C
  C160     1.0000 0.75878  0.57012  0.11409  Biso   1.000  C
  C161     1.0000 0.62932  0.66099  0.05219  Biso   1.000  C
  C162     1.0000 0.84191  0.62848  0.02652  Biso   1.000  C
  C163     1.0000 0.64905  0.61402  0.10300  Biso   1.000  C
  C164     1.0000 0.72797  0.66948  0.01440  Biso   1.000  C
  C165     1.0000 0.85702  0.57412  0.06861  Biso   1.000  C
  C166     1.0000 0.79290  0.92249  0.20949  Biso   1.000  C
  C167     1.0000 0.91699  0.02940  0.22000  Biso   1.000  C
  C168     1.0000 0.42211  0.23292  0.24661  Biso   1.000  C
  C169     1.0000 0.52373  0.16181  0.17228  Biso   1.000  C
  C170     1.0000 0.32644  0.23779  0.14169  Biso   1.000  C
  C171     1.0000 0.47404  0.21201  0.24929  Biso   1.000  C
  C172     1.0000 0.47305  0.16198  0.14442  Biso   1.000  C
  C173     1.0000 0.30904  0.25520  0.17098  Biso   1.000  C
  H256     1.0000 0.71991  0.53148  0.08958  Biso   1.000  H
  H257     1.0000 0.71020  0.57910  0.14679  Biso   1.000  H
  H258     1.0000 0.84327  0.55600  0.12939  Biso   1.000  H
  H259     1.0000 0.67276  0.59519  0.14249  Biso   1.000  H
  H260     1.0000 0.59185  0.62267  0.02688  Biso   1.000  H
  H261     1.0000 0.63198  0.70528  0.02938  Biso   1.000  H
  H262     1.0000 0.57947  0.66887  0.08471  Biso   1.000  H
  H263     1.0000 0.59174  0.65431  0.10501  Biso   1.000  H
  H264     1.0000 0.66994  0.70938  0.01610  Biso   1.000  H
  H265     1.0000 0.80315  0.68650  0.99852  Biso   1.000  H
  H266     1.0000 0.80470  0.59098  0.00031  Biso   1.000  H
  H267     1.0000 0.92608  0.61419  0.04209  Biso   1.000  H
  H268     1.0000 0.84516  0.67347  0.00461  Biso   1.000  H
  H269     1.0000 0.92922  0.59218  0.05090  Biso   1.000  H
  H270     1.0000 0.60806  0.57609  0.07831  Biso   1.000  H
  H271     1.0000 0.68917  0.63171  0.98900  Biso   1.000  H
  H272     1.0000 0.81466  0.53772  0.04289  Biso   1.000  H
  H273     1.0000 0.88504  0.55272  0.10680  Biso   1.000  H
  C174     1.0000 0.87852  0.96858  0.18570  Biso   1.000  C
  C175     1.0000 0.74565  0.93661  0.26240  Biso   1.000  C
  C176     1.0000 0.87001  0.04341  0.27322  Biso   1.000  C
  H274     1.0000 0.34467  0.25268  0.25810  Biso   1.000  H
  H275     1.0000 0.47837  0.27222  0.23941  Biso   1.000  H
  H276     1.0000 0.46133  0.20232  0.27810  Biso   1.000  H
  H277     1.0000 0.42114  0.23621  0.27492  Biso   1.000  H
  H278     1.0000 0.53998  0.24420  0.24008  Biso   1.000  H
  H279     1.0000 0.55532  0.12218  0.19782  Biso   1.000  H
  H280     1.0000 0.58351  0.20139  0.17590  Biso   1.000  H
  H281     1.0000 0.51168  0.14528  0.13158  Biso   1.000  H
  H282     1.0000 0.50119  0.11309  0.15390  Biso   1.000  H
  H283     1.0000 0.54494  0.19362  0.14321  Biso   1.000  H
  H284     1.0000 0.24560  0.25268  0.15278  Biso   1.000  H
  H285     1.0000 0.31437  0.21092  0.10488  Biso   1.000  H
  H286     1.0000 0.37708  0.28033  0.13659  Biso   1.000  H
  H287     1.0000 0.28420  0.25257  0.12912  Biso   1.000  H
  H288     1.0000 0.51059  0.16898  0.26920  Biso   1.000  H
  H289     1.0000 0.42298  0.16242  0.10609  Biso   1.000  H
  H290     1.0000 0.23474  0.25449  0.19209  Biso   1.000  H
  H291     1.0000 0.35500  0.29970  0.18060  Biso   1.000  H
  O24      1.0000 0.91337  0.95270  0.13171  Biso   1.000  O
  C177     1.0000 0.78145  0.99830  0.29532  Biso   1.000  C
  H292     1.0000 0.68848  0.90399  0.27640  Biso   1.000  H
  H293     1.0000 0.89856  0.08452  0.29509  Biso   1.000  H
  H294     1.0000 0.96599  0.98270  0.12308  Biso   1.000  H
  C178     1.0000 0.72982  0.01538  0.35551  Biso   1.000  C
  C179     1.0000 0.64365  0.95539  0.37501  Biso   1.000  C
  C180     1.0000 0.82600  0.98101  0.40449  Biso   1.000  C
  C181     1.0000 0.59901  0.98292  0.35592  Biso   1.000  C
  C182     1.0000 0.83823  0.02961  0.40409  Biso   1.000  C
  C183     1.0000 0.65191  0.08660  0.34411  Biso   1.000  C
  C184     1.0000 0.72704  0.09870  0.36911  Biso   1.000  C
  H295     1.0000 0.69162  0.91121  0.38280  Biso   1.000  H
  H296     1.0000 0.57589  0.94679  0.34380  Biso   1.000  H
  H297     1.0000 0.60924  0.97039  0.41070  Biso   1.000  H
  H298     1.0000 0.60596  0.93119  0.36298  Biso   1.000  H
  H299     1.0000 0.88672  0.98560  0.41169  Biso   1.000  H
  H300     1.0000 0.84608  0.93229  0.39281  Biso   1.000  H
  H301     1.0000 0.78889  0.97931  0.44152  Biso   1.000  H
  H302     1.0000 0.90123  0.01018  0.40941  Biso   1.000  H
  H303     1.0000 0.55052  0.99141  0.31790  Biso   1.000  H
  H304     1.0000 0.55736  0.00547  0.38691  Biso   1.000  H
  H305     1.0000 0.80483  0.04472  0.44009  Biso   1.000  H
  H306     1.0000 0.89174  0.06750  0.39129  Biso   1.000  H
  H307     1.0000 0.57363  0.07582  0.32009  Biso   1.000  H
  H308     1.0000 0.69932  0.12120  0.32349  Biso   1.000  H
  H309     1.0000 0.63430  0.10713  0.38159  Biso   1.000  H
  H310     1.0000 0.65578  0.10948  0.39040  Biso   1.000  H
  H311     1.0000 0.71939  0.12557  0.33230  Biso   1.000  H
  H312     1.0000 0.80370  0.11249  0.39308  Biso   1.000  H
