data_image0
_cell_length_a       13.329
_cell_length_b       18.314
_cell_length_c       39.271
_cell_angle_alpha    90
_cell_angle_beta     98.32
_cell_angle_gamma    90

_symmetry_space_group_name_H-M    "P 1"
_symmetry_int_tables_number       1

loop_
  _symmetry_equiv_pos_as_xyz
  'x, y, z'

loop_
  _atom_site_label
  _atom_site_occupancy
  _atom_site_fract_x
  _atom_site_fract_y
  _atom_site_fract_z
  _atom_site_thermal_displace_type
  _atom_site_B_iso_or_equiv
  _atom_site_type_symbol
  C1       1.0000 0.52871  0.53527  0.45721  Biso   1.000  C
  C2       1.0000 0.63100  0.52828  0.45430  Biso   1.000  C
  C3       1.0000 0.46087  0.48067  0.44449  Biso   1.000  C
  C4       1.0000 0.49959  0.60287  0.47460  Biso   1.000  C
  C5       1.0000 0.66548  0.46669  0.43891  Biso   1.000  C
  C6       1.0000 0.49534  0.41908  0.42910  Biso   1.000  C
  O1       1.0000 0.40250  0.61019  0.47530  Biso   1.000  O
  O2       1.0000 0.57007  0.64459  0.48981  Biso   1.000  O
  C7       1.0000 0.59768  0.41209  0.42630  Biso   1.000  C
  C8       1.0000 0.53951  0.71361  0.50700  Biso   1.000  C
  C9       1.0000 0.63587  0.34520  0.40870  Biso   1.000  C
  C10      1.0000 0.62155  0.33919  0.37300  Biso   1.000  C
  C11      1.0000 0.69098  0.29218  0.42869  Biso   1.000  C
  C12      1.0000 0.66216  0.28017  0.35741  Biso   1.000  C
  O3       1.0000 0.56103  0.39238  0.35370  Biso   1.000  O
  C13      1.0000 0.73152  0.23321  0.41310  Biso   1.000  C
  O4       1.0000 0.69275  0.29671  0.46400  Biso   1.000  O
  C14      1.0000 0.64837  0.27848  0.31731  Biso   1.000  C
  C15      1.0000 0.71728  0.22720  0.37740  Biso   1.000  C
  C16      1.0000 0.61121  0.45037  0.33960  Biso   1.000  C
  C17      1.0000 0.79410  0.17489  0.43652  Biso   1.000  C
  C18      1.0000 0.78541  0.32658  0.48371  Biso   1.000  C
  C19      1.0000 0.64234  0.19532  0.30439  Biso   1.000  C
  C20      1.0000 0.73212  0.32680  0.30591  Biso   1.000  C
  O5       1.0000 0.62470  0.43169  0.30349  Biso   1.000  O
  C21      1.0000 0.90297  0.20547  0.44570  Biso   1.000  C
  C22      1.0000 0.79408  0.09670  0.42010  Biso   1.000  C
  O6       1.0000 0.85324  0.26717  0.49481  Biso   1.000  O
  C23      1.0000 0.61291  0.20438  0.26371  Biso   1.000  C
  C24      1.0000 0.71805  0.40100  0.29950  Biso   1.000  C
  C25      1.0000 0.82441  0.29431  0.30259  Biso   1.000  C
  C26      1.0000 0.97598  0.19198  0.42460  Biso   1.000  C
  C27      1.0000 0.92495  0.25161  0.47401  Biso   1.000  C
  C28      1.0000 0.83802  0.04832  0.45420  Biso   1.000  C
  C29      1.0000 0.58796  0.11898  0.25709  Biso   1.000  C
  C30      1.0000 0.79633  0.44267  0.28970  Biso   1.000  C
  C31      1.0000 0.90261  0.33597  0.29281  Biso   1.000  C
  C32      1.0000 0.07079  0.22469  0.43160  Biso   1.000  C
  C33      1.0000 0.01991  0.28432  0.48101  Biso   1.000  C
  C34      1.0000 0.81734  0.97335  0.43631  Biso   1.000  C
  C35      1.0000 0.65429  0.11592  0.23300  Biso   1.000  C
  C36      1.0000 0.77092  0.52419  0.28079  Biso   1.000  C
  C37      1.0000 0.88863  0.41018  0.28640  Biso   1.000  C
  C38      1.0000 0.01310  0.30927  0.28942  Biso   1.000  C
  C39      1.0000 0.09280  0.27078  0.45981  Biso   1.000  C
  C40      1.0000 0.15250  0.20858  0.40679  Biso   1.000  C
  C41      1.0000 0.04423  0.33690  0.51130  Biso   1.000  C
  C42      1.0000 0.91423  0.92678  0.45381  Biso   1.000  C
  C43      1.0000 0.63939  0.03478  0.22690  Biso   1.000  C
  C44      1.0000 0.77124  0.57939  0.30511  Biso   1.000  C
  C45      1.0000 0.74919  0.54052  0.24600  Biso   1.000  C
  O7       1.0000 0.96230  0.45730  0.27760  Biso   1.000  O
  C46      1.0000 0.07565  0.31331  0.32421  Biso   1.000  C
  C47      1.0000 0.00982  0.22742  0.27451  Biso   1.000  C
  O8       1.0000 0.19082  0.30059  0.46729  Biso   1.000  O
  C48      1.0000 0.14310  0.26848  0.38052  Biso   1.000  C
  C49      1.0000 0.14297  0.12897  0.39130  Biso   1.000  C
  C50      1.0000 0.06544  0.40980  0.50561  Biso   1.000  C
  C51      1.0000 0.03673  0.31271  0.54440  Biso   1.000  C
  C52      1.0000 0.85507  0.90630  0.48451  Biso   1.000  C
  C53      1.0000 0.74973  0.65087  0.29461  Biso   1.000  C
  C54      1.0000 0.72779  0.61199  0.23540  Biso   1.000  C
  C55      1.0000 0.03379  0.49001  0.30311  Biso   1.000  C
  C56      1.0000 0.12309  0.38009  0.33201  Biso   1.000  C
  C57      1.0000 0.08574  0.25751  0.34840  Biso   1.000  C
  C58      1.0000 0.96098  0.24752  0.23210  Biso   1.000  C
  C59      1.0000 0.21189  0.36387  0.44861  Biso   1.000  C
  C60      1.0000 0.19046  0.33532  0.38831  Biso   1.000  C
  C61      1.0000 0.17208  0.07371  0.42280  Biso   1.000  C
  C62      1.0000 0.07899  0.45861  0.53300  Biso   1.000  C
  C63      1.0000 0.05022  0.36142  0.57180  Biso   1.000  C
  C64      1.0000 0.72802  0.66719  0.25969  Biso   1.000  C
  O9       1.0000 0.12107  0.43917  0.30861  Biso   1.000  O
  C65      1.0000 0.18047  0.39107  0.36399  Biso   1.000  C
  C66      1.0000 0.94719  0.17451  0.22209  Biso   1.000  C
  O10      1.0000 0.25524  0.34771  0.41920  Biso   1.000  O
  C67      1.0000 0.14521  0.99350  0.40502  Biso   1.000  C
  C68      1.0000 0.07142  0.43437  0.56612  Biso   1.000  C
  C69      1.0000 0.70636  0.75046  0.24690  Biso   1.000  C
  C70      1.0000 0.22667  0.46778  0.37401  Biso   1.000  C
  C71      1.0000 0.90163  0.18898  0.18210  Biso   1.000  C
  C72      1.0000 0.05625  0.95539  0.41649  Biso   1.000  C
  C73      1.0000 0.08731  0.48979  0.59159  Biso   1.000  C
  O11      1.0000 0.71539  0.79016  0.26950  Biso   1.000  O
  O12      1.0000 0.68122  0.74599  0.21450  Biso   1.000  O
  C74      1.0000 0.17260  0.51098  0.39410  Biso   1.000  C
  C75      1.0000 0.31539  0.49421  0.36371  Biso   1.000  C
  C76      1.0000 0.96057  0.22939  0.15899  Biso   1.000  C
  C77      1.0000 0.07861  0.87496  0.41191  Biso   1.000  C
  O13      1.0000 0.08213  0.55799  0.58331  Biso   1.000  O
  O14      1.0000 0.10120  0.47090  0.62330  Biso   1.000  O
  C78      1.0000 0.66249  0.82860  0.21000  Biso   1.000  C
  C79      1.0000 0.20704  0.58059  0.40381  Biso   1.000  C
  C80      1.0000 0.34984  0.56378  0.37341  Biso   1.000  C
  C81      1.0000 0.09825  0.61199  0.61180  Biso   1.000  C
  C82      1.0000 0.29576  0.60697  0.39351  Biso   1.000  C
  C83      1.0000 0.34501  0.69237  0.40152  Biso   1.000  C
  O15      1.0000 0.27090  0.71137  0.42089  Biso   1.000  O
  O16      1.0000 0.42658  0.69750  0.39470  Biso   1.000  O
  C84      1.0000 0.29941  0.79087  0.43621  Biso   1.000  C
  C85      1.0000 0.47149  0.46467  0.54280  Biso   1.000  C
  C86      1.0000 0.50061  0.39707  0.52540  Biso   1.000  C
  C87      1.0000 0.36920  0.47172  0.54571  Biso   1.000  C
  C88      1.0000 0.53933  0.51927  0.55551  Biso   1.000  C
  O17      1.0000 0.43006  0.35541  0.51020  Biso   1.000  O
  O18      1.0000 0.59770  0.38981  0.52471  Biso   1.000  O
  C89      1.0000 0.33472  0.53331  0.56110  Biso   1.000  C
  C90      1.0000 0.50478  0.58087  0.57090  Biso   1.000  C
  C91      1.0000 0.46069  0.28639  0.49300  Biso   1.000  C
  C92      1.0000 0.40252  0.58791  0.57371  Biso   1.000  C
  C93      1.0000 0.36433  0.65480  0.59131  Biso   1.000  C
  C94      1.0000 0.30922  0.70776  0.57132  Biso   1.000  C
  C95      1.0000 0.37865  0.66081  0.62701  Biso   1.000  C
  O19      1.0000 0.30737  0.70329  0.53601  Biso   1.000  O
  C96      1.0000 0.26860  0.76679  0.58691  Biso   1.000  C
  C97      1.0000 0.33803  0.71978  0.64260  Biso   1.000  C
  O20      1.0000 0.43909  0.60757  0.64631  Biso   1.000  O
  C98      1.0000 0.21479  0.67336  0.51629  Biso   1.000  C
  C99      1.0000 0.28292  0.77280  0.62261  Biso   1.000  C
  C100     1.0000 0.20611  0.82511  0.56352  Biso   1.000  C
  C101     1.0000 0.35182  0.72147  0.68270  Biso   1.000  C
  C102     1.0000 0.38891  0.54958  0.66041  Biso   1.000  C
  O21      1.0000 0.14689  0.73277  0.50520  Biso   1.000  O
  C103     1.0000 0.09722  0.79447  0.55430  Biso   1.000  C
  C104     1.0000 0.20612  0.90330  0.57991  Biso   1.000  C
  C105     1.0000 0.26801  0.67320  0.69410  Biso   1.000  C
  C106     1.0000 0.35786  0.80468  0.69562  Biso   1.000  C
  O22      1.0000 0.37542  0.56831  0.69652  Biso   1.000  O
  C107     1.0000 0.07518  0.74839  0.52600  Biso   1.000  C
  C108     1.0000 0.02422  0.80796  0.57541  Biso   1.000  C
  C109     1.0000 0.16210  0.95168  0.54581  Biso   1.000  C
  C110     1.0000 0.28214  0.59900  0.70050  Biso   1.000  C
  C111     1.0000 0.17572  0.70569  0.69742  Biso   1.000  C
  C112     1.0000 0.38721  0.79557  0.73630  Biso   1.000  C
  C113     1.0000 0.98029  0.71568  0.51900  Biso   1.000  C
  C114     1.0000 0.92940  0.77531  0.56841  Biso   1.000  C
  C115     1.0000 0.18278  0.02659  0.56370  Biso   1.000  C
  C116     1.0000 0.20387  0.55728  0.71031  Biso   1.000  C
  C117     1.0000 0.09751  0.66397  0.70720  Biso   1.000  C
  C118     1.0000 0.41223  0.88097  0.74292  Biso   1.000  C
  C119     1.0000 0.95597  0.66310  0.48871  Biso   1.000  C
  C120     1.0000 0.90740  0.72917  0.54020  Biso   1.000  C
  C121     1.0000 0.84770  0.79136  0.59322  Biso   1.000  C
  C122     1.0000 0.08589  0.07322  0.54620  Biso   1.000  C
  C123     1.0000 0.22927  0.47581  0.71921  Biso   1.000  C
  C124     1.0000 0.11157  0.58977  0.71360  Biso   1.000  C
  C125     1.0000 0.98711  0.69067  0.71062  Biso   1.000  C
  C126     1.0000 0.34583  0.88408  0.76700  Biso   1.000  C
  C127     1.0000 0.93476  0.59020  0.49439  Biso   1.000  C
  C128     1.0000 0.96347  0.68729  0.45561  Biso   1.000  C
  O23      1.0000 0.80938  0.69941  0.53271  Biso   1.000  O
  C129     1.0000 0.85711  0.73146  0.61952  Biso   1.000  C
  C130     1.0000 0.85723  0.87097  0.60871  Biso   1.000  C
  C131     1.0000 0.14512  0.09370  0.51550  Biso   1.000  C
  C132     1.0000 0.22896  0.42061  0.69489  Biso   1.000  C
  C133     1.0000 0.25093  0.45948  0.75401  Biso   1.000  C
  O24      1.0000 0.03782  0.54270  0.72241  Biso   1.000  O
  C134     1.0000 0.92447  0.68669  0.67580  Biso   1.000  C
  C135     1.0000 0.99031  0.77258  0.72552  Biso   1.000  C
  C136     1.0000 0.36073  0.96516  0.77310  Biso   1.000  C
  C137     1.0000 0.92114  0.54139  0.46701  Biso   1.000  C
  C138     1.0000 0.94998  0.63858  0.42820  Biso   1.000  C
  C139     1.0000 0.78831  0.63607  0.55140  Biso   1.000  C
  C140     1.0000 0.91438  0.74249  0.65161  Biso   1.000  C
  C141     1.0000 0.80966  0.66468  0.61169  Biso   1.000  C
  C142     1.0000 0.82812  0.92629  0.57721  Biso   1.000  C
  C143     1.0000 0.25047  0.34908  0.70539  Biso   1.000  C
  C144     1.0000 0.27234  0.38801  0.76461  Biso   1.000  C
  C145     1.0000 0.96640  0.50999  0.69690  Biso   1.000  C
  C146     1.0000 0.87711  0.61991  0.66800  Biso   1.000  C
  C147     1.0000 0.03914  0.75248  0.76790  Biso   1.000  C
  C148     1.0000 0.92878  0.56558  0.43392  Biso   1.000  C
  O25      1.0000 0.74488  0.65229  0.58081  Biso   1.000  O
  C149     1.0000 0.81973  0.60888  0.63601  Biso   1.000  C
  C150     1.0000 0.85500  0.00650  0.59502  Biso   1.000  C
  C151     1.0000 0.27218  0.33281  0.74032  Biso   1.000  C
  O26      1.0000 0.87913  0.56077  0.69139  Biso   1.000  O
  C152     1.0000 0.05293  0.82549  0.77792  Biso   1.000  C
  C153     1.0000 0.91288  0.51021  0.40841  Biso   1.000  C
  C154     1.0000 0.77352  0.53216  0.62600  Biso   1.000  C
  C155     1.0000 0.94387  0.04461  0.58351  Biso   1.000  C
  C156     1.0000 0.29384  0.24948  0.75311  Biso   1.000  C
  C157     1.0000 0.09857  0.81096  0.81791  Biso   1.000  C
  O27      1.0000 0.91807  0.44201  0.41670  Biso   1.000  O
  O28      1.0000 0.89892  0.52910  0.37671  Biso   1.000  O
  C158     1.0000 0.82760  0.48897  0.60590  Biso   1.000  C
  C159     1.0000 0.68481  0.50579  0.63630  Biso   1.000  C
  C160     1.0000 0.92159  0.12499  0.58809  Biso   1.000  C
  O29      1.0000 0.28473  0.20978  0.73051  Biso   1.000  O
  O30      1.0000 0.31898  0.25401  0.78551  Biso   1.000  O
  C161     1.0000 0.03955  0.77056  0.84102  Biso   1.000  C
  C162     1.0000 0.90195  0.38801  0.38821  Biso   1.000  C
  C163     1.0000 0.79308  0.41941  0.59620  Biso   1.000  C
  C164     1.0000 0.65029  0.43617  0.62659  Biso   1.000  C
  C165     1.0000 0.33763  0.17140  0.79001  Biso   1.000  C
  C166     1.0000 0.70436  0.39298  0.60650  Biso   1.000  C
  C167     1.0000 0.65520  0.30758  0.59852  Biso   1.000  C
  O31      1.0000 0.72930  0.28858  0.57911  Biso   1.000  O
  O32      1.0000 0.57362  0.30250  0.60531  Biso   1.000  O
  C168     1.0000 0.70079  0.20908  0.56380  Biso   1.000  C
  C169     1.0000 0.63956  0.46516  0.72691  Biso   1.000  C
  C170     1.0000 0.65439  0.38408  0.73301  Biso   1.000  C
  C171     1.0000 0.58806  0.38097  0.75710  Biso   1.000  C
  C172     1.0000 0.61301  0.29562  0.76371  Biso   1.000  C
  C173     1.0000 0.64244  0.30468  0.80440  Biso   1.000  C
  C174     1.0000 0.64847  0.22147  0.81732  Biso   1.000  C
  C175     1.0000 0.73221  0.17320  0.80592  Biso   1.000  C
  C176     1.0000 0.66226  0.21978  0.85741  Biso   1.000  C
  C177     1.0000 0.82450  0.20569  0.80260  Biso   1.000  C
  C178     1.0000 0.71815  0.09900  0.79951  Biso   1.000  C
  C179     1.0000 0.71738  0.27280  0.87741  Biso   1.000  C
  C180     1.0000 0.62165  0.16081  0.87301  Biso   1.000  C
  C181     1.0000 0.90271  0.16397  0.79282  Biso   1.000  C
  C182     1.0000 0.79642  0.05728  0.78970  Biso   1.000  C
  O33      1.0000 0.62487  0.06831  0.80350  Biso   1.000  O
  C183     1.0000 0.73170  0.26679  0.91310  Biso   1.000  C
  O34      1.0000 0.56113  0.10762  0.85370  Biso   1.000  O
  C184     1.0000 0.63596  0.15480  0.90870  Biso   1.000  C
  C185     1.0000 0.01320  0.19067  0.78942  Biso   1.000  C
  C186     1.0000 0.88873  0.08982  0.78641  Biso   1.000  C
  C187     1.0000 0.77102  0.97576  0.78080  Biso   1.000  C
  C188     1.0000 0.61138  0.04958  0.83960  Biso   1.000  C
  C189     1.0000 0.69109  0.20782  0.92872  Biso   1.000  C
  C190     1.0000 0.79420  0.32511  0.93652  Biso   1.000  C
  C191     1.0000 0.59778  0.08791  0.92630  Biso   1.000  C
  C192     1.0000 0.01000  0.27258  0.77452  Biso   1.000  C
  C193     1.0000 0.07575  0.18669  0.82421  Biso   1.000  C
  O35      1.0000 0.96240  0.04270  0.77761  Biso   1.000  O
  C194     1.0000 0.77134  0.92061  0.80512  Biso   1.000  C
  C195     1.0000 0.74936  0.95948  0.74600  Biso   1.000  C
  O36      1.0000 0.69285  0.20329  0.96400  Biso   1.000  O
  C196     1.0000 0.90307  0.29447  0.94571  Biso   1.000  C
  C197     1.0000 0.79417  0.40330  0.92010  Biso   1.000  C
  C198     1.0000 0.66557  0.03331  0.93891  Biso   1.000  C
  C199     1.0000 0.49544  0.08092  0.92911  Biso   1.000  C
  C200     1.0000 0.96108  0.25248  0.73211  Biso   1.000  C
  C201     1.0000 0.12319  0.11991  0.83201  Biso   1.000  C
  C202     1.0000 0.08584  0.24249  0.84840  Biso   1.000  C
  C203     1.0000 0.03389  0.00999  0.80311  Biso   1.000  C
  C204     1.0000 0.74983  0.84908  0.79462  Biso   1.000  C
  C205     1.0000 0.72796  0.88795  0.73540  Biso   1.000  C
  C206     1.0000 0.78551  0.17342  0.98372  Biso   1.000  C
  C207     1.0000 0.97608  0.30802  0.92460  Biso   1.000  C
  C208     1.0000 0.92504  0.24839  0.97402  Biso   1.000  C
  C209     1.0000 0.83820  0.45168  0.95420  Biso   1.000  C
  C210     1.0000 0.63110  0.97166  0.95430  Biso   1.000  C
  C211     1.0000 0.46096  0.01927  0.94450  Biso   1.000  C
  C212     1.0000 0.94729  0.32549  0.72210  Biso   1.000  C
  O37      1.0000 0.12117  0.06077  0.80862  Biso   1.000  O
  C213     1.0000 0.18056  0.10888  0.86400  Biso   1.000  C
  C214     1.0000 0.14319  0.23152  0.88052  Biso   1.000  C
  C215     1.0000 0.72811  0.83281  0.75970  Biso   1.000  C
  O38      1.0000 0.85341  0.23277  0.99481  Biso   1.000  O
  C216     1.0000 0.07089  0.27531  0.93160  Biso   1.000  C
  C217     1.0000 0.02001  0.21568  0.98102  Biso   1.000  C
  C218     1.0000 0.81744  0.52659  0.93631  Biso   1.000  C
  C219     1.0000 0.52880  0.96467  0.95721  Biso   1.000  C
  C220     1.0000 0.90173  0.31102  0.68210  Biso   1.000  C
  C221     1.0000 0.22677  0.03222  0.87401  Biso   1.000  C
  C222     1.0000 0.19056  0.16468  0.88832  Biso   1.000  C
  C223     1.0000 0.15261  0.29142  0.90682  Biso   1.000  C
  C224     1.0000 0.70646  0.74948  0.74691  Biso   1.000  C
  C225     1.0000 0.09289  0.22917  0.95981  Biso   1.000  C
  C226     1.0000 0.04410  0.16310  0.01131  Biso   1.000  C
  C227     1.0000 0.91433  0.57317  0.95381  Biso   1.000  C
  C228     1.0000 0.49968  0.89707  0.97461  Biso   1.000  C
  C229     1.0000 0.96067  0.27061  0.65899  Biso   1.000  C
  C230     1.0000 0.17269  0.98897  0.89411  Biso   1.000  C
  C231     1.0000 0.31549  0.00579  0.86372  Biso   1.000  C
  O39      1.0000 0.25542  0.15229  0.91920  Biso   1.000  O
  C232     1.0000 0.14306  0.37097  0.89130  Biso   1.000  C
  O40      1.0000 0.71556  0.70978  0.76950  Biso   1.000  O
  O41      1.0000 0.68131  0.75396  0.71450  Biso   1.000  O
  O42      1.0000 0.19092  0.19941  0.96730  Biso   1.000  O
  C233     1.0000 0.06531  0.09020  0.00562  Biso   1.000  C
  C234     1.0000 0.03660  0.18729  0.04440  Biso   1.000  C
  C235     1.0000 0.85517  0.59370  0.98452  Biso   1.000  C
  O43      1.0000 0.40260  0.88976  0.97530  Biso   1.000  O
  O44      1.0000 0.57016  0.85536  0.98982  Biso   1.000  O
  C236     1.0000 0.20722  0.91941  0.90381  Biso   1.000  C
  C237     1.0000 0.35001  0.93617  0.87342  Biso   1.000  C
  C238     1.0000 0.21199  0.13607  0.94862  Biso   1.000  C
  C239     1.0000 0.17217  0.42629  0.92280  Biso   1.000  C
  C240     1.0000 0.66259  0.67140  0.71000  Biso   1.000  C
  C241     1.0000 0.07886  0.04139  0.03300  Biso   1.000  C
  C242     1.0000 0.05009  0.13858  0.07181  Biso   1.000  C
  C243     1.0000 0.53938  0.78639  0.00701  Biso   1.000  C
  C244     1.0000 0.29586  0.89298  0.89352  Biso   1.000  C
  C245     1.0000 0.14531  0.50650  0.90502  Biso   1.000  C
  C246     1.0000 0.07130  0.06558  0.06612  Biso   1.000  C
  C247     1.0000 0.34511  0.80758  0.90152  Biso   1.000  C
  C248     1.0000 0.05635  0.54461  0.91650  Biso   1.000  C
  C249     1.0000 0.08719  0.01021  0.09160  Biso   1.000  C
  O45      1.0000 0.27099  0.78858  0.92090  Biso   1.000  O
  O46      1.0000 0.42668  0.80250  0.89470  Biso   1.000  O
  C250     1.0000 0.07870  0.62499  0.91192  Biso   1.000  C
  O47      1.0000 0.08200  0.94196  0.08331  Biso   1.000  O
  O48      1.0000 0.10108  0.02910  0.12330  Biso   1.000  O
  C251     1.0000 0.29950  0.70908  0.93621  Biso   1.000  C
  C252     1.0000 0.09812  0.88795  0.11180  Biso   1.000  C
  C253     1.0000 0.36064  0.53478  0.27310  Biso   1.000  C
  C254     1.0000 0.34573  0.61587  0.26700  Biso   1.000  C
  C255     1.0000 0.41214  0.61898  0.24291  Biso   1.000  C
  C256     1.0000 0.38711  0.70438  0.23630  Biso   1.000  C
  C257     1.0000 0.35776  0.69526  0.19561  Biso   1.000  C
  C258     1.0000 0.35173  0.77848  0.18269  Biso   1.000  C
  C259     1.0000 0.33793  0.78017  0.14260  Biso   1.000  C
  C260     1.0000 0.26791  0.82680  0.19409  Biso   1.000  C
  C261     1.0000 0.28282  0.72720  0.12260  Biso   1.000  C
  C262     1.0000 0.37848  0.83919  0.12700  Biso   1.000  C
  C263     1.0000 0.28204  0.90100  0.20050  Biso   1.000  C
  C264     1.0000 0.17562  0.79426  0.19741  Biso   1.000  C
  C265     1.0000 0.26850  0.73321  0.08691  Biso   1.000  C
  C266     1.0000 0.36423  0.84520  0.09131  Biso   1.000  C
  O49      1.0000 0.43900  0.89238  0.14630  Biso   1.000  O
  O50      1.0000 0.37532  0.93169  0.19651  Biso   1.000  O
  C267     1.0000 0.20377  0.94267  0.21031  Biso   1.000  C
  C268     1.0000 0.09741  0.83597  0.20719  Biso   1.000  C
  C269     1.0000 0.30912  0.79218  0.07131  Biso   1.000  C
  C270     1.0000 0.20600  0.67489  0.06349  Biso   1.000  C
  C271     1.0000 0.40242  0.91209  0.07370  Biso   1.000  C
  C272     1.0000 0.38882  0.95037  0.16041  Biso   1.000  C
  C273     1.0000 0.11147  0.91018  0.21360  Biso   1.000  C
  C274     1.0000 0.22918  0.02419  0.21921  Biso   1.000  C
  C275     1.0000 0.98701  0.80927  0.21061  Biso   1.000  C
  O51      1.0000 0.30727  0.79666  0.03600  Biso   1.000  O
  C276     1.0000 0.09712  0.70547  0.05430  Biso   1.000  C
  C277     1.0000 0.20602  0.59670  0.07991  Biso   1.000  C
  C278     1.0000 0.33462  0.96669  0.06109  Biso   1.000  C
  C279     1.0000 0.50468  0.91908  0.07090  Biso   1.000  C
  O52      1.0000 0.03772  0.95730  0.22240  Biso   1.000  O
  C280     1.0000 0.22886  0.07939  0.19489  Biso   1.000  C
  C281     1.0000 0.25084  0.04052  0.25400  Biso   1.000  C
  C282     1.0000 0.92437  0.81326  0.17580  Biso   1.000  C
  C283     1.0000 0.99020  0.72737  0.22549  Biso   1.000  C
  C284     1.0000 0.21469  0.82658  0.01629  Biso   1.000  C
  C285     1.0000 0.02412  0.69198  0.07540  Biso   1.000  C
  C286     1.0000 0.07508  0.75161  0.02599  Biso   1.000  C
  C287     1.0000 0.16200  0.54827  0.04581  Biso   1.000  C
  C288     1.0000 0.36910  0.02828  0.04571  Biso   1.000  C
  C289     1.0000 0.53916  0.98067  0.05551  Biso   1.000  C
  C290     1.0000 0.96631  0.98995  0.19690  Biso   1.000  C
  C291     1.0000 0.25029  0.15092  0.20539  Biso   1.000  C
  C292     1.0000 0.27224  0.11199  0.26461  Biso   1.000  C
  C293     1.0000 0.87701  0.88009  0.16800  Biso   1.000  C
  C294     1.0000 0.91428  0.75751  0.15160  Biso   1.000  C
  C295     1.0000 0.03904  0.74746  0.26790  Biso   1.000  C
  O53      1.0000 0.14679  0.76717  0.00520  Biso   1.000  O
  C296     1.0000 0.92931  0.72469  0.06840  Biso   1.000  C
  C297     1.0000 0.98019  0.78426  0.01899  Biso   1.000  C
  C298     1.0000 0.18268  0.47341  0.06369  Biso   1.000  C
  C299     1.0000 0.47139  0.03527  0.04280  Biso   1.000  C
  O54      1.0000 0.87903  0.93917  0.19139  Biso   1.000  O
  C300     1.0000 0.27201  0.16719  0.24031  Biso   1.000  C
  C301     1.0000 0.81963  0.89107  0.13601  Biso   1.000  C
  C302     1.0000 0.85701  0.76848  0.11951  Biso   1.000  C
  C303     1.0000 0.05284  0.67451  0.27791  Biso   1.000  C
  C304     1.0000 0.90730  0.77078  0.04020  Biso   1.000  C
  C305     1.0000 0.84760  0.70858  0.09321  Biso   1.000  C
  C306     1.0000 0.95610  0.83690  0.98870  Biso   1.000  C
  C307     1.0000 0.08579  0.42678  0.04619  Biso   1.000  C
  C308     1.0000 0.50051  0.10287  0.02540  Biso   1.000  C
  C309     1.0000 0.29374  0.25052  0.25310  Biso   1.000  C
  C310     1.0000 0.77343  0.96778  0.12600  Biso   1.000  C
  C311     1.0000 0.80956  0.83526  0.11169  Biso   1.000  C
  C312     1.0000 0.09847  0.68898  0.31790  Biso   1.000  C
  O55      1.0000 0.80928  0.80059  0.03271  Biso   1.000  O
  C313     1.0000 0.85706  0.62897  0.10870  Biso   1.000  C
  C314     1.0000 0.93489  0.90980  0.99439  Biso   1.000  C
  C315     1.0000 0.96359  0.81266  0.95561  Biso   1.000  C
  C316     1.0000 0.14502  0.40630  0.01549  Biso   1.000  C
  O56      1.0000 0.59760  0.11019  0.02471  Biso   1.000  O
  O57      1.0000 0.42996  0.14459  0.01019  Biso   1.000  O
  O58      1.0000 0.28463  0.29022  0.23051  Biso   1.000  O
  O59      1.0000 0.31888  0.24599  0.28550  Biso   1.000  O
  C317     1.0000 0.68471  0.99416  0.13629  Biso   1.000  C
  C318     1.0000 0.82750  0.01098  0.10590  Biso   1.000  C
  O60      1.0000 0.74478  0.84766  0.08081  Biso   1.000  O
  C319     1.0000 0.03945  0.72939  0.34101  Biso   1.000  C
  C320     1.0000 0.78821  0.86387  0.05139  Biso   1.000  C
  C321     1.0000 0.82802  0.57371  0.07720  Biso   1.000  C
  C322     1.0000 0.92126  0.95856  0.96701  Biso   1.000  C
  C323     1.0000 0.95011  0.86136  0.92820  Biso   1.000  C
  C324     1.0000 0.46082  0.21361  0.99300  Biso   1.000  C
  C325     1.0000 0.33753  0.32860  0.29001  Biso   1.000  C
  C326     1.0000 0.65019  0.06378  0.12659  Biso   1.000  C
  C327     1.0000 0.79298  0.08059  0.09620  Biso   1.000  C
  C328     1.0000 0.85490  0.49350  0.09501  Biso   1.000  C
  C329     1.0000 0.92891  0.93437  0.93391  Biso   1.000  C
  C330     1.0000 0.70426  0.10702  0.10649  Biso   1.000  C
  C331     1.0000 0.94377  0.45539  0.08351  Biso   1.000  C
  C332     1.0000 0.91301  0.98979  0.90841  Biso   1.000  C
  C333     1.0000 0.65510  0.19242  0.09851  Biso   1.000  C
  C334     1.0000 0.92149  0.37501  0.08809  Biso   1.000  C
  O61      1.0000 0.89904  0.97090  0.87670  Biso   1.000  O
  O62      1.0000 0.91819  0.05799  0.91670  Biso   1.000  O
  O63      1.0000 0.72920  0.21137  0.07911  Biso   1.000  O
  O64      1.0000 0.57352  0.19750  0.10531  Biso   1.000  O
  C335     1.0000 0.90207  0.11199  0.88821  Biso   1.000  C
  C336     1.0000 0.70069  0.29087  0.06380  Biso   1.000  C
