data_image0
_cell_length_a       12.434
_cell_length_b       16.122
_cell_length_c       12.667
_cell_angle_alpha    90
_cell_angle_beta     104.92
_cell_angle_gamma    90

_symmetry_space_group_name_H-M    "P 1"
_symmetry_int_tables_number       1

loop_
  _symmetry_equiv_pos_as_xyz
  'x, y, z'

loop_
  _atom_site_label
  _atom_site_occupancy
  _atom_site_fract_x
  _atom_site_fract_y
  _atom_site_fract_z
  _atom_site_thermal_displace_type
  _atom_site_B_iso_or_equiv
  _atom_site_type_symbol
  C1       1.0000 0.58008  0.32899  0.48407  Biso   1.000  C
  N1       1.0000 0.55218  0.26690  0.39886  Biso   1.000  N
  N2       1.0000 0.64435  0.29283  0.58530  Biso   1.000  N
  H1       1.0000 0.62311  0.37353  0.46168  Biso   1.000  H
  H2       1.0000 0.51156  0.35318  0.49543  Biso   1.000  H
  C2       1.0000 0.44781  0.22218  0.37010  Biso   1.000  C
  C3       1.0000 0.61857  0.25208  0.32941  Biso   1.000  C
  C4       1.0000 0.62114  0.21058  0.62190  Biso   1.000  C
  C5       1.0000 0.71603  0.33668  0.66446  Biso   1.000  C
  N3       1.0000 0.43210  0.16512  0.45311  Biso   1.000  N
  H3       1.0000 0.38334  0.25989  0.34510  Biso   1.000  H
  C6       1.0000 0.46271  0.16363  0.27696  Biso   1.000  C
  N4       1.0000 0.56826  0.19061  0.25931  Biso   1.000  N
  O1       1.0000 0.70349  0.28774  0.32966  Biso   1.000  O
  N5       1.0000 0.51057  0.19960  0.64036  Biso   1.000  N
  C7       1.0000 0.69936  0.20643  0.73889  Biso   1.000  C
  H4       1.0000 0.63839  0.16648  0.57451  Biso   1.000  H
  O2       1.0000 0.74979  0.40715  0.65368  Biso   1.000  O
  N6       1.0000 0.74764  0.28942  0.75556  Biso   1.000  N
  C8       1.0000 0.40926  0.19111  0.55368  Biso   1.000  C
  C9       1.0000 0.44755  0.08429  0.42737  Biso   1.000  C
  N7       1.0000 0.46522  0.08200  0.32549  Biso   1.000  N
  H5       1.0000 0.40088  0.16927  0.21021  Biso   1.000  H
  C10      1.0000 0.61078  0.16499  0.16846  Biso   1.000  C
  C11      1.0000 0.51694  0.18193  0.74772  Biso   1.000  C
  N8       1.0000 0.62423  0.18738  0.80629  Biso   1.000  N
  H6       1.0000 0.75726  0.16319  0.74502  Biso   1.000  H
  C12      1.0000 0.81121  0.32031  0.86087  Biso   1.000  C
  H7       1.0000 0.36059  0.15029  0.57541  Biso   1.000  H
  H8       1.0000 0.36995  0.24432  0.54240  Biso   1.000  H
  O3       1.0000 0.44445  0.02444  0.48669  Biso   1.000  O
  C13      1.0000 0.47255  0.00651  0.26667  Biso   1.000  C
  H9       1.0000 0.65473  0.21071  0.14992  Biso   1.000  H
  H10      1.0000 0.54771  0.15538  0.10523  Biso   1.000  H
  N9       1.0000 0.67953  0.09099  0.18742  Biso   1.000  N
  O4       1.0000 0.43628  0.16251  0.78211  Biso   1.000  O
  C14      1.0000 0.66167  0.16530  0.92206  Biso   1.000  C
  N10      1.0000 0.88949  0.26033  0.91798  Biso   1.000  N
  H11      1.0000 0.85107  0.37067  0.85000  Biso   1.000  H
  H12      1.0000 0.76014  0.33488  0.90531  Biso   1.000  H
  H13      1.0000 0.42790  0.01278  0.19118  Biso   1.000  H
  H14      1.0000 0.44029  0.96111  0.29976  Biso   1.000  H
  N11      1.0000 0.58452  0.98431  0.26552  Biso   1.000  N
  C15      1.0000 0.63687  0.00720  0.17900  Biso   1.000  C
  C16      1.0000 0.79407  0.09323  0.21936  Biso   1.000  C
  N12      1.0000 0.77649  0.14279  0.95172  Biso   1.000  N
  H15      1.0000 0.65019  0.21263  0.96659  Biso   1.000  H
  H16      1.0000 0.61706  0.11878  0.93718  Biso   1.000  H
  C17      1.0000 0.86712  0.19973  0.99461  Biso   1.000  C
  C18      1.0000 0.99008  0.24718  0.89461  Biso   1.000  C
  C19      1.0000 0.63677  0.91812  0.32549  Biso   1.000  C
  H17      1.0000 0.58754  0.99591  0.10564  Biso   1.000  H
  C20      1.0000 0.74317  0.95249  0.20286  Biso   1.000  C
  O5       1.0000 0.85194  0.15482  0.22876  Biso   1.000  O
  N13      1.0000 0.83247  0.01340  0.23456  Biso   1.000  N
  C21      1.0000 0.81212  0.06153  0.95172  Biso   1.000  C
  C22      1.0000 0.97205  0.14341  0.01749  Biso   1.000  C
  H18      1.0000 0.85925  0.22677  0.06242  Biso   1.000  H
  O6       1.0000 0.03042  0.29277  0.83685  Biso   1.000  O
  N14      1.0000 0.03920  0.17882  0.95066  Biso   1.000  N
  O7       1.0000 0.60598  0.88178  0.39698  Biso   1.000  O
  N15      1.0000 0.73127  0.90038  0.29330  Biso   1.000  N
  H19      1.0000 0.74850  0.91949  0.13856  Biso   1.000  H
  C23      1.0000 0.94927  0.99293  0.26070  Biso   1.000  C
  O8       1.0000 0.75116  0.00149  0.92966  Biso   1.000  O
  N16      1.0000 0.92591  0.06128  0.98448  Biso   1.000  N
  H20      1.0000 0.01222  0.14440  0.09584  Biso   1.000  H
  C24      1.0000 0.14428  0.14713  0.94069  Biso   1.000  C
  C25      1.0000 0.79962  0.82899  0.33129  Biso   1.000  C
  H21      1.0000 0.99066  0.04193  0.24771  Biso   1.000  H
  H22      1.0000 0.96055  0.94932  0.21079  Biso   1.000  H
  N17      1.0000 0.99520  0.96533  0.37141  Biso   1.000  N
  C26      1.0000 0.98900  0.98431  0.00670  Biso   1.000  C
  N18      1.0000 0.13387  0.07629  0.86822  Biso   1.000  N
  H23      1.0000 0.18405  0.19142  0.91357  Biso   1.000  H
  H24      1.0000 0.18931  0.13100  0.01332  Biso   1.000  H
  H25      1.0000 0.75452  0.78700  0.35588  Biso   1.000  H
  H26      1.0000 0.82420  0.80542  0.27018  Biso   1.000  H
  N19      1.0000 0.89578  0.84692  0.41920  Biso   1.000  N
  C27      1.0000 0.99895  0.87781  0.40319  Biso   1.000  C
  C28      1.0000 0.07057  0.01197  0.44657  Biso   1.000  C
  H27      1.0000 0.93940  0.94039  0.01937  Biso   1.000  H
  N20      1.0000 0.03852  0.95782  0.92076  Biso   1.000  N
  H28      1.0000 0.04826  0.99119  0.07411  Biso   1.000  H
  C29      1.0000 0.14194  0.99119  0.90572  Biso   1.000  C
  C30      1.0000 0.14776  0.08343  0.76479  Biso   1.000  C
  C31      1.0000 0.90134  0.83110  0.52655  Biso   1.000  C
  H29      1.0000 0.02771  0.84220  0.35278  Biso   1.000  H
  C32      1.0000 0.07774  0.87849  0.51928  Biso   1.000  C
  N21      1.0000 0.11496  0.96328  0.53489  Biso   1.000  N
  O9       1.0000 0.09351  0.08516  0.43530  Biso   1.000  O
  C33      1.0000 0.99448  0.89722  0.84731  Biso   1.000  C
  C34      1.0000 0.15913  0.94169  0.80597  Biso   1.000  C
  H30      1.0000 0.20457  0.98319  0.97125  Biso   1.000  H
  N22      1.0000 0.15933  0.00521  0.72582  Biso   1.000  N
  O10      1.0000 0.15072  0.14843  0.71626  Biso   1.000  O
  O11      1.0000 0.82648  0.80151  0.56218  Biso   1.000  O
  N23      1.0000 0.00508  0.85287  0.58783  Biso   1.000  N
  H31      1.0000 0.14090  0.83960  0.52582  Biso   1.000  H
  C35      1.0000 0.19930  0.99231  0.62892  Biso   1.000  C
  N24      1.0000 0.06384  0.88643  0.78089  Biso   1.000  N
  O12      1.0000 0.91042  0.85659  0.84510  Biso   1.000  O
  H32      1.0000 0.23008  0.91049  0.82476  Biso   1.000  H
  C36      1.0000 0.04908  0.82211  0.69886  Biso   1.000  C
  H33      1.0000 0.26014  0.95180  0.64592  Biso   1.000  H
  H34      1.0000 0.22980  0.04472  0.60997  Biso   1.000  H
  H35      1.0000 0.99805  0.77999  0.71406  Biso   1.000  H
  H36      1.0000 0.12082  0.79519  0.70409  Biso   1.000  H
  O13      1.0000 0.39398  0.38178  0.60303  Biso   1.000  O
  C37      1.0000 0.36318  0.41812  0.67451  Biso   1.000  C
  N25      1.0000 0.26868  0.40038  0.70670  Biso   1.000  N
  N26      1.0000 0.41543  0.48431  0.73448  Biso   1.000  N
  C38      1.0000 0.20033  0.32899  0.66871  Biso   1.000  C
  C39      1.0000 0.25676  0.45249  0.79706  Biso   1.000  C
  C40      1.0000 0.36308  0.50720  0.82100  Biso   1.000  C
  C41      1.0000 0.52738  0.50651  0.73325  Biso   1.000  C
  N27      1.0000 0.10417  0.34692  0.58080  Biso   1.000  N
  H37      1.0000 0.24543  0.28700  0.64412  Biso   1.000  H
  H38      1.0000 0.17575  0.30542  0.72982  Biso   1.000  H
  N28      1.0000 0.16745  0.51340  0.76536  Biso   1.000  N
  H39      1.0000 0.25142  0.41949  0.86136  Biso   1.000  H
  N29      1.0000 0.32042  0.59099  0.81259  Biso   1.000  N
  H40      1.0000 0.41241  0.49591  0.89437  Biso   1.000  H
  N30      1.0000 0.53473  0.58200  0.67451  Biso   1.000  N
  H41      1.0000 0.55964  0.46111  0.70017  Biso   1.000  H
  H42      1.0000 0.57205  0.51278  0.80883  Biso   1.000  H
  C42      1.0000 0.09859  0.33110  0.47337  Biso   1.000  C
  C43      1.0000 0.00100  0.37781  0.59682  Biso   1.000  C
  C44      1.0000 0.05068  0.49293  0.73930  Biso   1.000  C
  C45      1.0000 0.20586  0.59323  0.78056  Biso   1.000  C
  C46      1.0000 0.38915  0.66499  0.83146  Biso   1.000  C
  C47      1.0000 0.55238  0.58429  0.57255  Biso   1.000  C
  C48      1.0000 0.53722  0.66363  0.72296  Biso   1.000  C
  N31      1.0000 0.99487  0.35287  0.41217  Biso   1.000  N
  O14      1.0000 0.17347  0.30151  0.43783  Biso   1.000  O
  C49      1.0000 0.92221  0.37849  0.48072  Biso   1.000  C
  N32      1.0000 0.00475  0.46533  0.62860  Biso   1.000  N
  H43      1.0000 0.97224  0.34220  0.64722  Biso   1.000  H
  H44      1.0000 0.00929  0.54193  0.75229  Biso   1.000  H
  H45      1.0000 0.03940  0.44932  0.78922  Biso   1.000  H
  O15      1.0000 0.14799  0.65482  0.77116  Biso   1.000  O
  N33      1.0000 0.43169  0.69061  0.74069  Biso   1.000  N
  H46      1.0000 0.34522  0.71071  0.85009  Biso   1.000  H
  H47      1.0000 0.45224  0.65538  0.89478  Biso   1.000  H
  N34      1.0000 0.56785  0.66512  0.54690  Biso   1.000  N
  O16      1.0000 0.55550  0.52444  0.51332  Biso   1.000  O
  C50      1.0000 0.55214  0.72218  0.62990  Biso   1.000  C
  H48      1.0000 0.59907  0.66927  0.78979  Biso   1.000  H
  C51      1.0000 0.95085  0.32211  0.30106  Biso   1.000  C
  N35      1.0000 0.88499  0.46328  0.46512  Biso   1.000  N
  H49      1.0000 0.85906  0.33960  0.47419  Biso   1.000  H
  C52      1.0000 0.92936  0.51197  0.55335  Biso   1.000  C
  C53      1.0000 0.38138  0.75208  0.67059  Biso   1.000  C
  C54      1.0000 0.59069  0.69111  0.44633  Biso   1.000  C
  N36      1.0000 0.44775  0.76690  0.60106  Biso   1.000  N
  H50      1.0000 0.61661  0.75989  0.65490  Biso   1.000  H
  N37      1.0000 0.93611  0.38643  0.21912  Biso   1.000  N
  H51      1.0000 0.00188  0.27999  0.28587  Biso   1.000  H
  H52      1.0000 0.87905  0.29519  0.29592  Biso   1.000  H
  C55      1.0000 0.80065  0.49231  0.37108  Biso   1.000  C
  O17      1.0000 0.90644  0.58516  0.56471  Biso   1.000  O
  O18      1.0000 0.29644  0.78774  0.67026  Biso   1.000  O
  N38      1.0000 0.48936  0.69960  0.35956  Biso   1.000  N
  H53      1.0000 0.63936  0.65029  0.42459  Biso   1.000  H
  H54      1.0000 0.63000  0.74432  0.45760  Biso   1.000  H
  C56      1.0000 0.41987  0.82899  0.51593  Biso   1.000  C
  C57      1.0000 0.00547  0.39722  0.15270  Biso   1.000  C
  C58      1.0000 0.84083  0.44169  0.19404  Biso   1.000  C
  N39      1.0000 0.84062  0.50521  0.27418  Biso   1.000  N
  H55      1.0000 0.77015  0.54472  0.39003  Biso   1.000  H
  H56      1.0000 0.73981  0.45180  0.35409  Biso   1.000  H
  C59      1.0000 0.48301  0.68193  0.25229  Biso   1.000  C
  C60      1.0000 0.37881  0.71058  0.37811  Biso   1.000  C
  N40      1.0000 0.35560  0.79283  0.41471  Biso   1.000  N
  H57      1.0000 0.37684  0.87353  0.53832  Biso   1.000  H
  H58      1.0000 0.48839  0.85318  0.50458  Biso   1.000  H
  O19      1.0000 0.08953  0.35659  0.15490  Biso   1.000  O
  N41      1.0000 0.96141  0.45782  0.07917  Biso   1.000  N
  C61      1.0000 0.85801  0.49119  0.09428  Biso   1.000  C
  H59      1.0000 0.76985  0.41049  0.17516  Biso   1.000  H
  C62      1.0000 0.85219  0.58343  0.23521  Biso   1.000  C
  N42      1.0000 0.37572  0.68738  0.19371  Biso   1.000  N
  O20      1.0000 0.56367  0.66251  0.21789  Biso   1.000  O
  C63      1.0000 0.30059  0.70643  0.26111  Biso   1.000  C
  H60      1.0000 0.36156  0.66648  0.42549  Biso   1.000  H
  C64      1.0000 0.28390  0.83668  0.33546  Biso   1.000  C
  C65      1.0000 0.01095  0.48431  0.99330  Biso   1.000  C
  N43      1.0000 0.86608  0.57629  0.13178  Biso   1.000  N
  H61      1.0000 0.79536  0.48319  0.02868  Biso   1.000  H
  O21      1.0000 0.84921  0.64843  0.28366  Biso   1.000  O
  C66      1.0000 0.33826  0.66530  0.07786  Biso   1.000  C
  N44      1.0000 0.25229  0.78942  0.24436  Biso   1.000  N
  H62      1.0000 0.24269  0.66319  0.25498  Biso   1.000  H
  O22      1.0000 0.25016  0.90715  0.34632  Biso   1.000  O
  N45      1.0000 0.07404  0.56128  0.01552  Biso   1.000  N
  H63      1.0000 0.95169  0.49119  0.92590  Biso   1.000  H
  H64      1.0000 0.06053  0.44039  0.98056  Biso   1.000  H
  C67      1.0000 0.85567  0.64713  0.05931  Biso   1.000  C
  N46      1.0000 0.22346  0.64279  0.04828  Biso   1.000  N
  H65      1.0000 0.34977  0.71263  0.03342  Biso   1.000  H
  H66      1.0000 0.38289  0.61878  0.06283  Biso   1.000  H
  C68      1.0000 0.18874  0.82031  0.13913  Biso   1.000  C
  C69      1.0000 0.18783  0.56153  0.04828  Biso   1.000  C
  C70      1.0000 0.02791  0.64341  0.98252  Biso   1.000  C
  H67      1.0000 0.81065  0.63100  0.98668  Biso   1.000  H
  H68      1.0000 0.81590  0.69142  0.08644  Biso   1.000  H
  N47      1.0000 0.96073  0.67882  0.04926  Biso   1.000  N
  C71      1.0000 0.13283  0.69973  0.00539  Biso   1.000  C
  N48      1.0000 0.11046  0.76033  0.08203  Biso   1.000  N
  H69      1.0000 0.14888  0.87067  0.15000  Biso   1.000  H
  H70      1.0000 0.23981  0.83488  0.09469  Biso   1.000  H
  O23      1.0000 0.24877  0.50149  0.07026  Biso   1.000  O
  H71      1.0000 0.98773  0.64440  0.90417  Biso   1.000  H
  C72      1.0000 0.00987  0.74718  0.10539  Biso   1.000  C
  H72      1.0000 0.14070  0.72677  0.93758  Biso   1.000  H
  O24      1.0000 0.96951  0.79277  0.16307  Biso   1.000  O
  Ne1      1.0000 0.80695  0.07942  0.59355  Biso   1.000  Ne
  He1      1.0000 0.69977  0.96882  0.65247  Biso   1.000  He
  He2      1.0000 0.94112  0.26711  0.54633  Biso   1.000  He
  Ar1      1.0000 0.84326  0.05372  0.58155  Biso   1.000  Ar
  Ne2      1.0000 0.19299  0.57942  0.40643  Biso   1.000  Ne
  He3      1.0000 0.11623  0.67807  0.45711  Biso   1.000  He
  He4      1.0000 0.35008  0.41749  0.32690  Biso   1.000  He
  Ar2      1.0000 0.14360  0.54862  0.40159  Biso   1.000  Ar
