data_image0
_cell_length_a       10.808
_cell_length_b       5.536
_cell_length_c       16.658
_cell_angle_alpha    90
_cell_angle_beta     90.45
_cell_angle_gamma    90

_symmetry_space_group_name_H-M    "P 1"
_symmetry_int_tables_number       1

loop_
  _symmetry_equiv_pos_as_xyz
  'x, y, z'

loop_
  _atom_site_label
  _atom_site_occupancy
  _atom_site_fract_x
  _atom_site_fract_y
  _atom_site_fract_z
  _atom_site_thermal_displace_type
  _atom_site_B_iso_or_equiv
  _atom_site_type_symbol
  N1       1.0000 0.63340  0.62428  0.35035  Biso   1.000  N
  C1       1.0000 0.68567  0.44418  0.31109  Biso   1.000  C
  N2       1.0000 0.70228  0.73302  0.40654  Biso   1.000  N
  O1       1.0000 0.62472  0.33345  0.25172  Biso   1.000  O
  N3       1.0000 0.79854  0.34971  0.32556  Biso   1.000  N
  C2       1.0000 0.81566  0.64812  0.41759  Biso   1.000  C
  C3       1.0000 0.49807  0.40914  0.23779  Biso   1.000  C
  N4       1.0000 0.86610  0.45647  0.38097  Biso   1.000  N
  O2       1.0000 0.89198  0.75415  0.47042  Biso   1.000  O
  C4       1.0000 0.41318  0.31954  0.30269  Biso   1.000  C
  H1       1.0000 0.49462  0.58779  0.23569  Biso   1.000  H
  H2       1.0000 0.46930  0.34628  0.18520  Biso   1.000  H
  C5       1.0000 0.83891  0.94509  0.51953  Biso   1.000  C
  C6       1.0000 0.30391  0.44346  0.31818  Biso   1.000  C
  C7       1.0000 0.43895  0.11236  0.34555  Biso   1.000  C
  C8       1.0000 0.75056  0.84827  0.58100  Biso   1.000  C
  H3       1.0000 0.90642  0.03324  0.54732  Biso   1.000  H
  H4       1.0000 0.79472  0.06105  0.48441  Biso   1.000  H
  H5       1.0000 0.28524  0.58761  0.28954  Biso   1.000  H
  C9       1.0000 0.22197  0.35748  0.37527  Biso   1.000  C
  C10      1.0000 0.35870  0.03107  0.40408  Biso   1.000  C
  H6       1.0000 0.51257  0.02439  0.33492  Biso   1.000  H
  C11      1.0000 0.77801  0.64252  0.62470  Biso   1.000  C
  C12      1.0000 0.64137  0.96911  0.59595  Biso   1.000  C
  H7       1.0000 0.14649  0.44075  0.38439  Biso   1.000  H
  C13      1.0000 0.24952  0.15173  0.41897  Biso   1.000  C
  H8       1.0000 0.37887  0.89072  0.43422  Biso   1.000  H
  C14      1.0000 0.69617  0.55654  0.68180  Biso   1.000  C
  H9       1.0000 0.85358  0.55943  0.61564  Biso   1.000  H
  C15      1.0000 0.56103  0.88783  0.65442  Biso   1.000  C
  H10      1.0000 0.62112  0.10947  0.56581  Biso   1.000  H
  C16      1.0000 0.16116  0.05491  0.48044  Biso   1.000  C
  C17      1.0000 0.58690  0.68046  0.69728  Biso   1.000  C
  H11      1.0000 0.71474  0.41257  0.71043  Biso   1.000  H
  H12      1.0000 0.48751  0.97561  0.66511  Biso   1.000  H
  O3       1.0000 0.10809  0.24585  0.52961  Biso   1.000  O
  H13      1.0000 0.09356  0.96694  0.45271  Biso   1.000  H
  H14      1.0000 0.20535  0.93913  0.51562  Biso   1.000  H
  C18      1.0000 0.50201  0.59086  0.76224  Biso   1.000  C
  C19      1.0000 0.18442  0.35206  0.58244  Biso   1.000  C
  O4       1.0000 0.37536  0.66655  0.74825  Biso   1.000  O
  H15      1.0000 0.50546  0.41239  0.76428  Biso   1.000  H
  H16      1.0000 0.53077  0.65372  0.81477  Biso   1.000  H
  N5       1.0000 0.13397  0.54371  0.61900  Biso   1.000  N
  N6       1.0000 0.29771  0.26698  0.59343  Biso   1.000  N
  C20      1.0000 0.31432  0.55582  0.68888  Biso   1.000  C
  N7       1.0000 0.20154  0.65029  0.67447  Biso   1.000  N
  N8       1.0000 0.36658  0.37572  0.64968  Biso   1.000  N
