data_image0
_cell_length_a       18.463
_cell_length_b       19.034
_cell_length_c       19.117
_cell_angle_alpha    90
_cell_angle_beta     100.61
_cell_angle_gamma    90

_symmetry_space_group_name_H-M    "P 1"
_symmetry_int_tables_number       1

loop_
  _symmetry_equiv_pos_as_xyz
  'x, y, z'

loop_
  _atom_site_label
  _atom_site_occupancy
  _atom_site_fract_x
  _atom_site_fract_y
  _atom_site_fract_z
  _atom_site_thermal_displace_type
  _atom_site_B_iso_or_equiv
  _atom_site_type_symbol
  C1       1.0000 0.53137  0.42056  0.53459  Biso   1.000  C
  C2       1.0000 0.49462  0.43680  0.58930  Biso   1.000  C
  C3       1.0000 0.49195  0.39119  0.47328  Biso   1.000  C
  H1       1.0000 0.58266  0.42949  0.53911  Biso   1.000  H
  N1       1.0000 0.42286  0.42461  0.58531  Biso   1.000  N
  C4       1.0000 0.53492  0.46911  0.65662  Biso   1.000  C
  C5       1.0000 0.41734  0.37811  0.46828  Biso   1.000  C
  H2       1.0000 0.51585  0.37990  0.43470  Biso   1.000  H
  C6       1.0000 0.38494  0.39540  0.52591  Biso   1.000  C
  N2       1.0000 0.49923  0.45540  0.71660  Biso   1.000  N
  H3       1.0000 0.53825  0.52049  0.64991  Biso   1.000  H
  H4       1.0000 0.58575  0.45019  0.66700  Biso   1.000  H
  H5       1.0000 0.38914  0.35778  0.42661  Biso   1.000  H
  C7       1.0000 0.30603  0.37838  0.52708  Biso   1.000  C
  C8       1.0000 0.45824  0.50447  0.74731  Biso   1.000  C
  C9       1.0000 0.48996  0.38731  0.74039  Biso   1.000  C
  N3       1.0000 0.25281  0.43638  0.49819  Biso   1.000  N
  H6       1.0000 0.29236  0.33529  0.49882  Biso   1.000  H
  H7       1.0000 0.30094  0.36829  0.57679  Biso   1.000  H
  O1       1.0000 0.45224  0.56609  0.73091  Biso   1.000  O
  C10      1.0000 0.42554  0.46559  0.80111  Biso   1.000  C
  O2       1.0000 0.51618  0.33514  0.71910  Biso   1.000  O
  C11      1.0000 0.44341  0.39487  0.79568  Biso   1.000  C
  C12      1.0000 0.17496  0.41210  0.49670  Biso   1.000  C
  C13      1.0000 0.26829  0.50299  0.54103  Biso   1.000  C
  H8       1.0000 0.26028  0.44221  0.45130  Biso   1.000  H
  C14      1.0000 0.38360  0.48928  0.84959  Biso   1.000  C
  C15      1.0000 0.41993  0.34328  0.83842  Biso   1.000  C
  C16      1.0000 0.15316  0.35127  0.44742  Biso   1.000  C
  H9       1.0000 0.14098  0.45177  0.48179  Biso   1.000  H
  H10      1.0000 0.16968  0.39829  0.54539  Biso   1.000  H
  C17      1.0000 0.21758  0.56199  0.51032  Biso   1.000  C
  H11      1.0000 0.26202  0.49391  0.59058  Biso   1.000  H
  H12      1.0000 0.31994  0.51739  0.54209  Biso   1.000  H
  C18      1.0000 0.36124  0.43879  0.89339  Biso   1.000  C
  H13      1.0000 0.37103  0.53741  0.85268  Biso   1.000  H
  C19      1.0000 0.37902  0.36697  0.88690  Biso   1.000  C
  H14      1.0000 0.43144  0.29500  0.83432  Biso   1.000  H
  C20      1.0000 0.13679  0.36041  0.37403  Biso   1.000  C
  N4       1.0000 0.14788  0.28901  0.47881  Biso   1.000  N
  N5       1.0000 0.15650  0.57003  0.53821  Biso   1.000  N
  C21      1.0000 0.23326  0.60360  0.45561  Biso   1.000  C
  C22      1.0000 0.31760  0.44357  0.95369  Biso   1.000  C
  C23      1.0000 0.34530  0.32731  0.94188  Biso   1.000  C
  C24      1.0000 0.11417  0.30262  0.33150  Biso   1.000  C
  H15      1.0000 0.14089  0.40538  0.35348  Biso   1.000  H
  C25      1.0000 0.12585  0.23321  0.43682  Biso   1.000  C
  C26      1.0000 0.10845  0.61968  0.51032  Biso   1.000  C
  C27      1.0000 0.18368  0.65556  0.42820  Biso   1.000  C
  H16      1.0000 0.27714  0.59656  0.43720  Biso   1.000  H
  C28      1.0000 0.24412  0.40580  0.92681  Biso   1.000  C
  C29      1.0000 0.35719  0.38347  0.00223  Biso   1.000  C
  H17      1.0000 0.31503  0.49070  0.97631  Biso   1.000  H
  C30      1.0000 0.26231  0.33430  0.91740  Biso   1.000  C
  H18      1.0000 0.36483  0.27908  0.95481  Biso   1.000  H
  C31      1.0000 0.10926  0.23842  0.36370  Biso   1.000  C
  H19      1.0000 0.10236  0.30708  0.28121  Biso   1.000  H
  C32      1.0000 0.11989  0.16392  0.47259  Biso   1.000  C
  C33      1.0000 0.03718  0.62546  0.53821  Biso   1.000  C
  C34      1.0000 0.12018  0.66376  0.45540  Biso   1.000  C
  H20      1.0000 0.19337  0.68519  0.39100  Biso   1.000  H
  C35      1.0000 0.17224  0.42729  0.91229  Biso   1.000  C
  H21      1.0000 0.33178  0.37160  0.04198  Biso   1.000  H
  H22      1.0000 0.40984  0.39361  0.02048  Biso   1.000  H
  C36      1.0000 0.20814  0.28712  0.89148  Biso   1.000  C
  H23      1.0000 0.09447  0.19791  0.33560  Biso   1.000  H
  N6       1.0000 0.12446  0.17069  0.54912  Biso   1.000  N
  H24      1.0000 0.15994  0.13271  0.46338  Biso   1.000  H
  H25      1.0000 0.07236  0.14159  0.45173  Biso   1.000  H
  N7       1.0000 0.04175  0.59504  0.60819  Biso   1.000  N
  H26      1.0000 0.02355  0.67558  0.54002  Biso   1.000  H
  H27      1.0000 0.99758  0.60150  0.50468  Biso   1.000  H
  H28      1.0000 0.08517  0.69891  0.43709  Biso   1.000  H
  C37      1.0000 0.11572  0.37748  0.88738  Biso   1.000  C
  C38      1.0000 0.13293  0.49758  0.91660  Biso   1.000  C
  C39      1.0000 0.20835  0.20910  0.87099  Biso   1.000  C
  C40      1.0000 0.13346  0.30908  0.87732  Biso   1.000  C
  C41      1.0000 0.18986  0.16570  0.59872  Biso   1.000  C
  C42      1.0000 0.06778  0.20001  0.57881  Biso   1.000  C
  C43      1.0000 0.00776  0.53299  0.62309  Biso   1.000  C
  C44      1.0000 0.08823  0.62110  0.66849  Biso   1.000  C
  C45      1.0000 0.04325  0.41799  0.87572  Biso   1.000  C
  C46      1.0000 0.06086  0.47100  0.93772  Biso   1.000  C
  C47      1.0000 0.10261  0.51750  0.83911  Biso   1.000  C
  H29      1.0000 0.16085  0.53478  0.94741  Biso   1.000  H
  C48      1.0000 0.18044  0.20679  0.79052  Biso   1.000  C
  H30      1.0000 0.25375  0.18141  0.89009  Biso   1.000  H
  C49      1.0000 0.13542  0.18640  0.89499  Biso   1.000  C
  C50      1.0000 0.08755  0.24377  0.85071  Biso   1.000  C
  O3       1.0000 0.24714  0.14569  0.58440  Biso   1.000  O
  C51      1.0000 0.17176  0.18777  0.66769  Biso   1.000  C
  O4       1.0000 0.00690  0.21388  0.54529  Biso   1.000  O
  C52      1.0000 0.09814  0.20868  0.65572  Biso   1.000  C
  C53      1.0000 0.03264  0.51970  0.70079  Biso   1.000  C
  O5       1.0000 0.96639  0.49811  0.57998  Biso   1.000  O
  O6       1.0000 0.12384  0.67495  0.66918  Biso   1.000  O
  C54      1.0000 0.08331  0.57108  0.72708  Biso   1.000  C
  C55      1.0000 0.04794  0.46690  0.81340  Biso   1.000  C
  H31      1.0000 0.99701  0.38967  0.87269  Biso   1.000  H
  H32      1.0000 0.02315  0.50830  0.93538  Biso   1.000  H
  H33      1.0000 0.06911  0.44809  0.98498  Biso   1.000  H
  C56      1.0000 0.12085  0.57087  0.79781  Biso   1.000  C
  C57      1.0000 0.21492  0.18761  0.73528  Biso   1.000  C
  C58      1.0000 0.10576  0.22828  0.77860  Biso   1.000  C
  H34      1.0000 0.13751  0.19171  0.94688  Biso   1.000  H
  H35      1.0000 0.11994  0.13812  0.87972  Biso   1.000  H
  H36      1.0000 0.03401  0.24509  0.85401  Biso   1.000  H
  C59      1.0000 0.06326  0.23011  0.71080  Biso   1.000  C
  C60      1.0000 0.01265  0.46627  0.74310  Biso   1.000  C
  H37      1.0000 0.15665  0.60539  0.81569  Biso   1.000  H
  H38      1.0000 0.26554  0.17490  0.74310  Biso   1.000  H
  H39      1.0000 0.01334  0.24509  0.70239  Biso   1.000  H
  H40      1.0000 0.97715  0.43170  0.72479  Biso   1.000  H
  C61      1.0000 0.46857  0.57938  0.46540  Biso   1.000  C
  C62      1.0000 0.50526  0.56320  0.41069  Biso   1.000  C
  H41      1.0000 0.41728  0.57051  0.46088  Biso   1.000  H
  C63      1.0000 0.50793  0.60881  0.52671  Biso   1.000  C
  C64      1.0000 0.46497  0.53089  0.34342  Biso   1.000  C
  N8       1.0000 0.57708  0.57539  0.41469  Biso   1.000  N
  C65      1.0000 0.58255  0.62189  0.53171  Biso   1.000  C
  H42      1.0000 0.48404  0.62010  0.56530  Biso   1.000  H
  N9       1.0000 0.50065  0.54460  0.28339  Biso   1.000  N
  H43      1.0000 0.46164  0.47951  0.35008  Biso   1.000  H
  H44      1.0000 0.41418  0.54981  0.33299  Biso   1.000  H
  C66      1.0000 0.61494  0.60460  0.47408  Biso   1.000  C
  H45      1.0000 0.61075  0.64217  0.57339  Biso   1.000  H
  C67      1.0000 0.54165  0.49548  0.25269  Biso   1.000  C
  C68      1.0000 0.50998  0.61269  0.25960  Biso   1.000  C
  C69      1.0000 0.69385  0.62157  0.47291  Biso   1.000  C
  O7       1.0000 0.54764  0.43391  0.26908  Biso   1.000  O
  C70      1.0000 0.57439  0.53441  0.19888  Biso   1.000  C
  C71      1.0000 0.55647  0.60508  0.20431  Biso   1.000  C
  O8       1.0000 0.48371  0.66481  0.28089  Biso   1.000  O
  N10      1.0000 0.74713  0.56362  0.50181  Biso   1.000  N
  H46      1.0000 0.70754  0.66471  0.50122  Biso   1.000  H
  H47      1.0000 0.69894  0.63166  0.42320  Biso   1.000  H
  C72      1.0000 0.61628  0.51067  0.15040  Biso   1.000  C
  C73      1.0000 0.57996  0.65667  0.16157  Biso   1.000  C
  C74      1.0000 0.82492  0.58790  0.50330  Biso   1.000  C
  C75      1.0000 0.73166  0.49701  0.45902  Biso   1.000  C
  H48      1.0000 0.73966  0.55779  0.54869  Biso   1.000  H
  C76      1.0000 0.63869  0.56121  0.10660  Biso   1.000  C
  H49      1.0000 0.62885  0.46259  0.14731  Biso   1.000  H
  C77      1.0000 0.62087  0.63297  0.11309  Biso   1.000  C
  H50      1.0000 0.56851  0.70500  0.16573  Biso   1.000  H
  C78      1.0000 0.84672  0.64868  0.55258  Biso   1.000  C
  H51      1.0000 0.85896  0.54818  0.51820  Biso   1.000  H
  H52      1.0000 0.83026  0.60166  0.45460  Biso   1.000  H
  C79      1.0000 0.78236  0.43801  0.48972  Biso   1.000  C
  H53      1.0000 0.73786  0.50609  0.40942  Biso   1.000  H
  H54      1.0000 0.67994  0.48261  0.45790  Biso   1.000  H
  C80      1.0000 0.68228  0.55637  0.04630  Biso   1.000  C
  C81      1.0000 0.65458  0.67269  0.05812  Biso   1.000  C
  N11      1.0000 0.85205  0.71094  0.52118  Biso   1.000  N
  C82      1.0000 0.86316  0.63959  0.62602  Biso   1.000  C
  N12      1.0000 0.84345  0.42997  0.46184  Biso   1.000  N
  C83      1.0000 0.76662  0.39640  0.54438  Biso   1.000  C
  C84      1.0000 0.75576  0.59420  0.07318  Biso   1.000  C
  H55      1.0000 0.68490  0.50930  0.02368  Biso   1.000  H
  C85      1.0000 0.64276  0.61648  0.99782  Biso   1.000  C
  C86      1.0000 0.73757  0.66570  0.08260  Biso   1.000  C
  H56      1.0000 0.63506  0.72087  0.04518  Biso   1.000  H
  C87      1.0000 0.87404  0.76679  0.56322  Biso   1.000  C
  C88      1.0000 0.88572  0.69738  0.66849  Biso   1.000  C
  H57      1.0000 0.85905  0.59457  0.64651  Biso   1.000  H
  C89      1.0000 0.89145  0.38027  0.48972  Biso   1.000  C
  C90      1.0000 0.81626  0.34438  0.57179  Biso   1.000  C
  H58      1.0000 0.72274  0.40338  0.56279  Biso   1.000  H
  C91      1.0000 0.82769  0.57266  0.08771  Biso   1.000  C
  H59      1.0000 0.66816  0.62840  0.95801  Biso   1.000  H
  H60      1.0000 0.59004  0.60639  0.97951  Biso   1.000  H
  C92      1.0000 0.79180  0.71288  0.10851  Biso   1.000  C
  C93      1.0000 0.88005  0.83608  0.52740  Biso   1.000  C
  C94      1.0000 0.89063  0.76158  0.63629  Biso   1.000  C
  H61      1.0000 0.89753  0.69287  0.71878  Biso   1.000  H
  C95      1.0000 0.96276  0.37449  0.46178  Biso   1.000  C
  C96      1.0000 0.87975  0.33619  0.54459  Biso   1.000  C
  H62      1.0000 0.80651  0.31481  0.60899  Biso   1.000  H
  C97      1.0000 0.88417  0.62247  0.11261  Biso   1.000  C
  C98      1.0000 0.86695  0.50236  0.08339  Biso   1.000  C
  C99      1.0000 0.86649  0.69087  0.12272  Biso   1.000  C
  C100     1.0000 0.79159  0.79090  0.12900  Biso   1.000  C
  N13      1.0000 0.87544  0.82925  0.45093  Biso   1.000  N
  H63      1.0000 0.83994  0.86729  0.53661  Biso   1.000  H
  H64      1.0000 0.92753  0.85836  0.54832  Biso   1.000  H
  H65      1.0000 0.90541  0.80209  0.66439  Biso   1.000  H
  N14      1.0000 0.95814  0.40491  0.39180  Biso   1.000  N
  H66      1.0000 0.97633  0.32437  0.45997  Biso   1.000  H
  H67      1.0000 0.00235  0.39850  0.49531  Biso   1.000  H
  H68      1.0000 0.91471  0.30109  0.56290  Biso   1.000  H
  C101     1.0000 0.95665  0.58196  0.12432  Biso   1.000  C
  C102     1.0000 0.89727  0.48250  0.16088  Biso   1.000  C
  H69      1.0000 0.83909  0.46517  0.05258  Biso   1.000  H
  C103     1.0000 0.93909  0.52900  0.06232  Biso   1.000  C
  C104     1.0000 0.91239  0.75617  0.14928  Biso   1.000  C
  H70      1.0000 0.74619  0.81859  0.10990  Biso   1.000  H
  C105     1.0000 0.81945  0.79316  0.20952  Biso   1.000  C
  C106     1.0000 0.86446  0.81360  0.10500  Biso   1.000  C
  C107     1.0000 0.81003  0.83430  0.40133  Biso   1.000  C
  C108     1.0000 0.93216  0.79999  0.42118  Biso   1.000  C
  C109     1.0000 0.91165  0.37890  0.33150  Biso   1.000  C
  C110     1.0000 0.99213  0.46701  0.37690  Biso   1.000  C
  C111     1.0000 0.95195  0.53310  0.18659  Biso   1.000  C
  H71      1.0000 0.00288  0.61028  0.12730  Biso   1.000  H
  C112     1.0000 0.87904  0.42907  0.20218  Biso   1.000  C
  H72      1.0000 0.97679  0.49170  0.06461  Biso   1.000  H
  H73      1.0000 0.93077  0.55191  0.01501  Biso   1.000  H
  C113     1.0000 0.89418  0.77167  0.22139  Biso   1.000  C
  H74      1.0000 0.96587  0.75486  0.14598  Biso   1.000  H
  C114     1.0000 0.78496  0.81239  0.26471  Biso   1.000  C
  H75      1.0000 0.86237  0.80829  0.05311  Biso   1.000  H
  H76      1.0000 0.87994  0.86188  0.12028  Biso   1.000  H
  C115     1.0000 0.82818  0.81218  0.33230  Biso   1.000  C
  O9       1.0000 0.75279  0.85431  0.41559  Biso   1.000  O
  C116     1.0000 0.90174  0.79127  0.34428  Biso   1.000  C
  O10      1.0000 0.99305  0.78612  0.45476  Biso   1.000  O
  C117     1.0000 0.91657  0.42886  0.27291  Biso   1.000  C
  O11      1.0000 0.87604  0.32500  0.33081  Biso   1.000  O
  C118     1.0000 0.96724  0.48030  0.29920  Biso   1.000  C
  O12      1.0000 0.03350  0.50189  0.42006  Biso   1.000  O
  C119     1.0000 0.98728  0.53368  0.25689  Biso   1.000  C
  H77      1.0000 0.84329  0.39461  0.18430  Biso   1.000  H
  C120     1.0000 0.93668  0.76989  0.28919  Biso   1.000  C
  H78      1.0000 0.73435  0.82510  0.25689  Biso   1.000  H
  H79      1.0000 0.02278  0.56830  0.27520  Biso   1.000  H
  H80      1.0000 0.98654  0.75486  0.29760  Biso   1.000  H
  C121     1.0000 0.63545  0.31360  0.39499  Biso   1.000  C
  C122     1.0000 0.58758  0.25617  0.35072  Biso   1.000  C
  C123     1.0000 0.70838  0.29090  0.37099  Biso   1.000  C
  H81      1.0000 0.63754  0.30829  0.44688  Biso   1.000  H
  H82      1.0000 0.61997  0.36188  0.37972  Biso   1.000  H
  C124     1.0000 0.60579  0.27167  0.27860  Biso   1.000  C
  C125     1.0000 0.63344  0.19087  0.37733  Biso   1.000  C
  H83      1.0000 0.53405  0.25491  0.35402  Biso   1.000  H
  C126     1.0000 0.68048  0.29321  0.29052  Biso   1.000  C
  C127     1.0000 0.70817  0.21288  0.39148  Biso   1.000  C
  H84      1.0000 0.75373  0.31859  0.39010  Biso   1.000  H
  C128     1.0000 0.56329  0.26989  0.21080  Biso   1.000  C
  C129     1.0000 0.61575  0.12252  0.38738  Biso   1.000  C
  C130     1.0000 0.71495  0.31239  0.23528  Biso   1.000  C
  C131     1.0000 0.76235  0.16570  0.41740  Biso   1.000  C
  C132     1.0000 0.59818  0.29127  0.15572  Biso   1.000  C
  H85      1.0000 0.51337  0.25491  0.20239  Biso   1.000  H
  C133     1.0000 0.67227  0.07271  0.41229  Biso   1.000  C
  C134     1.0000 0.54327  0.08201  0.37568  Biso   1.000  C
  C135     1.0000 0.67179  0.31218  0.16769  Biso   1.000  C
  H86      1.0000 0.76557  0.32510  0.24311  Biso   1.000  H
  C136     1.0000 0.74416  0.09420  0.42682  Biso   1.000  C
  C137     1.0000 0.84533  0.17269  0.44188  Biso   1.000  C
  C138     1.0000 0.56781  0.29999  0.07882  Biso   1.000  C
  C139     1.0000 0.63296  0.00242  0.41660  Biso   1.000  C
  H87      1.0000 0.49704  0.11028  0.37270  Biso   1.000  H
  C140     1.0000 0.54797  0.03310  0.31341  Biso   1.000  C
  C141     1.0000 0.56083  0.02900  0.43768  Biso   1.000  C
  C142     1.0000 0.68989  0.33430  0.09872  Biso   1.000  C
  C143     1.0000 0.81763  0.05637  0.45369  Biso   1.000  C
  C144     1.0000 0.87905  0.13297  0.38690  Biso   1.000  C
  H88      1.0000 0.86486  0.22092  0.45481  Biso   1.000  H
  C145     1.0000 0.85715  0.11648  0.50218  Biso   1.000  C
  O13      1.0000 0.50692  0.28612  0.04524  Biso   1.000  O
  N15      1.0000 0.62449  0.32931  0.04912  Biso   1.000  N
  C146     1.0000 0.60265  0.98250  0.33911  Biso   1.000  C
  H89      1.0000 0.66088  0.96522  0.44742  Biso   1.000  H
  C147     1.0000 0.51269  0.03368  0.24311  Biso   1.000  C
  H90      1.0000 0.56914  0.05191  0.48499  Biso   1.000  H
  H91      1.0000 0.52313  0.99165  0.43539  Biso   1.000  H
  O14      1.0000 0.74718  0.35431  0.08441  Biso   1.000  O
  H92      1.0000 0.81507  0.00930  0.47631  Biso   1.000  H
  C148     1.0000 0.86127  0.06121  0.39340  Biso   1.000  C
  C149     1.0000 0.91996  0.15672  0.33842  Biso   1.000  C
  H93      1.0000 0.83176  0.12840  0.54199  Biso   1.000  H
  H94      1.0000 0.90982  0.10639  0.52049  Biso   1.000  H
  C150     1.0000 0.61981  0.33608  0.97259  Biso   1.000  C
  C151     1.0000 0.62088  0.92907  0.29782  Biso   1.000  C
  H95      1.0000 0.47718  0.06830  0.22480  Biso   1.000  H
  C152     1.0000 0.53268  0.98030  0.20080  Biso   1.000  C
  C153     1.0000 0.88363  0.01072  0.34960  Biso   1.000  C
  C154     1.0000 0.94344  0.10508  0.29569  Biso   1.000  C
  H96      1.0000 0.93147  0.20500  0.33432  Biso   1.000  H
  H97      1.0000 0.65992  0.36729  0.96339  Biso   1.000  H
  H98      1.0000 0.57233  0.35841  0.95168  Biso   1.000  H
  C155     1.0000 0.62582  0.26679  0.93678  Biso   1.000  C
  C156     1.0000 0.58335  0.92892  0.22709  Biso   1.000  C
  H99      1.0000 0.65668  0.89461  0.31570  Biso   1.000  H
  C157     1.0000 0.50779  0.96695  0.12310  Biso   1.000  C
  C158     1.0000 0.92557  0.03441  0.30112  Biso   1.000  C
  H100     1.0000 0.87106  0.96259  0.35268  Biso   1.000  H
  C159     1.0000 0.98993  0.11269  0.24039  Biso   1.000  C
  N16      1.0000 0.64786  0.21099  0.97882  Biso   1.000  N
  C160     1.0000 0.60923  0.26158  0.86371  Biso   1.000  C
  C161     1.0000 0.58826  0.87890  0.16849  Biso   1.000  C
  O15      1.0000 0.46641  0.00189  0.07994  Biso   1.000  O
  N17      1.0000 0.54178  0.90491  0.10819  Biso   1.000  N
  C162     1.0000 0.95827  0.99548  0.24731  Biso   1.000  C
  N18      1.0000 0.99926  0.04460  0.21660  Biso   1.000  N
  O16      1.0000 0.01621  0.16481  0.21910  Biso   1.000  O
  C163     1.0000 0.65314  0.14868  0.94742  Biso   1.000  C
  H101     1.0000 0.59445  0.30209  0.83561  Biso   1.000  H
  C164     1.0000 0.61414  0.19738  0.83151  Biso   1.000  C
  O17      1.0000 0.62387  0.82505  0.16918  Biso   1.000  O
  C165     1.0000 0.53721  0.87449  0.03821  Biso   1.000  C
  O18      1.0000 0.95227  0.93391  0.23092  Biso   1.000  O
  C166     1.0000 0.03495  0.03089  0.15662  Biso   1.000  C
  C167     1.0000 0.63676  0.13959  0.87398  Biso   1.000  C
  C168     1.0000 0.67494  0.08790  0.99670  Biso   1.000  C
  H102     1.0000 0.60233  0.19292  0.78122  Biso   1.000  H
  H103     1.0000 0.49756  0.89850  0.00468  Biso   1.000  H
  H104     1.0000 0.52358  0.82442  0.04002  Biso   1.000  H
  C169     1.0000 0.60848  0.88032  0.01032  Biso   1.000  C
  C170     1.0000 0.99466  0.06320  0.08930  Biso   1.000  C
  H105     1.0000 0.03828  0.97951  0.14992  Biso   1.000  H
  H106     1.0000 0.08578  0.04981  0.16700  Biso   1.000  H
  H107     1.0000 0.64087  0.09462  0.85349  Biso   1.000  H
  H108     1.0000 0.66971  0.10171  0.04540  Biso   1.000  H
  N19      1.0000 0.75278  0.06362  0.99819  Biso   1.000  N
  H109     1.0000 0.64095  0.04818  0.98180  Biso   1.000  H
  N20      1.0000 0.65646  0.92997  0.03816  Biso   1.000  N
  C171     1.0000 0.62016  0.83619  0.95540  Biso   1.000  C
  N21      1.0000 0.92289  0.07539  0.08531  Biso   1.000  N
  C172     1.0000 0.03135  0.07938  0.03459  Biso   1.000  C
  C173     1.0000 0.80606  0.12157  0.02709  Biso   1.000  C
  C174     1.0000 0.76825  0.99701  0.04098  Biso   1.000  C
  H110     1.0000 0.76026  0.05779  0.95130  Biso   1.000  H
  C175     1.0000 0.71756  0.93801  0.01032  Biso   1.000  C
  C176     1.0000 0.68365  0.84438  0.92821  Biso   1.000  C
  H111     1.0000 0.58515  0.80109  0.93709  Biso   1.000  H
  C177     1.0000 0.88497  0.10460  0.02592  Biso   1.000  C
  C178     1.0000 0.99193  0.10881  0.97328  Biso   1.000  C
  H112     1.0000 0.08269  0.07051  0.03912  Biso   1.000  H
  H113     1.0000 0.80097  0.13171  0.07680  Biso   1.000  H
  H114     1.0000 0.79232  0.16471  0.99878  Biso   1.000  H
  H115     1.0000 0.76206  0.00609  0.09058  Biso   1.000  H
  H116     1.0000 0.81997  0.98261  0.04210  Biso   1.000  H
  C179     1.0000 0.73324  0.89640  0.95562  Biso   1.000  C
  H117     1.0000 0.69335  0.81481  0.89101  Biso   1.000  H
  C180     1.0000 0.91731  0.12189  0.96828  Biso   1.000  C
  H118     1.0000 0.01582  0.12010  0.93470  Biso   1.000  H
  H119     1.0000 0.77712  0.90338  0.93720  Biso   1.000  H
  H120     1.0000 0.88911  0.14222  0.92661  Biso   1.000  H
  C181     1.0000 0.36443  0.68640  0.60500  Biso   1.000  C
  C182     1.0000 0.29156  0.70910  0.62900  Biso   1.000  C
  C183     1.0000 0.41236  0.74377  0.64928  Biso   1.000  C
  H121     1.0000 0.36234  0.69166  0.55311  Biso   1.000  H
  H122     1.0000 0.37997  0.63807  0.62032  Biso   1.000  H
  C184     1.0000 0.29177  0.78707  0.60851  Biso   1.000  C
  H123     1.0000 0.24615  0.68136  0.60989  Biso   1.000  H
  C185     1.0000 0.31942  0.70679  0.70952  Biso   1.000  C
  C186     1.0000 0.36646  0.80908  0.62272  Biso   1.000  C
  C187     1.0000 0.39415  0.72828  0.72139  Biso   1.000  C
  H124     1.0000 0.46584  0.74509  0.64598  Biso   1.000  H
  C188     1.0000 0.23754  0.83430  0.58259  Biso   1.000  C
  C189     1.0000 0.28493  0.68756  0.76471  Biso   1.000  C
  C190     1.0000 0.38414  0.87748  0.61261  Biso   1.000  C
  C191     1.0000 0.43665  0.73006  0.78919  Biso   1.000  C
  C192     1.0000 0.25574  0.90580  0.57323  Biso   1.000  C
  C193     1.0000 0.15455  0.82726  0.55811  Biso   1.000  C
  H125     1.0000 0.23431  0.67490  0.75689  Biso   1.000  H
  C194     1.0000 0.32815  0.68777  0.83230  Biso   1.000  C
  C195     1.0000 0.32766  0.92729  0.58770  Biso   1.000  C
  C196     1.0000 0.45667  0.91799  0.62432  Biso   1.000  C
  C197     1.0000 0.40172  0.70868  0.84432  Biso   1.000  C
  H126     1.0000 0.48651  0.74509  0.79760  Biso   1.000  H
  C198     1.0000 0.18225  0.94357  0.54630  Biso   1.000  C
  C199     1.0000 0.12084  0.86697  0.61309  Biso   1.000  C
  H127     1.0000 0.13508  0.77908  0.54518  Biso   1.000  H
  C200     1.0000 0.14279  0.88347  0.49781  Biso   1.000  C
  C201     1.0000 0.31006  0.66570  0.90132  Biso   1.000  C
  C202     1.0000 0.36692  0.99758  0.58339  Biso   1.000  C
  H128     1.0000 0.50284  0.88967  0.62730  Biso   1.000  H
  C203     1.0000 0.45191  0.96685  0.68658  Biso   1.000  C
  C204     1.0000 0.43906  0.97100  0.56232  Biso   1.000  C
  C205     1.0000 0.43214  0.69996  0.92123  Biso   1.000  C
  H129     1.0000 0.18487  0.99065  0.52368  Biso   1.000  H
  C206     1.0000 0.13866  0.93879  0.60659  Biso   1.000  C
  C207     1.0000 0.07993  0.84328  0.66162  Biso   1.000  C
  H130     1.0000 0.16818  0.87160  0.45801  Biso   1.000  H
  H131     1.0000 0.09006  0.89356  0.47951  Biso   1.000  H
  O19      1.0000 0.25276  0.64569  0.91559  Biso   1.000  O
  N22      1.0000 0.37541  0.67069  0.95092  Biso   1.000  N
  C208     1.0000 0.39724  0.01750  0.66088  Biso   1.000  C
  H132     1.0000 0.33906  0.03483  0.55258  Biso   1.000  H
  C209     1.0000 0.48725  0.96627  0.75689  Biso   1.000  C
  H133     1.0000 0.43074  0.94809  0.51500  Biso   1.000  H
  H134     1.0000 0.47676  0.00825  0.56460  Biso   1.000  H
  O20      1.0000 0.49302  0.71383  0.95475  Biso   1.000  O
  C210     1.0000 0.11625  0.98928  0.65039  Biso   1.000  C
  C211     1.0000 0.05644  0.89487  0.70430  Biso   1.000  C
  H135     1.0000 0.06848  0.79500  0.66572  Biso   1.000  H
  C212     1.0000 0.38007  0.66386  0.02740  Biso   1.000  C
  C213     1.0000 0.37906  0.07087  0.70218  Biso   1.000  C
  H136     1.0000 0.52275  0.93170  0.77519  Biso   1.000  H
  C214     1.0000 0.46721  0.01970  0.79919  Biso   1.000  C
  C215     1.0000 0.07436  0.96559  0.69888  Biso   1.000  C
  H137     1.0000 0.12888  0.03735  0.64731  Biso   1.000  H
  C216     1.0000 0.00995  0.88725  0.75960  Biso   1.000  C
  H138     1.0000 0.33996  0.63266  0.03661  Biso   1.000  H
  H139     1.0000 0.42755  0.64159  0.04831  Biso   1.000  H
  C217     1.0000 0.37407  0.73316  0.06322  Biso   1.000  C
  C218     1.0000 0.41654  0.07114  0.77290  Biso   1.000  C
  H140     1.0000 0.34326  0.10544  0.68429  Biso   1.000  H
  C219     1.0000 0.49215  0.03299  0.87690  Biso   1.000  C
  C220     1.0000 0.04162  0.00452  0.75268  Biso   1.000  C
  N23      1.0000 0.00062  0.95540  0.78339  Biso   1.000  N
  O21      1.0000 0.98368  0.83514  0.78089  Biso   1.000  O
  N24      1.0000 0.35209  0.78901  0.02123  Biso   1.000  N
  C221     1.0000 0.39065  0.73836  0.13629  Biso   1.000  C
  C222     1.0000 0.41162  0.12110  0.83150  Biso   1.000  C
  O22      1.0000 0.53347  0.99806  0.92006  Biso   1.000  O
  N25      1.0000 0.45811  0.09509  0.89180  Biso   1.000  N
  O23      1.0000 0.04762  0.06614  0.76913  Biso   1.000  O
  C223     1.0000 0.96494  0.96906  0.84342  Biso   1.000  C
  C224     1.0000 0.34675  0.85127  0.05263  Biso   1.000  C
  H141     1.0000 0.40543  0.69786  0.16439  Biso   1.000  H
  C225     1.0000 0.38574  0.80256  0.16848  Biso   1.000  C
  O24      1.0000 0.37601  0.17495  0.83081  Biso   1.000  O
  C226     1.0000 0.46273  0.12546  0.96178  Biso   1.000  C
  C227     1.0000 0.00523  0.93680  0.91069  Biso   1.000  C
  H142     1.0000 0.91415  0.95019  0.83299  Biso   1.000  H
  H143     1.0000 0.96162  0.02049  0.85013  Biso   1.000  H
  C228     1.0000 0.36318  0.86036  0.12601  Biso   1.000  C
  C229     1.0000 0.32495  0.91205  0.00329  Biso   1.000  C
  H144     1.0000 0.39756  0.80708  0.21883  Biso   1.000  H
  H145     1.0000 0.50232  0.10150  0.99531  Biso   1.000  H
  H146     1.0000 0.47631  0.17563  0.96002  Biso   1.000  H
  C230     1.0000 0.39141  0.11968  0.98972  Biso   1.000  C
  N26      1.0000 0.07705  0.92456  0.91468  Biso   1.000  N
  C231     1.0000 0.96854  0.92056  0.96540  Biso   1.000  C
  H147     1.0000 0.35907  0.90538  0.14650  Biso   1.000  H
  H148     1.0000 0.33023  0.89829  0.95460  Biso   1.000  H
  N27      1.0000 0.24715  0.93638  0.00180  Biso   1.000  N
  H149     1.0000 0.35898  0.95177  0.01819  Biso   1.000  H
  N28      1.0000 0.34342  0.07009  0.96183  Biso   1.000  N
  C232     1.0000 0.37978  0.16381  0.04459  Biso   1.000  C
  C233     1.0000 0.11492  0.89540  0.97413  Biso   1.000  C
  H150     1.0000 0.91726  0.92949  0.96093  Biso   1.000  H
  C234     1.0000 0.00796  0.89119  0.02671  Biso   1.000  C
  C235     1.0000 0.19382  0.87838  0.97290  Biso   1.000  C
  H151     1.0000 0.23968  0.94216  0.04869  Biso   1.000  H
  C236     1.0000 0.23163  0.00305  0.95901  Biso   1.000  C
  C237     1.0000 0.28233  0.06199  0.98972  Biso   1.000  C
  H152     1.0000 0.41479  0.19885  0.06290  Biso   1.000  H
  C238     1.0000 0.31628  0.15562  0.07178  Biso   1.000  C
  C239     1.0000 0.08257  0.87806  0.03171  Biso   1.000  C
  H153     1.0000 0.98406  0.87990  0.06529  Biso   1.000  H
  H154     1.0000 0.19891  0.86829  0.92320  Biso   1.000  H
  H155     1.0000 0.20756  0.83529  0.00122  Biso   1.000  H
  H156     1.0000 0.23783  0.99385  0.90941  Biso   1.000  H
  H157     1.0000 0.17991  0.01739  0.95789  Biso   1.000  H
  C240     1.0000 0.26665  0.10355  0.04438  Biso   1.000  C
  H158     1.0000 0.30659  0.18525  0.10898  Biso   1.000  H
  H159     1.0000 0.11077  0.85778  0.07338  Biso   1.000  H
  H160     1.0000 0.22276  0.09656  0.06279  Biso   1.000  H
  Ne1      1.0000 0.21952  0.39964  0.67589  Biso   1.000  Ne
  He1      1.0000 0.25844  0.54165  0.71871  Biso   1.000  He
  He2      1.0000 0.31031  0.31224  0.69701  Biso   1.000  He
  He3      1.0000 0.02444  0.36626  0.53322  Biso   1.000  He
  Ar1      1.0000 0.21909  0.39735  0.71984  Biso   1.000  Ar
  Ne2      1.0000 0.71953  0.10034  0.17588  Biso   1.000  Ne
  He4      1.0000 0.75210  0.97679  0.22045  Biso   1.000  He
  He5      1.0000 0.80872  0.18620  0.19760  Biso   1.000  He
  He6      1.0000 0.56676  0.12791  0.11863  Biso   1.000  He
  Ar2      1.0000 0.71933  0.10281  0.21984  Biso   1.000  Ar
  Ne3      1.0000 0.78039  0.60033  0.32412  Biso   1.000  Ne
  He7      1.0000 0.00075  0.63293  0.49879  Biso   1.000  He
  He8      1.0000 0.68978  0.68755  0.30292  Biso   1.000  He
  He9      1.0000 0.75470  0.49677  0.27804  Biso   1.000  He
  Ar3      1.0000 0.78061  0.60280  0.28017  Biso   1.000  Ar
  Ne4      1.0000 0.28037  0.89963  0.82412  Biso   1.000  Ne
  He10     1.0000 0.52046  0.84721  0.88627  Biso   1.000  He
  He11     1.0000 0.18390  0.80674  0.80511  Biso   1.000  He
  He12     1.0000 0.24768  0.02354  0.77957  Biso   1.000  He
  Ar4      1.0000 0.28050  0.89709  0.78018  Biso   1.000  Ar
