data_image0
_cell_length_a       25.256
_cell_length_b       25.256
_cell_length_c       11.007
_cell_angle_alpha    90
_cell_angle_beta     90
_cell_angle_gamma    120

_symmetry_space_group_name_H-M    "P 1"
_symmetry_int_tables_number       1

loop_
  _symmetry_equiv_pos_as_xyz
  'x, y, z'

loop_
  _atom_site_label
  _atom_site_occupancy
  _atom_site_fract_x
  _atom_site_fract_y
  _atom_site_fract_z
  _atom_site_thermal_displace_type
  _atom_site_B_iso_or_equiv
  _atom_site_type_symbol
  C1       1.0000 0.62108  0.59550  0.72999  Biso   1.000  C
  C2       1.0000 0.61978  0.53437  0.73344  Biso   1.000  C
  C3       1.0000 0.59811  0.60839  0.84682  Biso   1.000  C
  H1       1.0000 0.66361  0.62869  0.71518  Biso   1.000  H
  H2       1.0000 0.59558  0.59518  0.66158  Biso   1.000  H
  N1       1.0000 0.64931  0.52898  0.62360  Biso   1.000  N
  C4       1.0000 0.65208  0.52811  0.84510  Biso   1.000  C
  H3       1.0000 0.57620  0.50059  0.73426  Biso   1.000  H
  C5       1.0000 0.63461  0.60602  0.95376  Biso   1.000  C
  H4       1.0000 0.55442  0.57772  0.85800  Biso   1.000  H
  H5       1.0000 0.60202  0.64931  0.84237  Biso   1.000  H
  C6       1.0000 0.61572  0.49030  0.54447  Biso   1.000  C
  N2       1.0000 0.63910  0.46461  0.85100  Biso   1.000  N
  H6       1.0000 0.69717  0.55627  0.83719  Biso   1.000  H
  C7       1.0000 0.62918  0.54320  0.96148  Biso   1.000  C
  H7       1.0000 0.67810  0.63779  0.94422  Biso   1.000  H
  H8       1.0000 0.61928  0.61438  0.02980  Biso   1.000  H
  C8       1.0000 0.63710  0.48271  0.42637  Biso   1.000  C
  H9       1.0000 0.57372  0.46451  0.56346  Biso   1.000  H
  C9       1.0000 0.68298  0.45450  0.84692  Biso   1.000  C
  H10      1.0000 0.58587  0.51179  0.97529  Biso   1.000  H
  H11      1.0000 0.65339  0.54228  0.03153  Biso   1.000  H
  C10      1.0000 0.59398  0.44508  0.34096  Biso   1.000  C
  C11      1.0000 0.69867  0.51247  0.39339  Biso   1.000  C
  C12      1.0000 0.67436  0.39228  0.85037  Biso   1.000  C
  H12      1.0000 0.72328  0.48829  0.84128  Biso   1.000  H
  C13      1.0000 0.61052  0.43882  0.22468  Biso   1.000  C
  H13      1.0000 0.55199  0.42318  0.36331  Biso   1.000  H
  C14      1.0000 0.71639  0.50571  0.27755  Biso   1.000  C
  H14      1.0000 0.72890  0.53771  0.45089  Biso   1.000  H
  C15      1.0000 0.61572  0.34089  0.84991  Biso   1.000  C
  C16      1.0000 0.72516  0.38428  0.84991  Biso   1.000  C
  C17      1.0000 0.56332  0.40261  0.13246  Biso   1.000  C
  C18      1.0000 0.67167  0.46799  0.19397  Biso   1.000  C
  C19      1.0000 0.78140  0.54032  0.24275  Biso   1.000  C
  C20      1.0000 0.60775  0.28209  0.85037  Biso   1.000  C
  H15      1.0000 0.58099  0.34610  0.84928  Biso   1.000  H
  C21      1.0000 0.71791  0.32566  0.85037  Biso   1.000  C
  H16      1.0000 0.76508  0.41898  0.84928  Biso   1.000  H
  N3       1.0000 0.50793  0.38473  0.15281  Biso   1.000  N
  H17      1.0000 0.57499  0.39278  0.05751  Biso   1.000  H
  H18      1.0000 0.68350  0.46250  0.11520  Biso   1.000  H
  N4       1.0000 0.79911  0.54452  0.13582  Biso   1.000  N
  H19      1.0000 0.81119  0.56030  0.30472  Biso   1.000  H
  C22      1.0000 0.54552  0.22851  0.84692  Biso   1.000  C
  C23      1.0000 0.65911  0.27482  0.84991  Biso   1.000  C
  C24      1.0000 0.77149  0.31698  0.84692  Biso   1.000  C
  C25      1.0000 0.46271  0.34861  0.05969  Biso   1.000  C
  C26      1.0000 0.86539  0.57968  0.11138  Biso   1.000  C
  N5       1.0000 0.53539  0.17451  0.85100  Biso   1.000  N
  H20      1.0000 0.51170  0.23500  0.84128  Biso   1.000  H
  H21      1.0000 0.65388  0.23491  0.84928  Biso   1.000  H
  N6       1.0000 0.82547  0.36087  0.85100  Biso   1.000  N
  H22      1.0000 0.76501  0.27670  0.84128  Biso   1.000  H
  C27      1.0000 0.42029  0.28570  0.11138  Biso   1.000  C
  C28      1.0000 0.42688  0.38030  0.02262  Biso   1.000  C
  H23      1.0000 0.48410  0.34459  0.98692  Biso   1.000  H
  C29      1.0000 0.88589  0.53730  0.05969  Biso   1.000  C
  H24      1.0000 0.88790  0.59811  0.18888  Biso   1.000  H
  C30      1.0000 0.87871  0.63112  0.01981  Biso   1.000  C
  C31      1.0000 0.47186  0.12395  0.84510  Biso   1.000  C
  C32      1.0000 0.87603  0.34788  0.84510  Biso   1.000  C
  C33      1.0000 0.36890  0.24762  0.01981  Biso   1.000  C
  N7       1.0000 0.45544  0.25457  0.13582  Biso   1.000  N
  H25      1.0000 0.40192  0.28982  0.18888  Biso   1.000  H
  C34      1.0000 0.37629  0.34198  0.93250  Biso   1.000  C
  H26      1.0000 0.40869  0.38770  0.09576  Biso   1.000  H
  H27      1.0000 0.45517  0.42049  0.98555  Biso   1.000  H
  N8       1.0000 0.87678  0.49208  0.15281  Biso   1.000  N
  C35      1.0000 0.95340  0.57310  0.02262  Biso   1.000  C
  H28      1.0000 0.86050  0.51590  0.98692  Biso   1.000  H
  H29      1.0000 0.86710  0.65969  0.05624  Biso   1.000  H
  H30      1.0000 0.85351  0.61310  0.94622  Biso   1.000  H
  C36      1.0000 0.94530  0.66577  0.98437  Biso   1.000  C
  C37      1.0000 0.46561  0.08540  0.73344  Biso   1.000  C
  H31      1.0000 0.44371  0.14091  0.83719  Biso   1.000  H
  C38      1.0000 0.45680  0.08600  0.96148  Biso   1.000  C
  C39      1.0000 0.91460  0.38021  0.73344  Biso   1.000  C
  H32      1.0000 0.85911  0.30280  0.83719  Biso   1.000  H
  C40      1.0000 0.91397  0.37079  0.96148  Biso   1.000  C
  H33      1.0000 0.34031  0.20739  0.05624  Biso   1.000  H
  H34      1.0000 0.38691  0.24039  0.94622  Biso   1.000  H
  C41      1.0000 0.33419  0.27949  0.98437  Biso   1.000  C
  C42      1.0000 0.45971  0.24108  0.24275  Biso   1.000  C
  H35      1.0000 0.35271  0.36270  0.91378  Biso   1.000  H
  H36      1.0000 0.39449  0.33801  0.85591  Biso   1.000  H
  C43      1.0000 0.83932  0.43672  0.13246  Biso   1.000  C
  H37      1.0000 0.97901  0.59129  0.09576  Biso   1.000  H
  C44      1.0000 0.96572  0.62371  0.93250  Biso   1.000  C
  H38      1.0000 0.96530  0.54480  0.98555  Biso   1.000  H
  H39      1.0000 0.97039  0.68690  0.05660  Biso   1.000  H
  H40      1.0000 0.95178  0.69727  0.92332  Biso   1.000  H
  N9       1.0000 0.47100  0.12033  0.62360  Biso   1.000  N
  C45      1.0000 0.40451  0.02560  0.72999  Biso   1.000  C
  H41      1.0000 0.49940  0.07562  0.73426  Biso   1.000  H
  H42      1.0000 0.48820  0.07411  0.97529  Biso   1.000  H
  C46      1.0000 0.39402  0.02862  0.95376  Biso   1.000  C
  H43      1.0000 0.45771  0.11110  0.03153  Biso   1.000  H
  N10      1.0000 0.87964  0.35067  0.62360  Biso   1.000  N
  C47      1.0000 0.97440  0.37888  0.72999  Biso   1.000  C
  H44      1.0000 0.92439  0.42378  0.73426  Biso   1.000  H
  H45      1.0000 0.92588  0.41408  0.97529  Biso   1.000  H
  C48      1.0000 0.97138  0.36539  0.95376  Biso   1.000  C
  H46      1.0000 0.88889  0.34660  0.03153  Biso   1.000  H
  H47      1.0000 0.31312  0.28351  0.05660  Biso   1.000  H
  H48      1.0000 0.30268  0.25448  0.92332  Biso   1.000  H
  C49      1.0000 0.49428  0.21068  0.27755  Biso   1.000  C
  H49      1.0000 0.43972  0.25091  0.30472  Biso   1.000  H
  C50      1.0000 0.82830  0.38949  0.22468  Biso   1.000  C
  H50      1.0000 0.81779  0.42501  0.05751  Biso   1.000  H
  H51      1.0000 0.94352  0.60551  0.85591  Biso   1.000  H
  H52      1.0000 0.01002  0.64730  0.91378  Biso   1.000  H
  C51      1.0000 0.50969  0.12541  0.54447  Biso   1.000  C
  H53      1.0000 0.37130  0.03488  0.71518  Biso   1.000  H
  H54      1.0000 0.40478  0.00041  0.66158  Biso   1.000  H
  C52      1.0000 0.39159  0.98971  0.84682  Biso   1.000  C
  H55      1.0000 0.36220  0.04028  0.94422  Biso   1.000  H
  H56      1.0000 0.38560  0.00489  0.02980  Biso   1.000  H
  C53      1.0000 0.87459  0.38428  0.54447  Biso   1.000  C
  H57      1.0000 0.96508  0.33641  0.71518  Biso   1.000  H
  H58      1.0000 0.99959  0.40439  0.66158  Biso   1.000  H
  C54      1.0000 0.01029  0.40188  0.84682  Biso   1.000  C
  H59      1.0000 0.95970  0.32191  0.94422  Biso   1.000  H
  H60      1.0000 0.99511  0.38071  0.02980  Biso   1.000  H
  C55      1.0000 0.53200  0.20368  0.19397  Biso   1.000  C
  C56      1.0000 0.48751  0.18622  0.39339  Biso   1.000  C
  C57      1.0000 0.79628  0.32831  0.19397  Biso   1.000  C
  C58      1.0000 0.85108  0.40599  0.34096  Biso   1.000  C
  C59      1.0000 0.51729  0.15440  0.42637  Biso   1.000  C
  H61      1.0000 0.53550  0.10918  0.56346  Biso   1.000  H
  H62      1.0000 0.42232  0.97673  0.85800  Biso   1.000  H
  H63      1.0000 0.35073  0.95273  0.84237  Biso   1.000  H
  C60      1.0000 0.84560  0.36288  0.42637  Biso   1.000  C
  H64      1.0000 0.89081  0.42629  0.56346  Biso   1.000  H
  H65      1.0000 0.02328  0.44559  0.85800  Biso   1.000  H
  H66      1.0000 0.04731  0.39799  0.84237  Biso   1.000  H
  C61      1.0000 0.56119  0.17172  0.22468  Biso   1.000  C
  H67      1.0000 0.53749  0.22101  0.11520  Biso   1.000  H
  H68      1.0000 0.46229  0.19120  0.45089  Biso   1.000  H
  C62      1.0000 0.78929  0.28360  0.27755  Biso   1.000  C
  H69      1.0000 0.77902  0.31652  0.11520  Biso   1.000  H
  H70      1.0000 0.87122  0.44801  0.36331  Biso   1.000  H
  C63      1.0000 0.55490  0.14891  0.34096  Biso   1.000  C
  C64      1.0000 0.81378  0.30129  0.39339  Biso   1.000  C
  C65      1.0000 0.59742  0.16071  0.13246  Biso   1.000  C
  C66      1.0000 0.75888  0.21859  0.24275  Biso   1.000  C
  H71      1.0000 0.57679  0.12879  0.36331  Biso   1.000  H
  H72      1.0000 0.80879  0.27112  0.45089  Biso   1.000  H
  N11      1.0000 0.61530  0.12321  0.15281  Biso   1.000  N
  H73      1.0000 0.60721  0.18219  0.05751  Biso   1.000  H
  N12      1.0000 0.74542  0.20085  0.13582  Biso   1.000  N
  H74      1.0000 0.74908  0.18878  0.30472  Biso   1.000  H
  C67      1.0000 0.65141  0.11412  0.05969  Biso   1.000  C
  C68      1.0000 0.71431  0.13460  0.11138  Biso   1.000  C
  C69      1.0000 0.61971  0.04659  0.02262  Biso   1.000  C
  H75      1.0000 0.65539  0.13949  0.98692  Biso   1.000  H
  H76      1.0000 0.71019  0.11211  0.18888  Biso   1.000  H
  C70      1.0000 0.75240  0.12129  0.01981  Biso   1.000  C
  H77      1.0000 0.61229  0.02099  0.09576  Biso   1.000  H
  C71      1.0000 0.65798  0.03429  0.93250  Biso   1.000  C
  H78      1.0000 0.57951  0.03470  0.98555  Biso   1.000  H
  H79      1.0000 0.79258  0.13291  0.05624  Biso   1.000  H
  H80      1.0000 0.75958  0.14649  0.94622  Biso   1.000  H
  C72      1.0000 0.72048  0.05468  0.98437  Biso   1.000  C
  H81      1.0000 0.63730  0.98999  0.91378  Biso   1.000  H
  H82      1.0000 0.66201  0.05651  0.85591  Biso   1.000  H
  H83      1.0000 0.71649  0.02958  0.05660  Biso   1.000  H
  H84      1.0000 0.74551  0.04819  0.92332  Biso   1.000  H
  C73      1.0000 0.45449  0.48920  0.51213  Biso   1.000  C
  C74      1.0000 0.43062  0.42300  0.47415  Biso   1.000  C
  C75      1.0000 0.41588  0.49409  0.61097  Biso   1.000  C
  H85      1.0000 0.49708  0.50699  0.54129  Biso   1.000  H
  H86      1.0000 0.45469  0.51311  0.44072  Biso   1.000  H
  C76      1.0000 0.36372  0.39310  0.43445  Biso   1.000  C
  H87      1.0000 0.43420  0.39991  0.54320  Biso   1.000  H
  H88      1.0000 0.45557  0.42167  0.40629  Biso   1.000  H
  C77      1.0000 0.34951  0.46589  0.56973  Biso   1.000  C
  N13      1.0000 0.43881  0.55952  0.64023  Biso   1.000  N
  H89      1.0000 0.41789  0.47238  0.68529  Biso   1.000  H
  H90      1.0000 0.34792  0.34930  0.41683  Biso   1.000  H
  H91      1.0000 0.36067  0.41299  0.35923  Biso   1.000  H
  C78      1.0000 0.32451  0.39941  0.53520  Biso   1.000  C
  N14      1.0000 0.31319  0.46927  0.66966  Biso   1.000  N
  H92      1.0000 0.34708  0.48897  0.49805  Biso   1.000  H
  C79      1.0000 0.44639  0.57420  0.75098  Biso   1.000  C
  H93      1.0000 0.28190  0.38190  0.50641  Biso   1.000  H
  H94      1.0000 0.32429  0.37609  0.60780  Biso   1.000  H
  C80      1.0000 0.28601  0.49940  0.65177  Biso   1.000  C
  C81      1.0000 0.46816  0.63761  0.79095  Biso   1.000  C
  H95      1.0000 0.43790  0.54361  0.81030  Biso   1.000  H
  C82      1.0000 0.24658  0.50488  0.74362  Biso   1.000  C
  H96      1.0000 0.29140  0.51929  0.57591  Biso   1.000  H
  C83      1.0000 0.48837  0.65507  0.90751  Biso   1.000  C
  C84      1.0000 0.47117  0.68118  0.70809  Biso   1.000  C
  C85      1.0000 0.21002  0.52884  0.70809  Biso   1.000  C
  C86      1.0000 0.24301  0.48458  0.86209  Biso   1.000  C
  C87      1.0000 0.51371  0.71620  0.94667  Biso   1.000  C
  H97      1.0000 0.48529  0.62508  0.96366  Biso   1.000  H
  H98      1.0000 0.45680  0.66929  0.62733  Biso   1.000  H
  C88      1.0000 0.49510  0.74171  0.74362  Biso   1.000  C
  C89      1.0000 0.16944  0.53186  0.79095  Biso   1.000  C
  H99      1.0000 0.21248  0.54320  0.62733  Biso   1.000  H
  C90      1.0000 0.20247  0.48628  0.94667  Biso   1.000  C
  H100     1.0000 0.26888  0.46918  0.88662  Biso   1.000  H
  C91      1.0000 0.51541  0.75840  0.86209  Biso   1.000  C
  C92      1.0000 0.54110  0.73568  0.06450  Biso   1.000  C
  C93      1.0000 0.50061  0.78661  0.65177  Biso   1.000  C
  C94      1.0000 0.16671  0.51161  0.90751  Biso   1.000  C
  C95      1.0000 0.12779  0.55358  0.75098  Biso   1.000  C
  C96      1.0000 0.19460  0.45889  0.06450  Biso   1.000  C
  H101     1.0000 0.53078  0.79969  0.88662  Biso   1.000  H
  N15      1.0000 0.54890  0.70020  0.13600  Biso   1.000  N
  H102     1.0000 0.55400  0.77628  0.09022  Biso   1.000  H
  N16      1.0000 0.53071  0.84390  0.66966  Biso   1.000  N
  H103     1.0000 0.48067  0.77207  0.57591  Biso   1.000  H
  H104     1.0000 0.13980  0.51471  0.96366  Biso   1.000  H
  N17      1.0000 0.12070  0.56117  0.64023  Biso   1.000  N
  H105     1.0000 0.10568  0.56208  0.81030  Biso   1.000  H
  N18      1.0000 0.15130  0.45107  0.13600  Biso   1.000  N
  H106     1.0000 0.22229  0.44600  0.09022  Biso   1.000  H
  C97      1.0000 0.58369  0.72599  0.24793  Biso   1.000  C
  C98      1.0000 0.53409  0.88358  0.56973  Biso   1.000  C
  C99      1.0000 0.07821  0.58412  0.61097  Biso   1.000  C
  C100     1.0000 0.14229  0.41628  0.24793  Biso   1.000  C
  C101     1.0000 0.54558  0.68818  0.35695  Biso   1.000  C
  C102     1.0000 0.64299  0.72429  0.23939  Biso   1.000  C
  H107     1.0000 0.59319  0.76928  0.25711  Biso   1.000  H
  C103     1.0000 0.50592  0.92180  0.61097  Biso   1.000  C
  C104     1.0000 0.60061  0.92510  0.53520  Biso   1.000  C
  H108     1.0000 0.51102  0.85812  0.49805  Biso   1.000  H
  H109     1.0000 0.05451  0.58211  0.68529  Biso   1.000  H
  C105     1.0000 0.03470  0.54548  0.51213  Biso   1.000  C
  C106     1.0000 0.11639  0.65050  0.56973  Biso   1.000  C
  C107     1.0000 0.14259  0.45441  0.35695  Biso   1.000  C
  C108     1.0000 0.08129  0.35698  0.23939  Biso   1.000  C
  H110     1.0000 0.17613  0.40682  0.25711  Biso   1.000  H
  N19      1.0000 0.49347  0.69901  0.36886  Biso   1.000  N
  H111     1.0000 0.53000  0.64378  0.34124  Biso   1.000  H
  C109     1.0000 0.58260  0.70701  0.47306  Biso   1.000  C
  C110     1.0000 0.68009  0.74528  0.35450  Biso   1.000  C
  H112     1.0000 0.63341  0.68200  0.22104  Biso   1.000  H
  H113     1.0000 0.66781  0.75081  0.17153  Biso   1.000  H
  N20      1.0000 0.44047  0.87928  0.64023  Biso   1.000  N
  H114     1.0000 0.52758  0.94549  0.68529  Biso   1.000  H
  C111     1.0000 0.51079  0.96528  0.51213  Biso   1.000  C
  C112     1.0000 0.60689  0.97059  0.43445  Biso   1.000  C
  H115     1.0000 0.61808  0.90000  0.50641  Biso   1.000  H
  H116     1.0000 0.62388  0.94818  0.60780  Biso   1.000  H
  H117     1.0000 0.00989  0.50292  0.54129  Biso   1.000  H
  H118     1.0000 0.05840  0.54530  0.44072  Biso   1.000  H
  C113     1.0000 0.99241  0.56940  0.47415  Biso   1.000  C
  N21      1.0000 0.15608  0.68680  0.66966  Biso   1.000  N
  C114     1.0000 0.07493  0.67551  0.53520  Biso   1.000  C
  H119     1.0000 0.14189  0.65288  0.49805  Biso   1.000  H
  N22      1.0000 0.20551  0.50653  0.36886  Biso   1.000  N
  H120     1.0000 0.11380  0.47000  0.34124  Biso   1.000  H
  C115     1.0000 0.12439  0.41738  0.47306  Biso   1.000  C
  C116     1.0000 0.06520  0.31990  0.35450  Biso   1.000  C
  H121     1.0000 0.04859  0.36658  0.22104  Biso   1.000  H
  H122     1.0000 0.08299  0.33220  0.17153  Biso   1.000  H
  C117     1.0000 0.43961  0.65361  0.36013  Biso   1.000  C
  H123     1.0000 0.55801  0.67921  0.53957  Biso   1.000  H
  H124     1.0000 0.59261  0.74889  0.49532  Biso   1.000  H
  C118     1.0000 0.64221  0.70500  0.45898  Biso   1.000  C
  H125     1.0000 0.69230  0.78839  0.37122  Biso   1.000  H
  H126     1.0000 0.71778  0.74258  0.34523  Biso   1.000  H
  C119     1.0000 0.42580  0.87220  0.75098  Biso   1.000  C
  H127     1.0000 0.49300  0.99011  0.54129  Biso   1.000  H
  H128     1.0000 0.48692  0.94160  0.44072  Biso   1.000  H
  C120     1.0000 0.57700  0.00757  0.47415  Biso   1.000  C
  H129     1.0000 0.65072  0.99861  0.41683  Biso   1.000  H
  H130     1.0000 0.58700  0.94768  0.35923  Biso   1.000  H
  C121     1.0000 0.02938  0.63628  0.43445  Biso   1.000  C
  H131     1.0000 0.96570  0.56578  0.54320  Biso   1.000  H
  H132     1.0000 0.96609  0.54439  0.40629  Biso   1.000  H
  C122     1.0000 0.21339  0.71401  0.65177  Biso   1.000  C
  H133     1.0000 0.09997  0.71808  0.50641  Biso   1.000  H
  H134     1.0000 0.05182  0.67569  0.60780  Biso   1.000  H
  C123     1.0000 0.21399  0.56039  0.36013  Biso   1.000  C
  H135     1.0000 0.12117  0.44197  0.53957  Biso   1.000  H
  H136     1.0000 0.15631  0.40741  0.49532  Biso   1.000  H
  C124     1.0000 0.06281  0.35780  0.45898  Biso   1.000  C
  H137     1.0000 0.09608  0.30769  0.37122  Biso   1.000  H
  H138     1.0000 0.02480  0.28218  0.34523  Biso   1.000  H
  C125     1.0000 0.38558  0.66070  0.36295  Biso   1.000  C
  H139     1.0000 0.43419  0.61379  0.35141  Biso   1.000  H
  H140     1.0000 0.66609  0.71917  0.53520  Biso   1.000  H
  H141     1.0000 0.63231  0.66239  0.44408  Biso   1.000  H
  C126     1.0000 0.36241  0.83055  0.79095  Biso   1.000  C
  H142     1.0000 0.45641  0.89428  0.81030  Biso   1.000  H
  H143     1.0000 0.60009  0.03427  0.54320  Biso   1.000  H
  H144     1.0000 0.57826  0.03386  0.40629  Biso   1.000  H
  H145     1.0000 0.00142  0.65210  0.41683  Biso   1.000  H
  H146     1.0000 0.05231  0.63930  0.35923  Biso   1.000  H
  C127     1.0000 0.25830  0.75337  0.74362  Biso   1.000  C
  H147     1.0000 0.22792  0.70861  0.57591  Biso   1.000  H
  C128     1.0000 0.27512  0.61438  0.36295  Biso   1.000  C
  H148     1.0000 0.17959  0.56578  0.35141  Biso   1.000  H
  H149     1.0000 0.05311  0.33389  0.53520  Biso   1.000  H
  H150     1.0000 0.03009  0.36768  0.44408  Biso   1.000  H
  C129     1.0000 0.32802  0.60931  0.36322  Biso   1.000  C
  C130     1.0000 0.39072  0.71872  0.36322  Biso   1.000  C
  C131     1.0000 0.31879  0.78995  0.70809  Biso   1.000  C
  C132     1.0000 0.34490  0.83329  0.90751  Biso   1.000  C
  C133     1.0000 0.24157  0.75698  0.86209  Biso   1.000  C
  C134     1.0000 0.28132  0.67199  0.36322  Biso   1.000  C
  H151     1.0000 0.32419  0.56990  0.36350  Biso   1.000  H
  C135     1.0000 0.33928  0.72489  0.36295  Biso   1.000  C
  H152     1.0000 0.43008  0.75429  0.36350  Biso   1.000  H
  H153     1.0000 0.33070  0.78748  0.62733  Biso   1.000  H
  C136     1.0000 0.28380  0.79749  0.94667  Biso   1.000  C
  H154     1.0000 0.37489  0.86017  0.96366  Biso   1.000  H
  H155     1.0000 0.20029  0.73111  0.88662  Biso   1.000  H
  H156     1.0000 0.24568  0.67579  0.36350  Biso   1.000  H
  C137     1.0000 0.34641  0.78602  0.36013  Biso   1.000  C
  C138     1.0000 0.26432  0.80540  0.06450  Biso   1.000  C
  N23      1.0000 0.30098  0.79447  0.36886  Biso   1.000  N
  H157     1.0000 0.38620  0.82040  0.35141  Biso   1.000  H
  N24      1.0000 0.29978  0.84870  0.13600  Biso   1.000  N
  H158     1.0000 0.22370  0.77769  0.09022  Biso   1.000  H
  C139     1.0000 0.31181  0.85738  0.35695  Biso   1.000  C
  C140     1.0000 0.27400  0.85770  0.24793  Biso   1.000  C
  H159     1.0000 0.35618  0.88619  0.34124  Biso   1.000  H
  C141     1.0000 0.29299  0.87558  0.47306  Biso   1.000  C
  C142     1.0000 0.27571  0.91869  0.23939  Biso   1.000  C
  H160     1.0000 0.23067  0.82387  0.25711  Biso   1.000  H
  H161     1.0000 0.32080  0.87878  0.53957  Biso   1.000  H
  H162     1.0000 0.25113  0.84371  0.49532  Biso   1.000  H
  C143     1.0000 0.29502  0.93721  0.45898  Biso   1.000  C
  C144     1.0000 0.25469  0.93479  0.35450  Biso   1.000  C
  H163     1.0000 0.31799  0.95138  0.22104  Biso   1.000  H
  H164     1.0000 0.24920  0.91700  0.17153  Biso   1.000  H
  H165     1.0000 0.28078  0.94690  0.53520  Biso   1.000  H
  H166     1.0000 0.33762  0.96990  0.44408  Biso   1.000  H
  H167     1.0000 0.21160  0.90388  0.37122  Biso   1.000  H
  H168     1.0000 0.25740  0.97520  0.34523  Biso   1.000  H
  C145     1.0000 0.82831  0.66390  0.55347  Biso   1.000  C
  C146     1.0000 0.81978  0.63528  0.67902  Biso   1.000  C
  H169     1.0000 0.83918  0.64099  0.49523  Biso   1.000  H
  H170     1.0000 0.78920  0.66019  0.52666  Biso   1.000  H
  C147     1.0000 0.87808  0.73129  0.55038  Biso   1.000  C
  C148     1.0000 0.80607  0.67217  0.77115  Biso   1.000  C
  H171     1.0000 0.85718  0.63477  0.70310  Biso   1.000  H
  H172     1.0000 0.78547  0.59248  0.67711  Biso   1.000  H
  N25      1.0000 0.87703  0.75643  0.43272  Biso   1.000  N
  C149     1.0000 0.86637  0.76759  0.64831  Biso   1.000  C
  H173     1.0000 0.91889  0.73499  0.56400  Biso   1.000  H
  C150     1.0000 0.85700  0.73911  0.77287  Biso   1.000  C
  H174     1.0000 0.76680  0.66980  0.75007  Biso   1.000  H
  H175     1.0000 0.80181  0.65430  0.85309  Biso   1.000  H
  C151     1.0000 0.92217  0.77417  0.36186  Biso   1.000  C
  N26      1.0000 0.91795  0.83027  0.65231  Biso   1.000  N
  H176     1.0000 0.82872  0.76901  0.62569  Biso   1.000  H
  H177     1.0000 0.84621  0.76210  0.83120  Biso   1.000  H
  H178     1.0000 0.89538  0.74158  0.80058  Biso   1.000  H
  H179     1.0000 0.95699  0.77207  0.38739  Biso   1.000  H
  C152     1.0000 0.92129  0.79809  0.24030  Biso   1.000  C
  C153     1.0000 0.90658  0.87311  0.64822  Biso   1.000  C
  C154     1.0000 0.87119  0.80430  0.20478  Biso   1.000  C
  C155     1.0000 0.96929  0.81418  0.15708  Biso   1.000  C
  C156     1.0000 0.95463  0.93840  0.65222  Biso   1.000  C
  H180     1.0000 0.86520  0.86328  0.64232  Biso   1.000  H
  H181     1.0000 0.83860  0.79370  0.26011  Biso   1.000  H
  C157     1.0000 0.86887  0.82547  0.09176  Biso   1.000  C
  C158     1.0000 0.96752  0.83622  0.04306  Biso   1.000  C
  H182     1.0000 0.00317  0.80988  0.17952  Biso   1.000  H
  C159     1.0000 0.93850  0.98279  0.65168  Biso   1.000  C
  C160     1.0000 0.01720  0.95568  0.65168  Biso   1.000  C
  C161     1.0000 0.91758  0.84198  0.00918  Biso   1.000  C
  C162     1.0000 0.81341  0.82661  0.05197  Biso   1.000  C
  C163     1.0000 0.01558  0.85268  0.95176  Biso   1.000  C
  H183     1.0000 0.89658  0.97150  0.65086  Biso   1.000  H
  C164     1.0000 0.98375  0.04534  0.65222  Biso   1.000  C
  H184     1.0000 0.02851  0.92510  0.65086  Biso   1.000  H
  C165     1.0000 0.06160  0.01622  0.65222  Biso   1.000  C
  H185     1.0000 0.91621  0.85688  0.93077  Biso   1.000  H
  H186     1.0000 0.78259  0.81898  0.11002  Biso   1.000  H
  N27      1.0000 0.80598  0.83750  0.94322  Biso   1.000  N
  N28      1.0000 0.06110  0.84504  0.96602  Biso   1.000  N
  H187     1.0000 0.01241  0.87009  0.87762  Biso   1.000  H
  C166     1.0000 0.96648  0.09339  0.64822  Biso   1.000  C
  C167     1.0000 0.04428  0.06148  0.65168  Biso   1.000  C
  C168     1.0000 0.12690  0.03350  0.64822  Biso   1.000  C
  C169     1.0000 0.74745  0.83265  0.91233  Biso   1.000  C
  C170     1.0000 0.10497  0.86365  0.86681  Biso   1.000  C
  N29      1.0000 0.91228  0.08201  0.65231  Biso   1.000  N
  H188     1.0000 0.99809  0.13477  0.64232  Biso   1.000  H
  H189     1.0000 0.07490  0.10340  0.65086  Biso   1.000  H
  N30      1.0000 0.16971  0.08768  0.65231  Biso   1.000  N
  H190     1.0000 0.13668  0.00190  0.64232  Biso   1.000  H
  C171     1.0000 0.75868  0.89501  0.86681  Biso   1.000  C
  H191     1.0000 0.72069  0.82031  0.98601  Biso   1.000  H
  C172     1.0000 0.71711  0.78400  0.81403  Biso   1.000  C
  C173     1.0000 0.11001  0.80920  0.82184  Biso   1.000  C
  H192     1.0000 0.09090  0.87970  0.79840  Biso   1.000  H
  C174     1.0000 0.16737  0.91481  0.91233  Biso   1.000  C
  C175     1.0000 0.90116  0.13358  0.64831  Biso   1.000  C
  C176     1.0000 0.23240  0.09879  0.64831  Biso   1.000  C
  N31      1.0000 0.78393  0.93886  0.96602  Biso   1.000  N
  C177     1.0000 0.69919  0.88998  0.82184  Biso   1.000  C
  H193     1.0000 0.78880  0.90909  0.79840  Biso   1.000  H
  H194     1.0000 0.74519  0.79438  0.74398  Biso   1.000  H
  H195     1.0000 0.70859  0.74391  0.84619  Biso   1.000  H
  C178     1.0000 0.65772  0.77980  0.77214  Biso   1.000  C
  H196     1.0000 0.11980  0.79068  0.89134  Biso   1.000  H
  H197     1.0000 0.07011  0.77801  0.78832  Biso   1.000  H
  C179     1.0000 0.15910  0.82771  0.72481  Biso   1.000  C
  N32      1.0000 0.16250  0.96848  0.94322  Biso   1.000  N
  H198     1.0000 0.17969  0.90041  0.98601  Biso   1.000  H
  C180     1.0000 0.21599  0.93310  0.81403  Biso   1.000  C
  H199     1.0000 0.94030  0.17130  0.62569  Biso   1.000  H
  C181     1.0000 0.88208  0.14300  0.77287  Biso   1.000  C
  C182     1.0000 0.85318  0.12187  0.55038  Biso   1.000  C
  H200     1.0000 0.23099  0.05969  0.62569  Biso   1.000  H
  C183     1.0000 0.26088  0.11790  0.77287  Biso   1.000  C
  C184     1.0000 0.26868  0.14679  0.55038  Biso   1.000  C
  C185     1.0000 0.83711  0.98439  0.95176  Biso   1.000  C
  H201     1.0000 0.67090  0.88020  0.89134  Biso   1.000  H
  H202     1.0000 0.70790  0.92990  0.78832  Biso   1.000  H
  C186     1.0000 0.66858  0.84088  0.72481  Biso   1.000  C
  H203     1.0000 0.63908  0.74871  0.70728  Biso   1.000  H
  H204     1.0000 0.62859  0.76668  0.84110  Biso   1.000  H
  C187     1.0000 0.22020  0.87791  0.77214  Biso   1.000  C
  H205     1.0000 0.14740  0.84239  0.65177  Biso   1.000  H
  H206     1.0000 0.16251  0.79168  0.70119  Biso   1.000  H
  C188     1.0000 0.17338  0.98677  0.05197  Biso   1.000  C
  H207     1.0000 0.20560  0.95079  0.74398  Biso   1.000  H
  H208     1.0000 0.25610  0.96469  0.84619  Biso   1.000  H
  H209     1.0000 0.91590  0.15379  0.83120  Biso   1.000  H
  H210     1.0000 0.84621  0.10459  0.80058  Biso   1.000  H
  C189     1.0000 0.86607  0.19388  0.77115  Biso   1.000  C
  N33      1.0000 0.87939  0.12297  0.43272  Biso   1.000  N
  C190     1.0000 0.83559  0.17166  0.55347  Biso   1.000  C
  H211     1.0000 0.81608  0.08109  0.56400  Biso   1.000  H
  H212     1.0000 0.23787  0.08406  0.83120  Biso   1.000  H
  H213     1.0000 0.25839  0.15379  0.80058  Biso   1.000  H
  C191     1.0000 0.32780  0.13390  0.77115  Biso   1.000  C
  N34      1.0000 0.24358  0.12059  0.43272  Biso   1.000  N
  C192     1.0000 0.33608  0.16439  0.55347  Biso   1.000  C
  H214     1.0000 0.26500  0.18387  0.56400  Biso   1.000  H
  H215     1.0000 0.85771  0.98759  0.87762  Biso   1.000  H
  C193     1.0000 0.86868  0.03249  0.04306  Biso   1.000  C
  H216     1.0000 0.69498  0.85258  0.65177  Biso   1.000  H
  H217     1.0000 0.62919  0.83750  0.70119  Biso   1.000  H
  H218     1.0000 0.25130  0.89039  0.70728  Biso   1.000  H
  H219     1.0000 0.23330  0.86191  0.84110  Biso   1.000  H
  H220     1.0000 0.18100  0.96359  0.11002  Biso   1.000  H
  C194     1.0000 0.17448  0.04337  0.09176  Biso   1.000  C
  H221     1.0000 0.90299  0.23320  0.75007  Biso   1.000  H
  H222     1.0000 0.85250  0.19818  0.85309  Biso   1.000  H
  C195     1.0000 0.81550  0.18017  0.67902  Biso   1.000  C
  C196     1.0000 0.85197  0.07780  0.36186  Biso   1.000  C
  H223     1.0000 0.80180  0.16078  0.49523  Biso   1.000  H
  H224     1.0000 0.87100  0.21080  0.52666  Biso   1.000  H
  H225     1.0000 0.33022  0.09700  0.75007  Biso   1.000  H
  H226     1.0000 0.34567  0.14748  0.85309  Biso   1.000  H
  C197     1.0000 0.36468  0.18446  0.67902  Biso   1.000  C
  C198     1.0000 0.22580  0.14798  0.36186  Biso   1.000  C
  H227     1.0000 0.35899  0.19818  0.49523  Biso   1.000  H
  H228     1.0000 0.33980  0.12901  0.52666  Biso   1.000  H
  C199     1.0000 0.92438  0.08237  0.00918  Biso   1.000  C
  C200     1.0000 0.84488  0.03066  0.15708  Biso   1.000  C
  C201     1.0000 0.19569  0.06687  0.20478  Biso   1.000  C
  C202     1.0000 0.15801  0.07561  0.00918  Biso   1.000  C
  H229     1.0000 0.77759  0.14277  0.70310  Biso   1.000  H
  H230     1.0000 0.80701  0.21450  0.67711  Biso   1.000  H
  H231     1.0000 0.81510  0.04301  0.38739  Biso   1.000  H
  C203     1.0000 0.87676  0.07867  0.24030  Biso   1.000  C
  H232     1.0000 0.36518  0.22237  0.70310  Biso   1.000  H
  H233     1.0000 0.40750  0.19297  0.67711  Biso   1.000  H
  H234     1.0000 0.22789  0.18488  0.38739  Biso   1.000  H
  C204     1.0000 0.20188  0.12320  0.24030  Biso   1.000  C
  H235     1.0000 0.94069  0.08379  0.93077  Biso   1.000  H
  C205     1.0000 0.95659  0.13111  0.09176  Biso   1.000  C
  H236     1.0000 0.80668  0.99678  0.17952  Biso   1.000  H
  H237     1.0000 0.20628  0.04488  0.26011  Biso   1.000  H
  H238     1.0000 0.14308  0.05928  0.93077  Biso   1.000  H
  C206     1.0000 0.16380  0.13129  0.04306  Biso   1.000  C
  C207     1.0000 0.93309  0.12878  0.20478  Biso   1.000  C
  C208     1.0000 0.18578  0.15507  0.15708  Biso   1.000  C
  C209     1.0000 0.01318  0.18657  0.05197  Biso   1.000  C
  C210     1.0000 0.14729  0.16288  0.95176  Biso   1.000  C
  H239     1.0000 0.95509  0.16138  0.26011  Biso   1.000  H
  H240     1.0000 0.19009  0.19329  0.17952  Biso   1.000  H
  N35      1.0000 0.03150  0.19397  0.94322  Biso   1.000  N
  H241     1.0000 0.03639  0.21738  0.11002  Biso   1.000  H
  N36      1.0000 0.15495  0.21606  0.96602  Biso   1.000  N
  H242     1.0000 0.12989  0.14226  0.87762  Biso   1.000  H
  C211     1.0000 0.08517  0.25254  0.91233  Biso   1.000  C
  C212     1.0000 0.13633  0.24129  0.86681  Biso   1.000  C
  H243     1.0000 0.09961  0.27929  0.98601  Biso   1.000  H
  C213     1.0000 0.06689  0.28290  0.81403  Biso   1.000  C
  C214     1.0000 0.19077  0.30078  0.82184  Biso   1.000  C
  H244     1.0000 0.12027  0.21116  0.79840  Biso   1.000  H
  H245     1.0000 0.04919  0.25478  0.74398  Biso   1.000  H
  H246     1.0000 0.03531  0.29140  0.84619  Biso   1.000  H
  C215     1.0000 0.12209  0.34229  0.77214  Biso   1.000  C
  H247     1.0000 0.20928  0.32908  0.89134  Biso   1.000  H
  H248     1.0000 0.22199  0.29209  0.78832  Biso   1.000  H
  C216     1.0000 0.17229  0.33136  0.72481  Biso   1.000  C
  H249     1.0000 0.10961  0.36090  0.70728  Biso   1.000  H
  H250     1.0000 0.13809  0.37137  0.84110  Biso   1.000  H
  H251     1.0000 0.15760  0.30498  0.65177  Biso   1.000  H
  H252     1.0000 0.20827  0.37077  0.70119  Biso   1.000  H
