data_image0
_cell_length_a       11.966
_cell_length_b       12.944
_cell_length_c       21.641
_cell_angle_alpha    90
_cell_angle_beta     90.39
_cell_angle_gamma    90

_symmetry_space_group_name_H-M    "P 1"
_symmetry_int_tables_number       1

loop_
  _symmetry_equiv_pos_as_xyz
  'x, y, z'

loop_
  _atom_site_label
  _atom_site_occupancy
  _atom_site_fract_x
  _atom_site_fract_y
  _atom_site_fract_z
  _atom_site_thermal_displace_type
  _atom_site_B_iso_or_equiv
  _atom_site_type_symbol
  C1       1.0000 0.11763  0.27186  0.71671  Biso   1.000  C
  C2       1.0000 0.13272  0.22852  0.65220  Biso   1.000  C
  H1       1.0000 0.18737  0.25997  0.74042  Biso   1.000  H
  H2       1.0000 0.05746  0.23239  0.73732  Biso   1.000  H
  C3       1.0000 0.08910  0.38528  0.72041  Biso   1.000  C
  C4       1.0000 0.23579  0.18943  0.63427  Biso   1.000  C
  C5       1.0000 0.04329  0.22142  0.61080  Biso   1.000  C
  C6       1.0000 0.16910  0.46099  0.70872  Biso   1.000  C
  C7       1.0000 0.98259  0.41687  0.73788  Biso   1.000  C
  C8       1.0000 0.25087  0.14339  0.57679  Biso   1.000  C
  H3       1.0000 0.29747  0.19407  0.66200  Biso   1.000  H
  C9       1.0000 0.05829  0.17560  0.55322  Biso   1.000  C
  O1       1.0000 0.94325  0.26020  0.63067  Biso   1.000  O
  O2       1.0000 0.27225  0.42491  0.69060  Biso   1.000  O
  C10      1.0000 0.14227  0.56482  0.71546  Biso   1.000  C
  C11      1.0000 0.95567  0.52078  0.74384  Biso   1.000  C
  H4       1.0000 0.92711  0.36627  0.74578  Biso   1.000  H
  C12      1.0000 0.16129  0.13473  0.53608  Biso   1.000  C
  O3       1.0000 0.35169  0.10182  0.55872  Biso   1.000  O
  H5       1.0000 0.99719  0.17213  0.52508  Biso   1.000  H
  C13      1.0000 0.85271  0.26460  0.58760  Biso   1.000  C
  C14      1.0000 0.35941  0.49961  0.68330  Biso   1.000  C
  H6       1.0000 0.19792  0.61550  0.70789  Biso   1.000  H
  C15      1.0000 0.03618  0.59618  0.73307  Biso   1.000  C
  O4       1.0000 0.85208  0.55663  0.76061  Biso   1.000  O
  C16      1.0000 0.17189  0.07741  0.47439  Biso   1.000  C
  C17      1.0000 0.44562  0.11503  0.59962  Biso   1.000  C
  H7       1.0000 0.87440  0.30477  0.55068  Biso   1.000  H
  H8       1.0000 0.83141  0.19407  0.57429  Biso   1.000  H
  C18      1.0000 0.75634  0.31613  0.61986  Biso   1.000  C
  H9       1.0000 0.33647  0.55261  0.65271  Biso   1.000  H
  H10      1.0000 0.37477  0.53453  0.72318  Biso   1.000  H
  C19      1.0000 0.46193  0.44430  0.66149  Biso   1.000  C
  C20      1.0000 0.00938  0.70929  0.74171  Biso   1.000  C
  C21      1.0000 0.76872  0.48401  0.77748  Biso   1.000  C
  C22      1.0000 0.12350  0.13450  0.41991  Biso   1.000  C
  H11      1.0000 0.13400  0.00981  0.47790  Biso   1.000  H
  H12      1.0000 0.25211  0.06397  0.46658  Biso   1.000  H
  H13      1.0000 0.45759  0.18943  0.60798  Biso   1.000  H
  H14      1.0000 0.43099  0.07988  0.63940  Biso   1.000  H
  C23      1.0000 0.54647  0.07030  0.57037  Biso   1.000  C
  H15      1.0000 0.77788  0.38628  0.63201  Biso   1.000  H
  H16      1.0000 0.69181  0.31922  0.59181  Biso   1.000  H
  H17      1.0000 0.73673  0.27627  0.65669  Biso   1.000  H
  H18      1.0000 0.44277  0.40111  0.62582  Biso   1.000  H
  H19      1.0000 0.51869  0.49498  0.64962  Biso   1.000  H
  H20      1.0000 0.49134  0.40073  0.69490  Biso   1.000  H
  H21      1.0000 0.07800  0.74552  0.75562  Biso   1.000  H
  H22      1.0000 0.95330  0.71608  0.77489  Biso   1.000  H
  C24      1.0000 0.96530  0.76197  0.68441  Biso   1.000  C
  H23      1.0000 0.75510  0.43480  0.74319  Biso   1.000  H
  H24      1.0000 0.79308  0.44453  0.81440  Biso   1.000  H
  C25      1.0000 0.66501  0.54311  0.79120  Biso   1.000  C
  C26      1.0000 0.18819  0.20341  0.38636  Biso   1.000  C
  C27      1.0000 0.01337  0.12029  0.40082  Biso   1.000  C
  H25      1.0000 0.56229  0.10746  0.53201  Biso   1.000  H
  H26      1.0000 0.61041  0.07679  0.59869  Biso   1.000  H
  H27      1.0000 0.53332  0.99722  0.56108  Biso   1.000  H
  C28      1.0000 0.85542  0.74737  0.66528  Biso   1.000  C
  C29      1.0000 0.03173  0.82749  0.64925  Biso   1.000  C
  H28      1.0000 0.64007  0.57981  0.75400  Biso   1.000  H
  H29      1.0000 0.60626  0.49529  0.80451  Biso   1.000  H
  H30      1.0000 0.68021  0.59309  0.82420  Biso   1.000  H
  C30      1.0000 0.14460  0.25263  0.33474  Biso   1.000  C
  O5       1.0000 0.29609  0.21632  0.40766  Biso   1.000  O
  C31      1.0000 0.96830  0.17251  0.35073  Biso   1.000  C
  H31      1.0000 0.96768  0.07324  0.42291  Biso   1.000  H
  C32      1.0000 0.81183  0.79659  0.61362  Biso   1.000  C
  H32      1.0000 0.80882  0.70233  0.68829  Biso   1.000  H
  C33      1.0000 0.98657  0.87971  0.59920  Biso   1.000  C
  O6       1.0000 0.14079  0.83792  0.66972  Biso   1.000  O
  C34      1.0000 0.03472  0.23803  0.31561  Biso   1.000  C
  H33      1.0000 0.19120  0.29767  0.31168  Biso   1.000  H
  C35      1.0000 0.36772  0.28307  0.37397  Biso   1.000  C
  O7       1.0000 0.85924  0.16208  0.33031  Biso   1.000  O
  C36      1.0000 0.87652  0.86550  0.58007  Biso   1.000  C
  O8       1.0000 0.70385  0.78368  0.59232  Biso   1.000  O
  H34      1.0000 0.03226  0.92676  0.57711  Biso   1.000  H
  C37      1.0000 0.21878  0.88914  0.63090  Biso   1.000  C
  C38      1.0000 0.99056  0.29071  0.25827  Biso   1.000  C
  H35      1.0000 0.37010  0.26244  0.32998  Biso   1.000  H
  H36      1.0000 0.34092  0.35538  0.37652  Biso   1.000  H
  C39      1.0000 0.48073  0.27341  0.40299  Biso   1.000  C
  C40      1.0000 0.78116  0.11086  0.36908  Biso   1.000  C
  C41      1.0000 0.82813  0.92259  0.52559  Biso   1.000  C
  C42      1.0000 0.63231  0.71693  0.62605  Biso   1.000  C
  H37      1.0000 0.28802  0.90281  0.65479  Biso   1.000  H
  H38      1.0000 0.18720  0.95650  0.61810  Biso   1.000  H
  C43      1.0000 0.24726  0.82903  0.57522  Biso   1.000  C
  H39      1.0000 0.04673  0.28392  0.22509  Biso   1.000  H
  H40      1.0000 0.92203  0.25448  0.24440  Biso   1.000  H
  C44      1.0000 0.96384  0.40382  0.26695  Biso   1.000  C
  H41      1.0000 0.50288  0.20048  0.40378  Biso   1.000  H
  H42      1.0000 0.53500  0.31312  0.37901  Biso   1.000  H
  H43      1.0000 0.47849  0.30006  0.44532  Biso   1.000  H
  H44      1.0000 0.71200  0.09719  0.34519  Biso   1.000  H
  H45      1.0000 0.81282  0.04350  0.38192  Biso   1.000  H
  C45      1.0000 0.75268  0.17097  0.42481  Biso   1.000  C
  C46      1.0000 0.83874  0.86527  0.46394  Biso   1.000  C
  H46      1.0000 0.86603  0.99019  0.52212  Biso   1.000  H
  H47      1.0000 0.74792  0.93603  0.53340  Biso   1.000  H
  H48      1.0000 0.62993  0.73756  0.66999  Biso   1.000  H
  H49      1.0000 0.65910  0.64462  0.62351  Biso   1.000  H
  C47      1.0000 0.51930  0.72659  0.59698  Biso   1.000  C
  H50      1.0000 0.27390  0.76028  0.58742  Biso   1.000  H
  H51      1.0000 0.30598  0.86488  0.55230  Biso   1.000  H
  H52      1.0000 0.18067  0.82193  0.54879  Biso   1.000  H
  C48      1.0000 0.04427  0.47922  0.25614  Biso   1.000  C
  C49      1.0000 0.85767  0.43518  0.28456  Biso   1.000  C
  H53      1.0000 0.72612  0.23972  0.41261  Biso   1.000  H
  H54      1.0000 0.69396  0.13512  0.44768  Biso   1.000  H
  H55      1.0000 0.81928  0.17807  0.45119  Biso   1.000  H
  C50      1.0000 0.74907  0.85661  0.42319  Biso   1.000  C
  C51      1.0000 0.94174  0.82440  0.44675  Biso   1.000  C
  H56      1.0000 0.49706  0.79952  0.59620  Biso   1.000  H
  H57      1.0000 0.46502  0.68688  0.62101  Biso   1.000  H
  H58      1.0000 0.52154  0.69994  0.55470  Biso   1.000  H
  O9       1.0000 0.14794  0.44337  0.23941  Biso   1.000  O
  C52      1.0000 0.01743  0.58313  0.26215  Biso   1.000  C
  C53      1.0000 0.83093  0.53901  0.29131  Biso   1.000  C
  H59      1.0000 0.80211  0.38450  0.29209  Biso   1.000  H
  C54      1.0000 0.76424  0.81057  0.36575  Biso   1.000  C
  O10      1.0000 0.64834  0.89818  0.44130  Biso   1.000  O
  C55      1.0000 0.95674  0.77858  0.38922  Biso   1.000  C
  H60      1.0000 0.00284  0.82787  0.47490  Biso   1.000  H
  C56      1.0000 0.23130  0.51599  0.22250  Biso   1.000  C
  H61      1.0000 0.07291  0.63373  0.25420  Biso   1.000  H
  C57      1.0000 0.91093  0.61472  0.27961  Biso   1.000  C
  O11      1.0000 0.72778  0.57509  0.30942  Biso   1.000  O
  C58      1.0000 0.86731  0.77148  0.34782  Biso   1.000  C
  H62      1.0000 0.70247  0.80593  0.33798  Biso   1.000  H
  C59      1.0000 0.55440  0.88497  0.40036  Biso   1.000  C
  O12      1.0000 0.05678  0.73980  0.36931  Biso   1.000  O
  H63      1.0000 0.24493  0.56520  0.25679  Biso   1.000  H
  H64      1.0000 0.20686  0.55547  0.18558  Biso   1.000  H
  C60      1.0000 0.33501  0.45689  0.20878  Biso   1.000  C
  C61      1.0000 0.88239  0.72814  0.28331  Biso   1.000  C
  C62      1.0000 0.64062  0.50039  0.31672  Biso   1.000  C
  H65      1.0000 0.54243  0.81057  0.39200  Biso   1.000  H
  H66      1.0000 0.56904  0.92012  0.36062  Biso   1.000  H
  C63      1.0000 0.45348  0.92970  0.42966  Biso   1.000  C
  C64      1.0000 0.14731  0.73540  0.41237  Biso   1.000  C
  H67      1.0000 0.35987  0.42019  0.24602  Biso   1.000  H
  H68      1.0000 0.39368  0.50471  0.19551  Biso   1.000  H
  H69      1.0000 0.31981  0.40691  0.17578  Biso   1.000  H
  H70      1.0000 0.81257  0.74003  0.25961  Biso   1.000  H
  H71      1.0000 0.94248  0.76761  0.26270  Biso   1.000  H
  H72      1.0000 0.66348  0.44739  0.34731  Biso   1.000  H
  H73      1.0000 0.62517  0.46547  0.27680  Biso   1.000  H
  C65      1.0000 0.53810  0.55570  0.33849  Biso   1.000  C
  H74      1.0000 0.43774  0.89254  0.46801  Biso   1.000  H
  H75      1.0000 0.38961  0.92321  0.40128  Biso   1.000  H
  H76      1.0000 0.46671  0.00278  0.43890  Biso   1.000  H
  H77      1.0000 0.12562  0.69523  0.44930  Biso   1.000  H
  H78      1.0000 0.16862  0.80593  0.42568  Biso   1.000  H
  C66      1.0000 0.24369  0.68387  0.38012  Biso   1.000  C
  H79      1.0000 0.55717  0.59889  0.37421  Biso   1.000  H
  H80      1.0000 0.48133  0.50502  0.35041  Biso   1.000  H
  H81      1.0000 0.50869  0.59927  0.30512  Biso   1.000  H
  H82      1.0000 0.22206  0.61372  0.36801  Biso   1.000  H
  H83      1.0000 0.30822  0.68078  0.40822  Biso   1.000  H
  H84      1.0000 0.26329  0.72373  0.34329  Biso   1.000  H
  O13      1.0000 0.35921  0.33792  0.83030  Biso   1.000  O
  C67      1.0000 0.46827  0.32749  0.85072  Biso   1.000  C
  C68      1.0000 0.28122  0.38914  0.86911  Biso   1.000  C
  C69      1.0000 0.53469  0.26197  0.81560  Biso   1.000  C
  C70      1.0000 0.51343  0.37971  0.90081  Biso   1.000  C
  H85      1.0000 0.21198  0.40281  0.84522  Biso   1.000  H
  H86      1.0000 0.31280  0.45650  0.88191  Biso   1.000  H
  C71      1.0000 0.25273  0.32903  0.92479  Biso   1.000  C
  C72      1.0000 0.49061  0.20929  0.75825  Biso   1.000  C
  C73      1.0000 0.64457  0.24737  0.83473  Biso   1.000  C
  C74      1.0000 0.62348  0.36550  0.91994  Biso   1.000  C
  H87      1.0000 0.46774  0.42676  0.92290  Biso   1.000  H
  H88      1.0000 0.22609  0.26028  0.91259  Biso   1.000  H
  H89      1.0000 0.19402  0.36488  0.94771  Biso   1.000  H
  H90      1.0000 0.31933  0.32193  0.95118  Biso   1.000  H
  H91      1.0000 0.54670  0.21608  0.72512  Biso   1.000  H
  H92      1.0000 0.42200  0.24552  0.74439  Biso   1.000  H
  C75      1.0000 0.46381  0.09618  0.76694  Biso   1.000  C
  H93      1.0000 0.69117  0.20233  0.81172  Biso   1.000  H
  C76      1.0000 0.68816  0.29659  0.88635  Biso   1.000  C
  C77      1.0000 0.67186  0.42259  0.97438  Biso   1.000  C
  C78      1.0000 0.35773  0.06482  0.78455  Biso   1.000  C
  C79      1.0000 0.54432  0.02078  0.75613  Biso   1.000  C
  O14      1.0000 0.79615  0.28368  0.90765  Biso   1.000  O
  H94      1.0000 0.63397  0.49019  0.97789  Biso   1.000  H
  H95      1.0000 0.75208  0.43603  0.96661  Biso   1.000  H
  C80      1.0000 0.66134  0.36527  0.03607  Biso   1.000  C
  H96      1.0000 0.30208  0.11550  0.79208  Biso   1.000  H
  C81      1.0000 0.33090  0.96099  0.79129  Biso   1.000  C
  O15      1.0000 0.64791  0.05663  0.73940  Biso   1.000  O
  C82      1.0000 0.51740  0.91687  0.76214  Biso   1.000  C
  C83      1.0000 0.86769  0.21693  0.87396  Biso   1.000  C
  C84      1.0000 0.75093  0.35661  0.07678  Biso   1.000  C
  C85      1.0000 0.55834  0.32440  0.05321  Biso   1.000  C
  O16      1.0000 0.22775  0.92491  0.80941  Biso   1.000  O
  C86      1.0000 0.41090  0.88528  0.77960  Biso   1.000  C
  C87      1.0000 0.73127  0.98401  0.72249  Biso   1.000  C
  H97      1.0000 0.57288  0.86627  0.75419  Biso   1.000  H
  H98      1.0000 0.87007  0.23756  0.83002  Biso   1.000  H
  H99      1.0000 0.84089  0.14462  0.87650  Biso   1.000  H
  C88      1.0000 0.98070  0.22659  0.90298  Biso   1.000  C
  O17      1.0000 0.85174  0.39818  0.05866  Biso   1.000  O
  C89      1.0000 0.73584  0.31057  0.13426  Biso   1.000  C
  C90      1.0000 0.54334  0.27858  0.11079  Biso   1.000  C
  H100     1.0000 0.49724  0.32787  0.02507  Biso   1.000  H
  C91      1.0000 0.14059  0.99961  0.81671  Biso   1.000  C
  C92      1.0000 0.38237  0.77186  0.78330  Biso   1.000  C
  C93      1.0000 0.83498  0.04311  0.70881  Biso   1.000  C
  H101     1.0000 0.74490  0.93480  0.75682  Biso   1.000  H
  H102     1.0000 0.70692  0.94453  0.68561  Biso   1.000  H
  H103     1.0000 0.97846  0.19994  0.94531  Biso   1.000  H
  H104     1.0000 0.00294  0.29952  0.90381  Biso   1.000  H
  H105     1.0000 0.03497  0.18688  0.87900  Biso   1.000  H
  C94      1.0000 0.94559  0.38497  0.09960  Biso   1.000  C
  H106     1.0000 0.79752  0.30593  0.16199  Biso   1.000  H
  C95      1.0000 0.63269  0.27148  0.15215  Biso   1.000  C
  O18      1.0000 0.44330  0.23980  0.13066  Biso   1.000  O
  H107     1.0000 0.16353  0.05261  0.84730  Biso   1.000  H
  H108     1.0000 0.12522  0.03453  0.77678  Biso   1.000  H
  C96      1.0000 0.03807  0.94430  0.83852  Biso   1.000  C
  C97      1.0000 0.36728  0.72852  0.84781  Biso   1.000  C
  H109     1.0000 0.31263  0.75997  0.75959  Biso   1.000  H
  H110     1.0000 0.44253  0.73239  0.76269  Biso   1.000  H
  H111     1.0000 0.85993  0.07981  0.74601  Biso   1.000  H
  H112     1.0000 0.81979  0.09309  0.67582  Biso   1.000  H
  H113     1.0000 0.89374  0.99529  0.69550  Biso   1.000  H
  H114     1.0000 0.95765  0.31057  0.10797  Biso   1.000  H
  H115     1.0000 0.93104  0.42012  0.13939  Biso   1.000  H
  C98      1.0000 0.04652  0.42970  0.07035  Biso   1.000  C
  C99      1.0000 0.61760  0.22814  0.21665  Biso   1.000  C
  C100     1.0000 0.35277  0.23540  0.08759  Biso   1.000  C
  H116     1.0000 0.98130  0.99498  0.85040  Biso   1.000  H
  H117     1.0000 0.05723  0.90111  0.87419  Biso   1.000  H
  H118     1.0000 0.00874  0.90073  0.80511  Biso   1.000  H
  C101     1.0000 0.26421  0.68943  0.86574  Biso   1.000  C
  C102     1.0000 0.45671  0.72142  0.88921  Biso   1.000  C
  H119     1.0000 0.06234  0.39254  0.03195  Biso   1.000  H
  H120     1.0000 0.11047  0.42321  0.09868  Biso   1.000  H
  H121     1.0000 0.03329  0.50278  0.06107  Biso   1.000  H
  H122     1.0000 0.68742  0.24003  0.24036  Biso   1.000  H
  H123     1.0000 0.55752  0.26761  0.23726  Biso   1.000  H
  C103     1.0000 0.58915  0.11472  0.22040  Biso   1.000  C
  H124     1.0000 0.37446  0.19523  0.05067  Biso   1.000  H
  H125     1.0000 0.33146  0.30593  0.07428  Biso   1.000  H
  C104     1.0000 0.25631  0.18387  0.11984  Biso   1.000  C
  C105     1.0000 0.24912  0.64339  0.92318  Biso   1.000  C
  H126     1.0000 0.20253  0.69407  0.83801  Biso   1.000  H
  O19      1.0000 0.55675  0.76020  0.86930  Biso   1.000  O
  C106     1.0000 0.44171  0.67560  0.94679  Biso   1.000  C
  C107     1.0000 0.66915  0.03901  0.20866  Biso   1.000  C
  C108     1.0000 0.48265  0.08313  0.23782  Biso   1.000  C
  H127     1.0000 0.27793  0.11372  0.13200  Biso   1.000  H
  H128     1.0000 0.19186  0.18078  0.09180  Biso   1.000  H
  H129     1.0000 0.23670  0.22373  0.15667  Biso   1.000  H
  O20      1.0000 0.14831  0.60182  0.94129  Biso   1.000  O
  C109     1.0000 0.33871  0.63473  0.96393  Biso   1.000  C
  C110     1.0000 0.64728  0.76460  0.91236  Biso   1.000  C
  H130     1.0000 0.50281  0.67213  0.97489  Biso   1.000  H
  C111     1.0000 0.64232  0.93518  0.21545  Biso   1.000  C
  O21      1.0000 0.77230  0.07509  0.19059  Biso   1.000  O
  C112     1.0000 0.45573  0.97922  0.24383  Biso   1.000  C
  H131     1.0000 0.42709  0.13373  0.24577  Biso   1.000  H
  C113     1.0000 0.05437  0.61503  0.90035  Biso   1.000  C
  C114     1.0000 0.32810  0.57741  0.02558  Biso   1.000  C
  H132     1.0000 0.62559  0.80477  0.94928  Biso   1.000  H
  H133     1.0000 0.66859  0.69407  0.92572  Biso   1.000  H
  C115     1.0000 0.74366  0.81613  0.88011  Biso   1.000  C
  H134     1.0000 0.69789  0.88450  0.20787  Biso   1.000  H
  C116     1.0000 0.53624  0.90382  0.23301  Biso   1.000  C
  C117     1.0000 0.85946  0.00039  0.18329  Biso   1.000  C
  O22      1.0000 0.35214  0.94337  0.26055  Biso   1.000  O
  C118     1.0000 0.95353  0.57030  0.92965  Biso   1.000  C
  H135     1.0000 0.04240  0.68943  0.89198  Biso   1.000  H
  H136     1.0000 0.06901  0.57988  0.86061  Biso   1.000  H
  C119     1.0000 0.37649  0.63450  0.08006  Biso   1.000  C
  H137     1.0000 0.36600  0.50981  0.02207  Biso   1.000  H
  H138     1.0000 0.24789  0.56397  0.03339  Biso   1.000  H
  H139     1.0000 0.72212  0.88628  0.86800  Biso   1.000  H
  H140     1.0000 0.80819  0.81922  0.90820  Biso   1.000  H
  H141     1.0000 0.76326  0.77627  0.84328  Biso   1.000  H
  C120     1.0000 0.50944  0.79071  0.24170  Biso   1.000  C
  H142     1.0000 0.83652  0.94739  0.15270  Biso   1.000  H
  H143     1.0000 0.87483  0.96547  0.22317  Biso   1.000  H
  C121     1.0000 0.96190  0.05570  0.16148  Biso   1.000  C
  C122     1.0000 0.26869  0.01599  0.27747  Biso   1.000  C
  H144     1.0000 0.93771  0.60746  0.96800  Biso   1.000  H
  H145     1.0000 0.88958  0.57679  0.90132  Biso   1.000  H
  H146     1.0000 0.96668  0.49722  0.93889  Biso   1.000  H
  C123     1.0000 0.31180  0.70341  0.11361  Biso   1.000  C
  C124     1.0000 0.48662  0.62029  0.09914  Biso   1.000  C
  C125     1.0000 0.46536  0.73803  0.18440  Biso   1.000  C
  H147     1.0000 0.45335  0.78392  0.27488  Biso   1.000  H
  H148     1.0000 0.57805  0.75448  0.25556  Biso   1.000  H
  H149     1.0000 0.94282  0.09889  0.12576  Biso   1.000  H
  H150     1.0000 0.99131  0.09927  0.19489  Biso   1.000  H
  H151     1.0000 0.01875  0.00502  0.14956  Biso   1.000  H
  C126     1.0000 0.16498  0.95689  0.29119  Biso   1.000  C
  H152     1.0000 0.25515  0.06520  0.24318  Biso   1.000  H
  H153     1.0000 0.29313  0.05547  0.31439  Biso   1.000  H
  O23      1.0000 0.20390  0.71632  0.09230  Biso   1.000  O
  C127     1.0000 0.35539  0.75263  0.16527  Biso   1.000  C
  H154     1.0000 0.53231  0.57324  0.07705  Biso   1.000  H
  C128     1.0000 0.53170  0.67251  0.14923  Biso   1.000  C
  H155     1.0000 0.14012  0.92019  0.25399  Biso   1.000  H
  H156     1.0000 0.18027  0.90691  0.32418  Biso   1.000  H
  H157     1.0000 0.10631  0.00471  0.30450  Biso   1.000  H
  C129     1.0000 0.13236  0.78307  0.12604  Biso   1.000  C
  H158     1.0000 0.30879  0.79767  0.18828  Biso   1.000  H
  O24      1.0000 0.64084  0.66208  0.16971  Biso   1.000  O
  H159     1.0000 0.12990  0.76244  0.16998  Biso   1.000  H
  H160     1.0000 0.15916  0.85538  0.12350  Biso   1.000  H
  C130     1.0000 0.01935  0.77341  0.09697  Biso   1.000  C
  C131     1.0000 0.71884  0.61086  0.13089  Biso   1.000  C
  H161     1.0000 0.99711  0.70048  0.09619  Biso   1.000  H
  H162     1.0000 0.96499  0.81312  0.12100  Biso   1.000  H
  H163     1.0000 0.02151  0.80006  0.05469  Biso   1.000  H
  H164     1.0000 0.78799  0.59719  0.15478  Biso   1.000  H
  H165     1.0000 0.68726  0.54350  0.11809  Biso   1.000  H
  C132     1.0000 0.74732  0.67097  0.07516  Biso   1.000  C
  H166     1.0000 0.77396  0.73972  0.08736  Biso   1.000  H
  H167     1.0000 0.80603  0.63512  0.05229  Biso   1.000  H
  H168     1.0000 0.68072  0.67807  0.04877  Biso   1.000  H
