data_image0
_cell_length_a       15.151
_cell_length_b       20.728
_cell_length_c       33.431
_cell_angle_alpha    90
_cell_angle_beta     100.74
_cell_angle_gamma    90

_symmetry_space_group_name_H-M    "P 1"
_symmetry_int_tables_number       1

loop_
  _symmetry_equiv_pos_as_xyz
  'x, y, z'

loop_
  _atom_site_label
  _atom_site_occupancy
  _atom_site_fract_x
  _atom_site_fract_y
  _atom_site_fract_z
  _atom_site_thermal_displace_type
  _atom_site_B_iso_or_equiv
  _atom_site_type_symbol
  O1       1.0000 0.69770  0.63079  0.50993  Biso   1.000  O
  C1       1.0000 0.73466  0.68391  0.51475  Biso   1.000  C
  N1       1.0000 0.69535  0.74050  0.52108  Biso   1.000  N
  N2       1.0000 0.82389  0.69481  0.51392  Biso   1.000  N
  C2       1.0000 0.75504  0.79540  0.52114  Biso   1.000  C
  C3       1.0000 0.59918  0.74691  0.51946  Biso   1.000  C
  C4       1.0000 0.84535  0.76240  0.51685  Biso   1.000  C
  C5       1.0000 0.87919  0.64782  0.49849  Biso   1.000  C
  N3       1.0000 0.77619  0.83033  0.55892  Biso   1.000  N
  H1       1.0000 0.73345  0.82473  0.49800  Biso   1.000  H
  N4       1.0000 0.57609  0.76240  0.55865  Biso   1.000  N
  H2       1.0000 0.57576  0.78073  0.49989  Biso   1.000  H
  H3       1.0000 0.56978  0.70629  0.50960  Biso   1.000  H
  N5       1.0000 0.90487  0.78073  0.55548  Biso   1.000  N
  H4       1.0000 0.86826  0.77822  0.49279  Biso   1.000  H
  N6       1.0000 0.95569  0.62669  0.52933  Biso   1.000  N
  H5       1.0000 0.84225  0.61019  0.48859  Biso   1.000  H
  H6       1.0000 0.90170  0.66639  0.47538  Biso   1.000  H
  C6       1.0000 0.72020  0.88122  0.56979  Biso   1.000  C
  C7       1.0000 0.86527  0.82439  0.57652  Biso   1.000  C
  C8       1.0000 0.56865  0.82869  0.57073  Biso   1.000  C
  C9       1.0000 0.52516  0.72240  0.57716  Biso   1.000  C
  C10      1.0000 0.00142  0.77731  0.55980  Biso   1.000  C
  C11      1.0000 0.96974  0.56310  0.53925  Biso   1.000  C
  C12      1.0000 0.03703  0.66451  0.53852  Biso   1.000  C
  N7       1.0000 0.65187  0.85811  0.59141  Biso   1.000  N
  H7       1.0000 0.75808  0.91282  0.58678  Biso   1.000  H
  H8       1.0000 0.69075  0.90342  0.54489  Biso   1.000  H
  O2       1.0000 0.90317  0.85372  0.60690  Biso   1.000  O
  C13      1.0000 0.51229  0.82401  0.60493  Biso   1.000  C
  H9       1.0000 0.53836  0.85561  0.54778  Biso   1.000  H
  O3       1.0000 0.50946  0.66543  0.56885  Biso   1.000  O
  N8       1.0000 0.49368  0.75540  0.60718  Biso   1.000  N
  N9       1.0000 0.03580  0.71251  0.56973  Biso   1.000  N
  H10      1.0000 0.01872  0.79120  0.53429  Biso   1.000  H
  H11      1.0000 0.02901  0.80712  0.58130  Biso   1.000  H
  O4       1.0000 0.91385  0.51992  0.53350  Biso   1.000  O
  N10      1.0000 0.05756  0.55591  0.55862  Biso   1.000  N
  H12      1.0000 0.05295  0.68362  0.51368  Biso   1.000  H
  C14      1.0000 0.10833  0.61511  0.55865  Biso   1.000  C
  C15      1.0000 0.64827  0.87490  0.63016  Biso   1.000  C
  N11      1.0000 0.57096  0.85083  0.63991  Biso   1.000  N
  H13      1.0000 0.45597  0.84919  0.59798  Biso   1.000  H
  C16      1.0000 0.42431  0.73099  0.62660  Biso   1.000  C
  C17      1.0000 0.10136  0.70123  0.60380  Biso   1.000  C
  C18      1.0000 0.09992  0.49358  0.56723  Biso   1.000  C
  N12      1.0000 0.13975  0.64179  0.59862  Biso   1.000  N
  H14      1.0000 0.15761  0.61053  0.54318  Biso   1.000  H
  O5       1.0000 0.70527  0.90713  0.65306  Biso   1.000  O
  C19      1.0000 0.53930  0.86989  0.67656  Biso   1.000  C
  N13      1.0000 0.45039  0.72269  0.67060  Biso   1.000  N
  H15      1.0000 0.37300  0.76061  0.62109  Biso   1.000  H
  H16      1.0000 0.40431  0.68931  0.61439  Biso   1.000  H
  O6       1.0000 0.12082  0.73620  0.63315  Biso   1.000  O
  N14      1.0000 0.12852  0.48152  0.61031  Biso   1.000  N
  H17      1.0000 0.05751  0.45991  0.55560  Biso   1.000  H
  H18      1.0000 0.15225  0.49103  0.55390  Biso   1.000  H
  C20      1.0000 0.22500  0.62283  0.62359  Biso   1.000  C
  N15      1.0000 0.52977  0.81730  0.70330  Biso   1.000  N
  H19      1.0000 0.48095  0.89131  0.66868  Biso   1.000  H
  H20      1.0000 0.58150  0.90129  0.69139  Biso   1.000  H
  C21      1.0000 0.45266  0.77542  0.69940  Biso   1.000  C
  C22      1.0000 0.44748  0.66442  0.68889  Biso   1.000  C
  C23      1.0000 0.21571  0.50111  0.63294  Biso   1.000  C
  C24      1.0000 0.09040  0.43371  0.63029  Biso   1.000  C
  N16      1.0000 0.21822  0.56662  0.64788  Biso   1.000  N
  H21      1.0000 0.24824  0.65872  0.64158  Biso   1.000  H
  H22      1.0000 0.26830  0.61439  0.60578  Biso   1.000  H
  C25      1.0000 0.58757  0.80982  0.74065  Biso   1.000  C
  C26      1.0000 0.46506  0.74050  0.74096  Biso   1.000  C
  H23      1.0000 0.39596  0.80041  0.69410  Biso   1.000  H
  O7       1.0000 0.43421  0.61168  0.67154  Biso   1.000  O
  N17      1.0000 0.46027  0.67310  0.73012  Biso   1.000  N
  H24      1.0000 0.26402  0.49310  0.61719  Biso   1.000  H
  C27      1.0000 0.22831  0.45962  0.67194  Biso   1.000  C
  O8       1.0000 0.01984  0.40612  0.61680  Biso   1.000  O
  N18      1.0000 0.14365  0.42421  0.66734  Biso   1.000  N
  C28      1.0000 0.23681  0.56851  0.68972  Biso   1.000  C
  O9       1.0000 0.65470  0.84190  0.75207  Biso   1.000  O
  N19      1.0000 0.55455  0.76192  0.76132  Biso   1.000  N
  H25      1.0000 0.41798  0.75270  0.75648  Biso   1.000  H
  C29      1.0000 0.45050  0.62211  0.75819  Biso   1.000  C
  N20      1.0000 0.24083  0.50719  0.70415  Biso   1.000  N
  H26      1.0000 0.28061  0.43029  0.67410  Biso   1.000  H
  C30      1.0000 0.12984  0.37090  0.69346  Biso   1.000  C
  O10      1.0000 0.24711  0.61820  0.71011  Biso   1.000  O
  C31      1.0000 0.58301  0.75550  0.80468  Biso   1.000  C
  N21      1.0000 0.53491  0.60319  0.78385  Biso   1.000  N
  H27      1.0000 0.40882  0.63619  0.77560  Biso   1.000  H
  H28      1.0000 0.42410  0.58443  0.74278  Biso   1.000  H
  C32      1.0000 0.26880  0.49262  0.74729  Biso   1.000  C
  N22      1.0000 0.10003  0.39160  0.73012  Biso   1.000  N
  H29      1.0000 0.08506  0.34152  0.67830  Biso   1.000  H
  H30      1.0000 0.18625  0.34692  0.70110  Biso   1.000  H
  N23      1.0000 0.62228  0.69370  0.81738  Biso   1.000  N
  H31      1.0000 0.62689  0.78932  0.81430  Biso   1.000  H
  H32      1.0000 0.53098  0.76240  0.81780  Biso   1.000  H
  C33      1.0000 0.57077  0.63610  0.82212  Biso   1.000  C
  C34      1.0000 0.56638  0.54130  0.78318  Biso   1.000  C
  N24      1.0000 0.19604  0.47429  0.76714  Biso   1.000  N
  H33      1.0000 0.29869  0.53059  0.76108  Biso   1.000  H
  H34      1.0000 0.31281  0.45740  0.75030  Biso   1.000  H
  C35      1.0000 0.16272  0.40930  0.76732  Biso   1.000  C
  C36      1.0000 0.01613  0.37862  0.73746  Biso   1.000  C
  C37      1.0000 0.71298  0.68492  0.83071  Biso   1.000  C
  C38      1.0000 0.64437  0.58819  0.84395  Biso   1.000  C
  H35      1.0000 0.52377  0.64439  0.83847  Biso   1.000  H
  O11      1.0000 0.54059  0.50048  0.75755  Biso   1.000  O
  N25      1.0000 0.63156  0.53281  0.81731  Biso   1.000  N
  C39      1.0000 0.16990  0.51201  0.79667  Biso   1.000  C
  H36      1.0000 0.21202  0.37751  0.77420  Biso   1.000  H
  C40      1.0000 0.10226  0.41118  0.79990  Biso   1.000  C
  O12      1.0000 0.95279  0.35729  0.71279  Biso   1.000  O
  N26      1.0000 0.01296  0.39478  0.77728  Biso   1.000  N
  O13      1.0000 0.76990  0.72670  0.82949  Biso   1.000  O
  N27      1.0000 0.72769  0.62350  0.84465  Biso   1.000  N
  H37      1.0000 0.63538  0.57729  0.87169  Biso   1.000  H
  C41      1.0000 0.67527  0.47120  0.82730  Biso   1.000  C
  O14      1.0000 0.19644  0.56629  0.80584  Biso   1.000  O
  N28      1.0000 0.10984  0.47752  0.81384  Biso   1.000  N
  H38      1.0000 0.12275  0.38050  0.82228  Biso   1.000  H
  C42      1.0000 0.94439  0.36940  0.79768  Biso   1.000  C
  C43      1.0000 0.80997  0.60681  0.87318  Biso   1.000  C
  N29      1.0000 0.76939  0.47081  0.82362  Biso   1.000  N
  H39      1.0000 0.67077  0.45962  0.85519  Biso   1.000  H
  H40      1.0000 0.64347  0.43810  0.80919  Biso   1.000  H
  C44      1.0000 0.08176  0.49812  0.85117  Biso   1.000  C
  N30      1.0000 0.89205  0.42078  0.81211  Biso   1.000  N
  H41      1.0000 0.90400  0.34152  0.77889  Biso   1.000  H
  H42      1.0000 0.97268  0.34301  0.82088  Biso   1.000  H
  N31      1.0000 0.86267  0.55760  0.85817  Biso   1.000  N
  H43      1.0000 0.79386  0.59181  0.89870  Biso   1.000  H
  H44      1.0000 0.84681  0.64570  0.87930  Biso   1.000  H
  C45      1.0000 0.83927  0.49040  0.85793  Biso   1.000  C
  C46      1.0000 0.80140  0.42643  0.79969  Biso   1.000  C
  N32      1.0000 0.98507  0.50801  0.84572  Biso   1.000  N
  H45      1.0000 0.09982  0.46541  0.87230  Biso   1.000  H
  H46      1.0000 0.11256  0.53840  0.86058  Biso   1.000  H
  C47      1.0000 0.92436  0.45518  0.84943  Biso   1.000  C
  C48      1.0000 0.95056  0.56629  0.85488  Biso   1.000  C
  H47      1.0000 0.82424  0.47689  0.88429  Biso   1.000  H
  O15      1.0000 0.75597  0.39710  0.77091  Biso   1.000  O
  H48      1.0000 0.94975  0.42561  0.87187  Biso   1.000  H
  O16      1.0000 0.99077  0.61718  0.85829  Biso   1.000  O
  O17      1.0000 0.30229  0.36921  0.49005  Biso   1.000  O
  C49      1.0000 0.26527  0.31609  0.48524  Biso   1.000  C
  N33      1.0000 0.30457  0.25950  0.47891  Biso   1.000  N
  N34      1.0000 0.17610  0.30519  0.48607  Biso   1.000  N
  C50      1.0000 0.40081  0.25309  0.48052  Biso   1.000  C
  C51      1.0000 0.24488  0.20460  0.47885  Biso   1.000  C
  C52      1.0000 0.15457  0.23760  0.48314  Biso   1.000  C
  C53      1.0000 0.12081  0.35218  0.50150  Biso   1.000  C
  N35      1.0000 0.42390  0.23760  0.44134  Biso   1.000  N
  H49      1.0000 0.42417  0.21932  0.50010  Biso   1.000  H
  H50      1.0000 0.43021  0.29371  0.49039  Biso   1.000  H
  N36      1.0000 0.22380  0.16972  0.44107  Biso   1.000  N
  H51      1.0000 0.26648  0.17532  0.50199  Biso   1.000  H
  N37      1.0000 0.09513  0.21932  0.44451  Biso   1.000  N
  H52      1.0000 0.13173  0.22183  0.50719  Biso   1.000  H
  N38      1.0000 0.04430  0.37331  0.47066  Biso   1.000  N
  H53      1.0000 0.15768  0.38981  0.51140  Biso   1.000  H
  H54      1.0000 0.09828  0.33361  0.52458  Biso   1.000  H
  C54      1.0000 0.43127  0.17131  0.42925  Biso   1.000  C
  C55      1.0000 0.47477  0.27760  0.42283  Biso   1.000  C
  C56      1.0000 0.27979  0.11882  0.43020  Biso   1.000  C
  C57      1.0000 0.13472  0.17561  0.42347  Biso   1.000  C
  C58      1.0000 0.99850  0.22269  0.44018  Biso   1.000  C
  C59      1.0000 0.96297  0.33549  0.46147  Biso   1.000  C
  C60      1.0000 0.03019  0.43690  0.46073  Biso   1.000  C
  C61      1.0000 0.48771  0.17599  0.39506  Biso   1.000  C
  N39      1.0000 0.34806  0.14189  0.40858  Biso   1.000  N
  H55      1.0000 0.46156  0.14439  0.45218  Biso   1.000  H
  N40      1.0000 0.50625  0.24460  0.39281  Biso   1.000  N
  O18      1.0000 0.49046  0.33462  0.43114  Biso   1.000  O
  H56      1.0000 0.24192  0.08718  0.41321  Biso   1.000  H
  H57      1.0000 0.30917  0.09658  0.45510  Biso   1.000  H
  O19      1.0000 0.09682  0.14632  0.39308  Biso   1.000  O
  N41      1.0000 0.96413  0.28749  0.43026  Biso   1.000  N
  H58      1.0000 0.98121  0.20880  0.46570  Biso   1.000  H
  H59      1.0000 0.97092  0.19288  0.41869  Biso   1.000  H
  H60      1.0000 0.94703  0.31638  0.48628  Biso   1.000  H
  C62      1.0000 0.89165  0.38489  0.44131  Biso   1.000  C
  N42      1.0000 0.94243  0.44409  0.44137  Biso   1.000  N
  O20      1.0000 0.08608  0.48012  0.46649  Biso   1.000  O
  N43      1.0000 0.42897  0.14922  0.36008  Biso   1.000  N
  H61      1.0000 0.54396  0.15081  0.40200  Biso   1.000  H
  C63      1.0000 0.35172  0.12510  0.36982  Biso   1.000  C
  C64      1.0000 0.57568  0.26901  0.37339  Biso   1.000  C
  C65      1.0000 0.89864  0.29882  0.39619  Biso   1.000  C
  N44      1.0000 0.86024  0.35821  0.40137  Biso   1.000  N
  H62      1.0000 0.84231  0.38952  0.45681  Biso   1.000  H
  C66      1.0000 0.90001  0.50642  0.43275  Biso   1.000  C
  C67      1.0000 0.46069  0.13011  0.32342  Biso   1.000  C
  O21      1.0000 0.29472  0.09292  0.34693  Biso   1.000  O
  N45      1.0000 0.54961  0.27731  0.32939  Biso   1.000  N
  H63      1.0000 0.62699  0.23939  0.37890  Biso   1.000  H
  H64      1.0000 0.59569  0.31069  0.38559  Biso   1.000  H
  O22      1.0000 0.87916  0.26380  0.36681  Biso   1.000  O
  C68      1.0000 0.77493  0.37722  0.37640  Biso   1.000  C
  N46      1.0000 0.87140  0.51853  0.38967  Biso   1.000  N
  H65      1.0000 0.94241  0.54009  0.44439  Biso   1.000  H
  H66      1.0000 0.84774  0.50902  0.44609  Biso   1.000  H
  N47      1.0000 0.47016  0.18270  0.29669  Biso   1.000  N
  H67      1.0000 0.51898  0.10869  0.33131  Biso   1.000  H
  H68      1.0000 0.41849  0.09871  0.30860  Biso   1.000  H
  C69      1.0000 0.54727  0.22462  0.30059  Biso   1.000  C
  C70      1.0000 0.55251  0.33558  0.31109  Biso   1.000  C
  N48      1.0000 0.78177  0.43342  0.35210  Biso   1.000  N
  H69      1.0000 0.75176  0.34133  0.35841  Biso   1.000  H
  H70      1.0000 0.73162  0.38561  0.39418  Biso   1.000  H
  C71      1.0000 0.78422  0.49889  0.36705  Biso   1.000  C
  C72      1.0000 0.90951  0.56629  0.36967  Biso   1.000  C
  C73      1.0000 0.41236  0.19023  0.25934  Biso   1.000  C
  C74      1.0000 0.53485  0.25950  0.25900  Biso   1.000  C
  H71      1.0000 0.60396  0.19959  0.30589  Biso   1.000  H
  N49      1.0000 0.53972  0.32690  0.26987  Biso   1.000  N
  O23      1.0000 0.56579  0.38832  0.32845  Biso   1.000  O
  C75      1.0000 0.76312  0.43149  0.31027  Biso   1.000  C
  C76      1.0000 0.77162  0.54043  0.32805  Biso   1.000  C
  H72      1.0000 0.73591  0.50690  0.38279  Biso   1.000  H
  N50      1.0000 0.85634  0.57579  0.33265  Biso   1.000  N
  O24      1.0000 0.98015  0.59388  0.38319  Biso   1.000  O
  O25      1.0000 0.34529  0.15810  0.24792  Biso   1.000  O
  N51      1.0000 0.44537  0.23808  0.23866  Biso   1.000  N
  H73      1.0000 0.58201  0.24730  0.24350  Biso   1.000  H
  C77      1.0000 0.54950  0.37789  0.24180  Biso   1.000  C
  N52      1.0000 0.75916  0.49281  0.29584  Biso   1.000  N
  O26      1.0000 0.75281  0.38180  0.28987  Biso   1.000  O
  H74      1.0000 0.71931  0.56971  0.32589  Biso   1.000  H
  C78      1.0000 0.87015  0.62910  0.30653  Biso   1.000  C
  C79      1.0000 0.41699  0.24450  0.19531  Biso   1.000  C
  N53      1.0000 0.46509  0.39681  0.21613  Biso   1.000  N
  H75      1.0000 0.59118  0.36381  0.22438  Biso   1.000  H
  H76      1.0000 0.57589  0.41562  0.25721  Biso   1.000  H
  C80      1.0000 0.73113  0.50738  0.25270  Biso   1.000  C
  N54      1.0000 0.89996  0.60840  0.26987  Biso   1.000  N
  H77      1.0000 0.91493  0.65853  0.32169  Biso   1.000  H
  H78      1.0000 0.81374  0.65313  0.29889  Biso   1.000  H
  N55      1.0000 0.37771  0.30630  0.18261  Biso   1.000  N
  H79      1.0000 0.37310  0.21068  0.18569  Biso   1.000  H
  H80      1.0000 0.46901  0.23760  0.18219  Biso   1.000  H
  C81      1.0000 0.42915  0.36390  0.17786  Biso   1.000  C
  C82      1.0000 0.43361  0.45870  0.21680  Biso   1.000  C
  N56      1.0000 0.80395  0.52571  0.23285  Biso   1.000  N
  H81      1.0000 0.70123  0.46941  0.23891  Biso   1.000  H
  H82      1.0000 0.68712  0.54260  0.24968  Biso   1.000  H
  C83      1.0000 0.83721  0.59070  0.23267  Biso   1.000  C
  C84      1.0000 0.98385  0.62143  0.26250  Biso   1.000  C
  C85      1.0000 0.28702  0.31508  0.16928  Biso   1.000  C
  C86      1.0000 0.35556  0.41181  0.15603  Biso   1.000  C
  H83      1.0000 0.47621  0.35561  0.16148  Biso   1.000  H
  N57      1.0000 0.36836  0.46719  0.18267  Biso   1.000  N
  O27      1.0000 0.45940  0.49952  0.24244  Biso   1.000  O
  C87      1.0000 0.83002  0.48799  0.20332  Biso   1.000  C
  C88      1.0000 0.89773  0.58882  0.20009  Biso   1.000  C
  H84      1.0000 0.78791  0.62249  0.22579  Biso   1.000  H
  N58      1.0000 0.98703  0.60522  0.22271  Biso   1.000  N
  O28      1.0000 0.04719  0.64271  0.28716  Biso   1.000  O
  O29      1.0000 0.23010  0.27330  0.17050  Biso   1.000  O
  N59      1.0000 0.27231  0.37650  0.15533  Biso   1.000  N
  H85      1.0000 0.36462  0.42271  0.12830  Biso   1.000  H
  C89      1.0000 0.32465  0.52880  0.17269  Biso   1.000  C
  N60      1.0000 0.89015  0.52248  0.18614  Biso   1.000  N
  O30      1.0000 0.80355  0.43371  0.19415  Biso   1.000  O
  H86      1.0000 0.87724  0.61950  0.17771  Biso   1.000  H
  C90      1.0000 0.05560  0.63060  0.20231  Biso   1.000  C
  C91      1.0000 0.19002  0.39319  0.12681  Biso   1.000  C
  N61      1.0000 0.23060  0.52919  0.17637  Biso   1.000  N
  H87      1.0000 0.32916  0.54043  0.14480  Biso   1.000  H
  H88      1.0000 0.35646  0.56190  0.19080  Biso   1.000  H
  C92      1.0000 0.91823  0.50188  0.14882  Biso   1.000  C
  N62      1.0000 0.10788  0.57922  0.18788  Biso   1.000  N
  H89      1.0000 0.09600  0.65853  0.22110  Biso   1.000  H
  H90      1.0000 0.02732  0.65699  0.17911  Biso   1.000  H
  N63      1.0000 0.13732  0.44240  0.14182  Biso   1.000  N
  H91      1.0000 0.20606  0.40819  0.10129  Biso   1.000  H
  H92      1.0000 0.15318  0.35430  0.12069  Biso   1.000  H
  C93      1.0000 0.16072  0.50960  0.14206  Biso   1.000  C
  C94      1.0000 0.19859  0.57362  0.20030  Biso   1.000  C
  N64      1.0000 0.01492  0.49199  0.15427  Biso   1.000  N
  H93      1.0000 0.90011  0.53459  0.12769  Biso   1.000  H
  H94      1.0000 0.88743  0.46160  0.13941  Biso   1.000  H
  C95      1.0000 0.07562  0.54482  0.15052  Biso   1.000  C
  C96      1.0000 0.04937  0.43371  0.14510  Biso   1.000  C
  H95      1.0000 0.17568  0.52311  0.11569  Biso   1.000  H
  O31      1.0000 0.24402  0.60290  0.22907  Biso   1.000  O
  H96      1.0000 0.05023  0.57439  0.12808  Biso   1.000  H
  O32      1.0000 0.00922  0.38282  0.14169  Biso   1.000  O
  C97      1.0000 0.58302  0.74450  0.30470  Biso   1.000  C
  N65      1.0000 0.55456  0.73808  0.26135  Biso   1.000  N
  N66      1.0000 0.62229  0.80630  0.31740  Biso   1.000  N
  H97      1.0000 0.62689  0.71073  0.31429  Biso   1.000  H
  H98      1.0000 0.53098  0.73760  0.31779  Biso   1.000  H
  C98      1.0000 0.58756  0.69023  0.24064  Biso   1.000  C
  C99      1.0000 0.46507  0.75950  0.24098  Biso   1.000  C
  C100     1.0000 0.71297  0.81513  0.33070  Biso   1.000  C
  C101     1.0000 0.57077  0.86390  0.32212  Biso   1.000  C
  N67      1.0000 0.52978  0.68270  0.20332  Biso   1.000  N
  O33      1.0000 0.65470  0.65810  0.25206  Biso   1.000  O
  C102     1.0000 0.45267  0.72462  0.19942  Biso   1.000  C
  N68      1.0000 0.46028  0.82690  0.23014  Biso   1.000  N
  H99      1.0000 0.41799  0.74730  0.25650  Biso   1.000  H
  O34      1.0000 0.76989  0.77330  0.32948  Biso   1.000  O
  N69      1.0000 0.72770  0.87650  0.34468  Biso   1.000  N
  N70      1.0000 0.53492  0.89681  0.28388  Biso   1.000  N
  C103     1.0000 0.64436  0.91181  0.34394  Biso   1.000  C
  H100     1.0000 0.52378  0.85561  0.33850  Biso   1.000  H
  C104     1.0000 0.53930  0.63011  0.17655  Biso   1.000  C
  N71      1.0000 0.45040  0.77731  0.17062  Biso   1.000  N
  H101     1.0000 0.39596  0.69959  0.19409  Biso   1.000  H
  C105     1.0000 0.44748  0.83558  0.18888  Biso   1.000  C
  C106     1.0000 0.45051  0.87789  0.25821  Biso   1.000  C
  C107     1.0000 0.80998  0.89319  0.37320  Biso   1.000  C
  C108     1.0000 0.56639  0.95870  0.28321  Biso   1.000  C
  N72      1.0000 0.63156  0.96719  0.31730  Biso   1.000  N
  H102     1.0000 0.63537  0.92271  0.37168  Biso   1.000  H
  N73      1.0000 0.57097  0.64922  0.13993  Biso   1.000  N
  H103     1.0000 0.48096  0.60869  0.16870  Biso   1.000  H
  H104     1.0000 0.58151  0.59871  0.19141  Biso   1.000  H
  C109     1.0000 0.42432  0.76901  0.12662  Biso   1.000  C
  O35      1.0000 0.43422  0.88832  0.17156  Biso   1.000  O
  H105     1.0000 0.40881  0.86381  0.27559  Biso   1.000  H
  H106     1.0000 0.42411  0.91562  0.24280  Biso   1.000  H
  N74      1.0000 0.86267  0.94240  0.35816  Biso   1.000  N
  H107     1.0000 0.79386  0.90819  0.39869  Biso   1.000  H
  H108     1.0000 0.84674  0.85430  0.37929  Biso   1.000  H
  O36      1.0000 0.54060  0.99952  0.25757  Biso   1.000  O
  C110     1.0000 0.67527  0.02880  0.32729  Biso   1.000  C
  C111     1.0000 0.64828  0.62510  0.13019  Biso   1.000  C
  C112     1.0000 0.51230  0.67599  0.10495  Biso   1.000  C
  N75      1.0000 0.49367  0.74460  0.10717  Biso   1.000  N
  H109     1.0000 0.37301  0.73939  0.12111  Biso   1.000  H
  H110     1.0000 0.40430  0.81069  0.11438  Biso   1.000  H
  C113     1.0000 0.95055  0.93371  0.35487  Biso   1.000  C
  C114     1.0000 0.83929  0.00960  0.35795  Biso   1.000  C
  N76      1.0000 0.76940  0.02919  0.32364  Biso   1.000  N
  H111     1.0000 0.67078  0.04038  0.35521  Biso   1.000  H
  H112     1.0000 0.64348  0.06190  0.30921  Biso   1.000  H
  O37      1.0000 0.70528  0.59292  0.15308  Biso   1.000  O
  N77      1.0000 0.65186  0.64189  0.09140  Biso   1.000  N
  H113     1.0000 0.45598  0.65081  0.09800  Biso   1.000  H
  C115     1.0000 0.56865  0.67131  0.07073  Biso   1.000  C
  C116     1.0000 0.52516  0.77760  0.07715  Biso   1.000  C
  O38      1.0000 0.99077  0.88282  0.35828  Biso   1.000  O
  N78      1.0000 0.98508  0.99199  0.34574  Biso   1.000  N
  C117     1.0000 0.92437  0.04482  0.34946  Biso   1.000  C
  H114     1.0000 0.82424  0.02311  0.38429  Biso   1.000  H
  C118     1.0000 0.80141  0.07362  0.29971  Biso   1.000  C
  C119     1.0000 0.72021  0.61882  0.06981  Biso   1.000  C
  N79      1.0000 0.57610  0.73760  0.05867  Biso   1.000  N
  H115     1.0000 0.53837  0.64439  0.04780  Biso   1.000  H
  O39      1.0000 0.50946  0.83462  0.06884  Biso   1.000  O
  C120     1.0000 0.08176  0.00188  0.35116  Biso   1.000  C
  N80      1.0000 0.89206  0.07922  0.31213  Biso   1.000  N
  H116     1.0000 0.94976  0.07439  0.37189  Biso   1.000  H
  O40      1.0000 0.75597  0.10290  0.27091  Biso   1.000  O
  N81      1.0000 0.77620  0.66972  0.05894  Biso   1.000  N
  H117     1.0000 0.75809  0.58723  0.08680  Biso   1.000  H
  H118     1.0000 0.69076  0.59658  0.04491  Biso   1.000  H
  C121     1.0000 0.59918  0.75309  0.01945  Biso   1.000  C
  H119     1.0000 0.11250  0.96160  0.36060  Biso   1.000  H
  N82      1.0000 0.10984  0.02248  0.31383  Biso   1.000  N
  H120     1.0000 0.09982  0.03459  0.37229  Biso   1.000  H
  C122     1.0000 0.94440  0.13060  0.29770  Biso   1.000  C
  C123     1.0000 0.86528  0.67561  0.07654  Biso   1.000  C
  C124     1.0000 0.75505  0.70460  0.02116  Biso   1.000  C
  N83      1.0000 0.69536  0.75950  0.02110  Biso   1.000  N
  H121     1.0000 0.56978  0.79371  0.00959  Biso   1.000  H
  H122     1.0000 0.57577  0.71932  0.99991  Biso   1.000  H
  C125     1.0000 0.16990  0.98799  0.29666  Biso   1.000  C
  C126     1.0000 0.10226  0.08882  0.29989  Biso   1.000  C
  H123     1.0000 0.90399  0.15848  0.27888  Biso   1.000  H
  H124     1.0000 0.97269  0.15699  0.32090  Biso   1.000  H
  N84      1.0000 0.01291  0.10522  0.27730  Biso   1.000  N
  O41      1.0000 0.90317  0.64632  0.10689  Biso   1.000  O
  N85      1.0000 0.90488  0.71932  0.05550  Biso   1.000  N
  C127     1.0000 0.84536  0.73760  0.01687  Biso   1.000  C
  H125     1.0000 0.73345  0.67532  0.99799  Biso   1.000  H
  C128     1.0000 0.73466  0.81609  0.01474  Biso   1.000  C
  O42      1.0000 0.19644  0.93371  0.30583  Biso   1.000  O
  N86      1.0000 0.19605  0.02571  0.26716  Biso   1.000  N
  C129     1.0000 0.16272  0.09070  0.26731  Biso   1.000  C
  H126     1.0000 0.12276  0.11950  0.32230  Biso   1.000  H
  C130     1.0000 0.01614  0.12138  0.23748  Biso   1.000  C
  C131     1.0000 0.00142  0.72269  0.05980  Biso   1.000  C
  N87      1.0000 0.82390  0.80519  0.01394  Biso   1.000  N
  H127     1.0000 0.86826  0.72183  0.99278  Biso   1.000  H
  O43      1.0000 0.69771  0.86921  0.00996  Biso   1.000  O
  C132     1.0000 0.26881  0.00738  0.24731  Biso   1.000  C
  N88      1.0000 0.10004  0.10840  0.23014  Biso   1.000  N
  H128     1.0000 0.21201  0.12249  0.27419  Biso   1.000  H
  O44      1.0000 0.95280  0.14271  0.21282  Biso   1.000  O
  N89      1.0000 0.03581  0.78749  0.06975  Biso   1.000  N
  H129     1.0000 0.01873  0.70880  0.03431  Biso   1.000  H
  H130     1.0000 0.02900  0.69293  0.08129  Biso   1.000  H
  C133     1.0000 0.87918  0.85223  0.99848  Biso   1.000  C
  N90      1.0000 0.24084  0.99281  0.20417  Biso   1.000  N
  H131     1.0000 0.29870  0.96941  0.26110  Biso   1.000  H
  H132     1.0000 0.31281  0.04260  0.25029  Biso   1.000  H
  C134     1.0000 0.12985  0.12910  0.19348  Biso   1.000  C
  C135     1.0000 0.10135  0.79882  0.10379  Biso   1.000  C
  C136     1.0000 0.03704  0.83549  0.03854  Biso   1.000  C
  N91      1.0000 0.95569  0.87331  0.02932  Biso   1.000  N
  H133     1.0000 0.84225  0.88981  0.98858  Biso   1.000  H
  H134     1.0000 0.90171  0.83361  0.97540  Biso   1.000  H
  C137     1.0000 0.23682  0.93149  0.18974  Biso   1.000  C
  C138     1.0000 0.22832  0.04038  0.17196  Biso   1.000  C
  N92      1.0000 0.14366  0.07579  0.16736  Biso   1.000  N
  H135     1.0000 0.08506  0.15848  0.17829  Biso   1.000  H
  H136     1.0000 0.18625  0.15308  0.20109  Biso   1.000  H
  O45      1.0000 0.12083  0.76380  0.13317  Biso   1.000  O
  N93      1.0000 0.13975  0.85821  0.09861  Biso   1.000  N
  H137     1.0000 0.05296  0.81643  0.01370  Biso   1.000  H
  C139     1.0000 0.10834  0.88489  0.05867  Biso   1.000  C
  C140     1.0000 0.96974  0.93690  0.03924  Biso   1.000  C
  N94      1.0000 0.21823  0.93342  0.14791  Biso   1.000  N
  O46      1.0000 0.24711  0.88180  0.21011  Biso   1.000  O
  C141     1.0000 0.21570  0.99889  0.13293  Biso   1.000  C
  H138     1.0000 0.28061  0.06971  0.17409  Biso   1.000  H
  C142     1.0000 0.09041  0.06629  0.13031  Biso   1.000  C
  C143     1.0000 0.22501  0.87722  0.12361  Biso   1.000  C
  N95      1.0000 0.05750  0.94409  0.05861  Biso   1.000  N
  H139     1.0000 0.15762  0.88952  0.04320  Biso   1.000  H
  O47      1.0000 0.91386  0.98012  0.03352  Biso   1.000  O
  N96      1.0000 0.12852  0.01848  0.11030  Biso   1.000  N
  H140     1.0000 0.26401  0.00690  0.11719  Biso   1.000  H
  O48      1.0000 0.01985  0.09388  0.11682  Biso   1.000  O
  H141     1.0000 0.24825  0.84133  0.14160  Biso   1.000  H
  H142     1.0000 0.26831  0.88561  0.10580  Biso   1.000  H
  C144     1.0000 0.09991  0.00642  0.06722  Biso   1.000  C
  H143     1.0000 0.05751  0.04009  0.05559  Biso   1.000  H
  H144     1.0000 0.15225  0.00902  0.05389  Biso   1.000  H
  C145     1.0000 0.41698  0.25550  0.69529  Biso   1.000  C
  N97      1.0000 0.37770  0.19370  0.68259  Biso   1.000  N
  N98      1.0000 0.44536  0.26192  0.73864  Biso   1.000  N
  H145     1.0000 0.37310  0.28932  0.68570  Biso   1.000  H
  H146     1.0000 0.46902  0.26240  0.68220  Biso   1.000  H
  C146     1.0000 0.28701  0.18492  0.66926  Biso   1.000  C
  C147     1.0000 0.42922  0.13610  0.67787  Biso   1.000  C
  C148     1.0000 0.41236  0.30982  0.75935  Biso   1.000  C
  C149     1.0000 0.53486  0.24050  0.75901  Biso   1.000  C
  N99      1.0000 0.27230  0.12350  0.65531  Biso   1.000  N
  O49      1.0000 0.23010  0.22670  0.67051  Biso   1.000  O
  C150     1.0000 0.35556  0.08819  0.65604  Biso   1.000  C
  N100     1.0000 0.46507  0.10319  0.71611  Biso   1.000  N
  H147     1.0000 0.47621  0.14439  0.66149  Biso   1.000  H
  O50      1.0000 0.34529  0.34190  0.74793  Biso   1.000  O
  N101     1.0000 0.47015  0.31730  0.79667  Biso   1.000  N
  N102     1.0000 0.53971  0.17310  0.76985  Biso   1.000  N
  H148     1.0000 0.58200  0.25270  0.74348  Biso   1.000  H
  C151     1.0000 0.54726  0.27542  0.80057  Biso   1.000  C
  C152     1.0000 0.19001  0.10681  0.62679  Biso   1.000  C
  N103     1.0000 0.36836  0.03281  0.68268  Biso   1.000  N
  H149     1.0000 0.36461  0.07729  0.62828  Biso   1.000  H
  C153     1.0000 0.43360  0.04130  0.71678  Biso   1.000  C
  C154     1.0000 0.54948  0.12211  0.74178  Biso   1.000  C
  C155     1.0000 0.46069  0.36989  0.82343  Biso   1.000  C
  C156     1.0000 0.55250  0.16442  0.81107  Biso   1.000  C
  N104     1.0000 0.54960  0.22269  0.82937  Biso   1.000  N
  H150     1.0000 0.60397  0.30041  0.80590  Biso   1.000  H
  N105     1.0000 0.13732  0.05760  0.64183  Biso   1.000  N
  H151     1.0000 0.20613  0.09181  0.60130  Biso   1.000  H
  H152     1.0000 0.15319  0.14570  0.62070  Biso   1.000  H
  C157     1.0000 0.32472  0.97120  0.67270  Biso   1.000  C
  O51      1.0000 0.45939  0.00048  0.74242  Biso   1.000  O
  H153     1.0000 0.59118  0.13619  0.72439  Biso   1.000  H
  H154     1.0000 0.57588  0.08438  0.75718  Biso   1.000  H
  N106     1.0000 0.42896  0.35078  0.86006  Biso   1.000  N
  H155     1.0000 0.51897  0.39131  0.83129  Biso   1.000  H
  H156     1.0000 0.41848  0.40129  0.80858  Biso   1.000  H
  O52      1.0000 0.56578  0.11168  0.82843  Biso   1.000  O
  C158     1.0000 0.57567  0.23099  0.87336  Biso   1.000  C
  C159     1.0000 0.04937  0.06629  0.64511  Biso   1.000  C
  C160     1.0000 0.16071  0.99040  0.64204  Biso   1.000  C
  N107     1.0000 0.23059  0.97081  0.67635  Biso   1.000  N
  H157     1.0000 0.32922  0.95962  0.64478  Biso   1.000  H
  H158     1.0000 0.35651  0.93810  0.69078  Biso   1.000  H
  C161     1.0000 0.35171  0.37490  0.86980  Biso   1.000  C
  C162     1.0000 0.48770  0.32401  0.89504  Biso   1.000  C
  N108     1.0000 0.50632  0.25540  0.89282  Biso   1.000  N
  H159     1.0000 0.62698  0.26061  0.87888  Biso   1.000  H
  H160     1.0000 0.59568  0.18931  0.88557  Biso   1.000  H
  O53      1.0000 0.00923  0.11718  0.64170  Biso   1.000  O
  N109     1.0000 0.01491  0.00801  0.65425  Biso   1.000  N
  C163     1.0000 0.07562  0.95523  0.65053  Biso   1.000  C
  H161     1.0000 0.17568  0.97689  0.61570  Biso   1.000  H
  C164     1.0000 0.19858  0.92643  0.70028  Biso   1.000  C
  O54      1.0000 0.29471  0.40708  0.84691  Biso   1.000  O
  N110     1.0000 0.34813  0.35811  0.90859  Biso   1.000  N
  H162     1.0000 0.54401  0.34919  0.90198  Biso   1.000  H
  C165     1.0000 0.43126  0.32869  0.92923  Biso   1.000  C
  C166     1.0000 0.47477  0.22240  0.92284  Biso   1.000  C
  C167     1.0000 0.91823  0.99812  0.64883  Biso   1.000  C
  N111     1.0000 0.10787  0.92083  0.68786  Biso   1.000  N
  H163     1.0000 0.05023  0.92561  0.62809  Biso   1.000  H
  O55      1.0000 0.24402  0.89710  0.72908  Biso   1.000  O
  C168     1.0000 0.27978  0.38122  0.93018  Biso   1.000  C
  N112     1.0000 0.42389  0.26240  0.94132  Biso   1.000  N
  H164     1.0000 0.46156  0.35561  0.95219  Biso   1.000  H
  O56      1.0000 0.49046  0.16538  0.93115  Biso   1.000  O
  N113     1.0000 0.89015  0.97752  0.68615  Biso   1.000  N
  H165     1.0000 0.90011  0.96541  0.62770  Biso   1.000  H
  H166     1.0000 0.88742  0.03840  0.63939  Biso   1.000  H
  C169     1.0000 0.05559  0.86940  0.70229  Biso   1.000  C
  N114     1.0000 0.22379  0.33033  0.94105  Biso   1.000  N
  H167     1.0000 0.24191  0.41282  0.91319  Biso   1.000  H
  H168     1.0000 0.30916  0.40342  0.95508  Biso   1.000  H
  C170     1.0000 0.40080  0.24691  0.98050  Biso   1.000  C
  C171     1.0000 0.89773  0.91123  0.70010  Biso   1.000  C
  C172     1.0000 0.83002  0.01201  0.70333  Biso   1.000  C
  N115     1.0000 0.98702  0.89483  0.72269  Biso   1.000  N
  H169     1.0000 0.09598  0.84152  0.72108  Biso   1.000  H
  H170     1.0000 0.02731  0.84301  0.67909  Biso   1.000  H
  C173     1.0000 0.13471  0.32439  0.92345  Biso   1.000  C
  C174     1.0000 0.24487  0.29540  0.97883  Biso   1.000  C
  N116     1.0000 0.30456  0.24050  0.97889  Biso   1.000  N
  H171     1.0000 0.43021  0.20629  0.99040  Biso   1.000  H
  H172     1.0000 0.42416  0.28068  0.00008  Biso   1.000  H
  C175     1.0000 0.83727  0.90930  0.73268  Biso   1.000  C
  H173     1.0000 0.87723  0.88050  0.67769  Biso   1.000  H
  N117     1.0000 0.80394  0.97429  0.73283  Biso   1.000  N
  O57      1.0000 0.80355  0.06629  0.69416  Biso   1.000  O
  C176     1.0000 0.98386  0.87862  0.76251  Biso   1.000  C
  O58      1.0000 0.09681  0.35372  0.89306  Biso   1.000  O
  N118     1.0000 0.09512  0.28068  0.94449  Biso   1.000  N
  C177     1.0000 0.15456  0.26240  0.98312  Biso   1.000  C
  H174     1.0000 0.26648  0.32468  0.00200  Biso   1.000  H
  C178     1.0000 0.26527  0.18391  0.98525  Biso   1.000  C
  N119     1.0000 0.89995  0.89160  0.76985  Biso   1.000  N
  H175     1.0000 0.78791  0.87751  0.72579  Biso   1.000  H
  C179     1.0000 0.73112  0.99262  0.75268  Biso   1.000  C
  O59      1.0000 0.04719  0.85729  0.78717  Biso   1.000  O
  C180     1.0000 0.99851  0.27731  0.94019  Biso   1.000  C
  N120     1.0000 0.17609  0.19481  0.98604  Biso   1.000  N
  H176     1.0000 0.13165  0.27822  0.00717  Biso   1.000  H
  O60      1.0000 0.30228  0.13079  0.99003  Biso   1.000  O
  C181     1.0000 0.87014  0.87090  0.80651  Biso   1.000  C
  H177     1.0000 0.68712  0.95740  0.74969  Biso   1.000  H
  N121     1.0000 0.75915  0.00719  0.79582  Biso   1.000  N
  H178     1.0000 0.70122  0.03059  0.73889  Biso   1.000  H
  N122     1.0000 0.96412  0.21251  0.93024  Biso   1.000  N
  H179     1.0000 0.98120  0.29120  0.96568  Biso   1.000  H
  H180     1.0000 0.97092  0.30712  0.91870  Biso   1.000  H
  C182     1.0000 0.12081  0.14782  0.00151  Biso   1.000  C
  N123     1.0000 0.85633  0.92421  0.83263  Biso   1.000  N
  H181     1.0000 0.91493  0.84152  0.82170  Biso   1.000  H
  H182     1.0000 0.81375  0.84692  0.79889  Biso   1.000  H
  C183     1.0000 0.77161  0.95962  0.82803  Biso   1.000  C
  C184     1.0000 0.76311  0.06851  0.81025  Biso   1.000  C
  C185     1.0000 0.89864  0.20123  0.89620  Biso   1.000  C
  C186     1.0000 0.96296  0.16451  0.96144  Biso   1.000  C
  N124     1.0000 0.04430  0.12669  0.97067  Biso   1.000  N
  H183     1.0000 0.15767  0.11019  0.01137  Biso   1.000  H
  H184     1.0000 0.09829  0.16639  0.02459  Biso   1.000  H
  C187     1.0000 0.90952  0.93371  0.86968  Biso   1.000  C
  H185     1.0000 0.71938  0.93029  0.82590  Biso   1.000  H
  C188     1.0000 0.78421  0.00111  0.86703  Biso   1.000  C
  O61      1.0000 0.75282  0.11820  0.78988  Biso   1.000  O
  N125     1.0000 0.78176  0.06658  0.85208  Biso   1.000  N
  N126     1.0000 0.86023  0.14179  0.90134  Biso   1.000  N
  O62      1.0000 0.87917  0.23620  0.86682  Biso   1.000  O
  C189     1.0000 0.89165  0.11511  0.94132  Biso   1.000  C
  H186     1.0000 0.94703  0.18362  0.98629  Biso   1.000  H
  C190     1.0000 0.03018  0.06310  0.96071  Biso   1.000  C
  O63      1.0000 0.98014  0.90612  0.88317  Biso   1.000  O
  N127     1.0000 0.87146  0.98152  0.88965  Biso   1.000  N
  H187     1.0000 0.73597  0.99310  0.88277  Biso   1.000  H
  C191     1.0000 0.77492  0.12278  0.87638  Biso   1.000  C
  N128     1.0000 0.94243  0.05591  0.94138  Biso   1.000  N
  H188     1.0000 0.84237  0.11048  0.95679  Biso   1.000  H
  O64      1.0000 0.08607  0.01988  0.96647  Biso   1.000  O
  C192     1.0000 0.90001  0.99363  0.93276  Biso   1.000  C
  H189     1.0000 0.75175  0.15872  0.85839  Biso   1.000  H
  H190     1.0000 0.73162  0.11439  0.89419  Biso   1.000  H
  H191     1.0000 0.94242  0.95991  0.94439  Biso   1.000  H
  H192     1.0000 0.84774  0.99103  0.94610  Biso   1.000  H
