data_image0
_cell_length_a       12.151
_cell_length_b       21.513
_cell_length_c       20.837
_cell_angle_alpha    90
_cell_angle_beta     90.01
_cell_angle_gamma    90

_symmetry_space_group_name_H-M    "P 1"
_symmetry_int_tables_number       1

loop_
  _symmetry_equiv_pos_as_xyz
  'x, y, z'

loop_
  _atom_site_label
  _atom_site_occupancy
  _atom_site_fract_x
  _atom_site_fract_y
  _atom_site_fract_z
  _atom_site_thermal_displace_type
  _atom_site_B_iso_or_equiv
  _atom_site_type_symbol
  C1       1.0000 0.61403  0.45651  0.58478  Biso   1.000  C
  C2       1.0000 0.55562  0.44680  0.64731  Biso   1.000  C
  C3       1.0000 0.73715  0.45582  0.59399  Biso   1.000  C
  H1       1.0000 0.59320  0.42388  0.55502  Biso   1.000  H
  H2       1.0000 0.59205  0.49598  0.56649  Biso   1.000  H
  C4       1.0000 0.42197  0.44852  0.63459  Biso   1.000  C
  H3       1.0000 0.57653  0.40701  0.66550  Biso   1.000  H
  H4       1.0000 0.57612  0.47920  0.67740  Biso   1.000  H
  C5       1.0000 0.80232  0.47799  0.53909  Biso   1.000  C
  H5       1.0000 0.75962  0.41361  0.60378  Biso   1.000  H
  H6       1.0000 0.75486  0.48129  0.63099  Biso   1.000  H
  C6       1.0000 0.37784  0.50212  0.59999  Biso   1.000  C
  H7       1.0000 0.38536  0.44629  0.67591  Biso   1.000  H
  H8       1.0000 0.40204  0.41129  0.61088  Biso   1.000  H
  H9       1.0000 0.87976  0.46888  0.54571  Biso   1.000  H
  H10      1.0000 0.77860  0.45749  0.49998  Biso   1.000  H
  O1       1.0000 0.78388  0.55250  0.53309  Biso   1.000  O
  H11      1.0000 0.29835  0.50291  0.60412  Biso   1.000  H
  H12      1.0000 0.39585  0.49858  0.55478  Biso   1.000  H
  O2       1.0000 0.42287  0.55878  0.62499  Biso   1.000  O
  C7       1.0000 0.86765  0.58109  0.50290  Biso   1.000  C
  C8       1.0000 0.37729  0.57351  0.68642  Biso   1.000  C
  C9       1.0000 0.88272  0.64552  0.52632  Biso   1.000  C
  H13      1.0000 0.93481  0.55771  0.50981  Biso   1.000  H
  H14      1.0000 0.85315  0.58179  0.45712  Biso   1.000  H
  C10      1.0000 0.39804  0.64101  0.69828  Biso   1.000  C
  H15      1.0000 0.29886  0.56510  0.68681  Biso   1.000  H
  H16      1.0000 0.41195  0.54860  0.71949  Biso   1.000  H
  C11      1.0000 0.93812  0.65700  0.58271  Biso   1.000  C
  C12      1.0000 0.84320  0.69521  0.48932  Biso   1.000  C
  C13      1.0000 0.36189  0.68470  0.65489  Biso   1.000  C
  C14      1.0000 0.45146  0.65872  0.75380  Biso   1.000  C
  C15      1.0000 0.95294  0.71798  0.60340  Biso   1.000  C
  H17      1.0000 0.96553  0.62418  0.60690  Biso   1.000  H
  H18      1.0000 0.80641  0.68768  0.45088  Biso   1.000  H
  C16      1.0000 0.85951  0.75629  0.51058  Biso   1.000  C
  C17      1.0000 0.37293  0.74769  0.66891  Biso   1.000  C
  H19      1.0000 0.33036  0.67220  0.61640  Biso   1.000  H
  C18      1.0000 0.46826  0.72212  0.76542  Biso   1.000  C
  H20      1.0000 0.47583  0.62911  0.78298  Biso   1.000  H
  C19      1.0000 0.91442  0.76819  0.56832  Biso   1.000  C
  O3       1.0000 0.00374  0.73370  0.65993  Biso   1.000  O
  O4       1.0000 0.81900  0.80193  0.47180  Biso   1.000  O
  C20      1.0000 0.42594  0.76670  0.72410  Biso   1.000  C
  O5       1.0000 0.32921  0.78785  0.62523  Biso   1.000  O
  O6       1.0000 0.52711  0.74555  0.81648  Biso   1.000  O
  H21      1.0000 0.92495  0.80872  0.58262  Biso   1.000  H
  C21      1.0000 0.06744  0.68652  0.69180  Biso   1.000  C
  C22      1.0000 0.84304  0.86520  0.48539  Biso   1.000  C
  H22      1.0000 0.43327  0.80881  0.73341  Biso   1.000  H
  C23      1.0000 0.30947  0.85051  0.64381  Biso   1.000  C
  C24      1.0000 0.54696  0.70599  0.86898  Biso   1.000  C
  H23      1.0000 0.01931  0.65458  0.70888  Biso   1.000  H
  H24      1.0000 0.11805  0.66732  0.66180  Biso   1.000  H
  C25      1.0000 0.12984  0.71701  0.74502  Biso   1.000  C
  C26      1.0000 0.79743  0.90550  0.43509  Biso   1.000  C
  H25      1.0000 0.81161  0.87649  0.52661  Biso   1.000  H
  H26      1.0000 0.92205  0.87092  0.48779  Biso   1.000  H
  H27      1.0000 0.26454  0.85181  0.68230  Biso   1.000  H
  H28      1.0000 0.37852  0.87152  0.65259  Biso   1.000  H
  C27      1.0000 0.25011  0.88212  0.58871  Biso   1.000  C
  C28      1.0000 0.59957  0.74402  0.92168  Biso   1.000  C
  H29      1.0000 0.47833  0.68810  0.88400  Biso   1.000  H
  H30      1.0000 0.59552  0.67238  0.85641  Biso   1.000  H
  H31      1.0000 0.16399  0.75480  0.72928  Biso   1.000  H
  H32      1.0000 0.18762  0.68940  0.75990  Biso   1.000  H
  O7       1.0000 0.05785  0.73142  0.79676  Biso   1.000  O
  H33      1.0000 0.82285  0.89169  0.39329  Biso   1.000  H
  H34      1.0000 0.82212  0.94789  0.44152  Biso   1.000  H
  O8       1.0000 0.68156  0.90299  0.43759  Biso   1.000  O
  H35      1.0000 0.22247  0.92228  0.60220  Biso   1.000  H
  H36      1.0000 0.18839  0.85688  0.57470  Biso   1.000  H
  O9       1.0000 0.32540  0.88932  0.53871  Biso   1.000  O
  H37      1.0000 0.58715  0.72431  0.96290  Biso   1.000  H
  H38      1.0000 0.56698  0.78520  0.92278  Biso   1.000  H
  O10      1.0000 0.71486  0.74871  0.90949  Biso   1.000  O
  C29      1.0000 0.10782  0.76809  0.84451  Biso   1.000  C
  C30      1.0000 0.62904  0.93920  0.38902  Biso   1.000  C
  C31      1.0000 0.28424  0.92200  0.48702  Biso   1.000  C
  C32      1.0000 0.77076  0.77869  0.95892  Biso   1.000  C
  C33      1.0000 0.05179  0.76391  0.90450  Biso   1.000  C
  H39      1.0000 0.18345  0.75480  0.85012  Biso   1.000  H
  H40      1.0000 0.10863  0.81109  0.83059  Biso   1.000  H
  C34      1.0000 0.51719  0.92902  0.38288  Biso   1.000  C
  H41      1.0000 0.66400  0.93041  0.34808  Biso   1.000  H
  H42      1.0000 0.64105  0.98289  0.39828  Biso   1.000  H
  H43      1.0000 0.26844  0.96402  0.50098  Biso   1.000  H
  H44      1.0000 0.21486  0.90308  0.47459  Biso   1.000  H
  C35      1.0000 0.34965  0.92530  0.43360  Biso   1.000  C
  C36      1.0000 0.88515  0.76479  0.96089  Biso   1.000  C
  H45      1.0000 0.76162  0.82322  0.95388  Biso   1.000  H
  H46      1.0000 0.73777  0.76698  0.99952  Biso   1.000  H
  O11      1.0000 0.93986  0.77432  0.90311  Biso   1.000  O
  H47      1.0000 0.08472  0.79371  0.93382  Biso   1.000  H
  H48      1.0000 0.06455  0.72282  0.92211  Biso   1.000  H
  O12      1.0000 0.45252  0.92502  0.43322  Biso   1.000  O
  H49      1.0000 0.50846  0.89081  0.35878  Biso   1.000  H
  H50      1.0000 0.48846  0.96221  0.35619  Biso   1.000  H
  H51      1.0000 0.32792  0.96300  0.41138  Biso   1.000  H
  H52      1.0000 0.32726  0.89109  0.40630  Biso   1.000  H
  H53      1.0000 0.89429  0.72161  0.97351  Biso   1.000  H
  H54      1.0000 0.91948  0.79031  0.99371  Biso   1.000  H
  C37      1.0000 0.38602  0.54349  0.41522  Biso   1.000  C
  C38      1.0000 0.44443  0.55320  0.35269  Biso   1.000  C
  C39      1.0000 0.26290  0.54418  0.40601  Biso   1.000  C
  H55      1.0000 0.40685  0.57612  0.44498  Biso   1.000  H
  H56      1.0000 0.40800  0.50402  0.43351  Biso   1.000  H
  C40      1.0000 0.57817  0.55148  0.36541  Biso   1.000  C
  H57      1.0000 0.42352  0.59299  0.33450  Biso   1.000  H
  H58      1.0000 0.42393  0.52080  0.32260  Biso   1.000  H
  C41      1.0000 0.19773  0.52201  0.46091  Biso   1.000  C
  H59      1.0000 0.24043  0.58639  0.39622  Biso   1.000  H
  H60      1.0000 0.24519  0.51871  0.36901  Biso   1.000  H
  C42      1.0000 0.62221  0.49788  0.40001  Biso   1.000  C
  H61      1.0000 0.61470  0.55371  0.32409  Biso   1.000  H
  H62      1.0000 0.59801  0.58871  0.38912  Biso   1.000  H
  H63      1.0000 0.12029  0.53112  0.45429  Biso   1.000  H
  H64      1.0000 0.22145  0.54251  0.49998  Biso   1.000  H
  O13      1.0000 0.21625  0.44750  0.46691  Biso   1.000  O
  O14      1.0000 0.57727  0.44122  0.37501  Biso   1.000  O
  H65      1.0000 0.70171  0.49709  0.39588  Biso   1.000  H
  H66      1.0000 0.60420  0.50142  0.44522  Biso   1.000  H
  C43      1.0000 0.13240  0.41891  0.49710  Biso   1.000  C
  C44      1.0000 0.62276  0.42649  0.31358  Biso   1.000  C
  C45      1.0000 0.11733  0.35448  0.47368  Biso   1.000  C
  H67      1.0000 0.06524  0.44229  0.49019  Biso   1.000  H
  H68      1.0000 0.14690  0.41821  0.54288  Biso   1.000  H
  C46      1.0000 0.60202  0.35899  0.30172  Biso   1.000  C
  H69      1.0000 0.70127  0.43490  0.31319  Biso   1.000  H
  H70      1.0000 0.58810  0.45140  0.28051  Biso   1.000  H
  C47      1.0000 0.06193  0.34300  0.41729  Biso   1.000  C
  C48      1.0000 0.15685  0.30479  0.51068  Biso   1.000  C
  C49      1.0000 0.54859  0.34128  0.24620  Biso   1.000  C
  C50      1.0000 0.63816  0.31530  0.34511  Biso   1.000  C
  C51      1.0000 0.04711  0.28202  0.39660  Biso   1.000  C
  H71      1.0000 0.03452  0.37582  0.39310  Biso   1.000  H
  C52      1.0000 0.14055  0.24371  0.48942  Biso   1.000  C
  H72      1.0000 0.19365  0.31232  0.54912  Biso   1.000  H
  C53      1.0000 0.53180  0.27788  0.23458  Biso   1.000  C
  H73      1.0000 0.52422  0.37089  0.21702  Biso   1.000  H
  C54      1.0000 0.62713  0.25231  0.33109  Biso   1.000  C
  H74      1.0000 0.66977  0.32780  0.38360  Biso   1.000  H
  O15      1.0000 0.99632  0.26630  0.34007  Biso   1.000  O
  C55      1.0000 0.08564  0.23181  0.43168  Biso   1.000  C
  O16      1.0000 0.18105  0.19807  0.52820  Biso   1.000  O
  O17      1.0000 0.47294  0.25445  0.18352  Biso   1.000  O
  C56      1.0000 0.57411  0.23330  0.27590  Biso   1.000  C
  O18      1.0000 0.67084  0.21215  0.37477  Biso   1.000  O
  C57      1.0000 0.93261  0.31348  0.30820  Biso   1.000  C
  H75      1.0000 0.07510  0.19128  0.41738  Biso   1.000  H
  C58      1.0000 0.15701  0.13480  0.51461  Biso   1.000  C
  C59      1.0000 0.45309  0.29401  0.13102  Biso   1.000  C
  H76      1.0000 0.56686  0.19119  0.26659  Biso   1.000  H
  C60      1.0000 0.69067  0.14949  0.35619  Biso   1.000  C
  C61      1.0000 0.87021  0.28299  0.25498  Biso   1.000  C
  H77      1.0000 0.98075  0.34542  0.29112  Biso   1.000  H
  H78      1.0000 0.88200  0.33268  0.33820  Biso   1.000  H
  C62      1.0000 0.20262  0.09450  0.56491  Biso   1.000  C
  H79      1.0000 0.18844  0.12351  0.47339  Biso   1.000  H
  H80      1.0000 0.07801  0.12908  0.51221  Biso   1.000  H
  C63      1.0000 0.40048  0.25598  0.07832  Biso   1.000  C
  H81      1.0000 0.52172  0.31190  0.11600  Biso   1.000  H
  H82      1.0000 0.40454  0.32762  0.14359  Biso   1.000  H
  H83      1.0000 0.73551  0.14819  0.31770  Biso   1.000  H
  H84      1.0000 0.62153  0.12848  0.34741  Biso   1.000  H
  C64      1.0000 0.74994  0.11788  0.41129  Biso   1.000  C
  O19      1.0000 0.94221  0.26858  0.20324  Biso   1.000  O
  H85      1.0000 0.83606  0.24520  0.27072  Biso   1.000  H
  H86      1.0000 0.81243  0.31060  0.24010  Biso   1.000  H
  O20      1.0000 0.31850  0.09701  0.56241  Biso   1.000  O
  H87      1.0000 0.17720  0.10831  0.60671  Biso   1.000  H
  H88      1.0000 0.17793  0.05211  0.55848  Biso   1.000  H
  H89      1.0000 0.41290  0.27569  0.03710  Biso   1.000  H
  H90      1.0000 0.43316  0.21480  0.07722  Biso   1.000  H
  O21      1.0000 0.28519  0.25129  0.09051  Biso   1.000  O
  H91      1.0000 0.77767  0.07772  0.39780  Biso   1.000  H
  H92      1.0000 0.81167  0.14312  0.42530  Biso   1.000  H
  O22      1.0000 0.67465  0.11068  0.46129  Biso   1.000  O
  C65      1.0000 0.89224  0.23191  0.15549  Biso   1.000  C
  C66      1.0000 0.37102  0.06080  0.61098  Biso   1.000  C
  C67      1.0000 0.22929  0.22131  0.04108  Biso   1.000  C
  C68      1.0000 0.71581  0.07800  0.51298  Biso   1.000  C
  C69      1.0000 0.94826  0.23609  0.09550  Biso   1.000  C
  H93      1.0000 0.81660  0.24520  0.14988  Biso   1.000  H
  H94      1.0000 0.89142  0.18891  0.16941  Biso   1.000  H
  C70      1.0000 0.48286  0.07098  0.61712  Biso   1.000  C
  H95      1.0000 0.33605  0.06959  0.65192  Biso   1.000  H
  H96      1.0000 0.35900  0.01711  0.60172  Biso   1.000  H
  C71      1.0000 0.11490  0.23521  0.03911  Biso   1.000  C
  H97      1.0000 0.23843  0.17678  0.04612  Biso   1.000  H
  H98      1.0000 0.26228  0.23302  0.00048  Biso   1.000  H
  H99      1.0000 0.73161  0.03598  0.49902  Biso   1.000  H
  H100     1.0000 0.78528  0.09692  0.52541  Biso   1.000  H
  C72      1.0000 0.65040  0.07470  0.56640  Biso   1.000  C
  O23      1.0000 0.06019  0.22568  0.09689  Biso   1.000  O
  H101     1.0000 0.91534  0.20629  0.06618  Biso   1.000  H
  H102     1.0000 0.93550  0.27718  0.07789  Biso   1.000  H
  O24      1.0000 0.54753  0.07498  0.56678  Biso   1.000  O
  H103     1.0000 0.49167  0.10919  0.64122  Biso   1.000  H
  H104     1.0000 0.51167  0.03779  0.64381  Biso   1.000  H
  H105     1.0000 0.10584  0.27839  0.02649  Biso   1.000  H
  H106     1.0000 0.08057  0.20969  0.00629  Biso   1.000  H
  H107     1.0000 0.67214  0.03700  0.58862  Biso   1.000  H
  H108     1.0000 0.67288  0.10891  0.59370  Biso   1.000  H
  O25      1.0000 0.56021  0.27430  0.59692  Biso   1.000  O
  C73      1.0000 0.61493  0.26482  0.53909  Biso   1.000  C
  C74      1.0000 0.44821  0.26389  0.59548  Biso   1.000  C
  H109     1.0000 0.60587  0.22159  0.52652  Biso   1.000  H
  H110     1.0000 0.58060  0.29029  0.50631  Biso   1.000  H
  C75      1.0000 0.72932  0.27872  0.54110  Biso   1.000  C
  C76      1.0000 0.39226  0.26812  0.65552  Biso   1.000  C
  H111     1.0000 0.41536  0.29368  0.56620  Biso   1.000  H
  H112     1.0000 0.43553  0.22280  0.57791  Biso   1.000  H
  H113     1.0000 0.73846  0.32320  0.54610  Biso   1.000  H
  H114     1.0000 0.76231  0.26700  0.50050  Biso   1.000  H
  O26      1.0000 0.78521  0.24869  0.59049  Biso   1.000  O
  H115     1.0000 0.31663  0.25482  0.64990  Biso   1.000  H
  H116     1.0000 0.39144  0.31111  0.66939  Biso   1.000  H
  O27      1.0000 0.44223  0.23139  0.70322  Biso   1.000  O
  C77      1.0000 0.90051  0.24399  0.57830  Biso   1.000  C
  C78      1.0000 0.37024  0.21699  0.75500  Biso   1.000  C
  H117     1.0000 0.91293  0.22428  0.53712  Biso   1.000  H
  H118     1.0000 0.93318  0.28522  0.57719  Biso   1.000  H
  C79      1.0000 0.95311  0.20601  0.63099  Biso   1.000  C
  C80      1.0000 0.43263  0.18649  0.80818  Biso   1.000  C
  H119     1.0000 0.33601  0.25482  0.77070  Biso   1.000  H
  H120     1.0000 0.31246  0.18942  0.74008  Biso   1.000  H
  H121     1.0000 0.90456  0.17241  0.64361  Biso   1.000  H
  O28      1.0000 0.97296  0.24557  0.68350  Biso   1.000  O
  H122     1.0000 0.02175  0.18812  0.61602  Biso   1.000  H
  H123     1.0000 0.48077  0.15460  0.79109  Biso   1.000  H
  H124     1.0000 0.38203  0.16729  0.83822  Biso   1.000  H
  O29      1.0000 0.49634  0.23372  0.84009  Biso   1.000  O
  C81      1.0000 0.03182  0.22210  0.73461  Biso   1.000  C
  C82      1.0000 0.54714  0.21801  0.89658  Biso   1.000  C
  C83      1.0000 0.07414  0.26672  0.77588  Biso   1.000  C
  C84      1.0000 0.04861  0.15869  0.74622  Biso   1.000  C
  C85      1.0000 0.56196  0.15702  0.91731  Biso   1.000  C
  C86      1.0000 0.58566  0.26821  0.93171  Biso   1.000  C
  H125     1.0000 0.06681  0.30879  0.76662  Biso   1.000  H
  C87      1.0000 0.12715  0.24771  0.83112  Biso   1.000  C
  C88      1.0000 0.10204  0.14098  0.80170  Biso   1.000  C
  H126     1.0000 0.02425  0.12908  0.71699  Biso   1.000  H
  H127     1.0000 0.53454  0.12420  0.89312  Biso   1.000  H
  C89      1.0000 0.61736  0.14549  0.97370  Biso   1.000  C
  C90      1.0000 0.64057  0.25631  0.98939  Biso   1.000  C
  H128     1.0000 0.57512  0.30870  0.91741  Biso   1.000  H
  C91      1.0000 0.13810  0.18468  0.84508  Biso   1.000  C
  O30      1.0000 0.17087  0.28787  0.87479  Biso   1.000  O
  C92      1.0000 0.12270  0.07349  0.81360  Biso   1.000  C
  C93      1.0000 0.63243  0.08111  0.99712  Biso   1.000  C
  C94      1.0000 0.65679  0.19518  0.01070  Biso   1.000  C
  O31      1.0000 0.68099  0.30191  0.02817  Biso   1.000  O
  H129     1.0000 0.16972  0.17222  0.88362  Biso   1.000  H
  C95      1.0000 0.19061  0.35049  0.85622  Biso   1.000  C
  H130     1.0000 0.20121  0.06508  0.81322  Biso   1.000  H
  H131     1.0000 0.08813  0.04862  0.78049  Biso   1.000  H
  O32      1.0000 0.07721  0.05880  0.87498  Biso   1.000  O
  H132     1.0000 0.56527  0.05769  0.99021  Biso   1.000  H
  O33      1.0000 0.71628  0.05248  0.96689  Biso   1.000  O
  H133     1.0000 0.64693  0.08181  0.04290  Biso   1.000  H
  H134     1.0000 0.69359  0.18770  0.04910  Biso   1.000  H
  C96      1.0000 0.65696  0.36522  0.01459  Biso   1.000  C
  H135     1.0000 0.23553  0.35179  0.81768  Biso   1.000  H
  H136     1.0000 0.12156  0.37150  0.84739  Biso   1.000  H
  C97      1.0000 0.24996  0.38209  0.91131  Biso   1.000  C
  C98      1.0000 0.12223  0.00209  0.89999  Biso   1.000  C
  C99      1.0000 0.69776  0.97801  0.96089  Biso   1.000  C
  H137     1.0000 0.68847  0.37652  0.97341  Biso   1.000  H
  C100     1.0000 0.70257  0.40552  0.06488  Biso   1.000  C
  H138     1.0000 0.57795  0.37089  0.01219  Biso   1.000  H
  H139     1.0000 0.27761  0.42230  0.89778  Biso   1.000  H
  H140     1.0000 0.31161  0.35690  0.92528  Biso   1.000  H
  O34      1.0000 0.17459  0.38930  0.96132  Biso   1.000  O
  C101     1.0000 0.07811  0.94850  0.86538  Biso   1.000  C
  H141     1.0000 0.10422  0.99861  0.94519  Biso   1.000  H
  H142     1.0000 0.20173  0.00288  0.89591  Biso   1.000  H
  H143     1.0000 0.62032  0.96890  0.95431  Biso   1.000  H
  C102     1.0000 0.76292  0.95579  0.90598  Biso   1.000  C
  H144     1.0000 0.72139  0.95751  0.00000  Biso   1.000  H
  H145     1.0000 0.67723  0.39172  0.10669  Biso   1.000  H
  H146     1.0000 0.67787  0.44792  0.05850  Biso   1.000  H
  O35      1.0000 0.81852  0.40301  0.06239  Biso   1.000  O
  C103     1.0000 0.21576  0.42198  0.01301  Biso   1.000  C
  C104     1.0000 0.94446  0.94682  0.85271  Biso   1.000  C
  H147     1.0000 0.11472  0.94631  0.82411  Biso   1.000  H
  H148     1.0000 0.09804  0.91131  0.88909  Biso   1.000  H
  C105     1.0000 0.88604  0.95649  0.91520  Biso   1.000  C
  H149     1.0000 0.74045  0.91359  0.89619  Biso   1.000  H
  H150     1.0000 0.74522  0.98131  0.86898  Biso   1.000  H
  C106     1.0000 0.87104  0.43922  0.11100  Biso   1.000  C
  H151     1.0000 0.23164  0.46400  0.99899  Biso   1.000  H
  H152     1.0000 0.28514  0.40311  0.02539  Biso   1.000  H
  C107     1.0000 0.15035  0.42528  0.06642  Biso   1.000  C
  H153     1.0000 0.92355  0.90699  0.83448  Biso   1.000  H
  H154     1.0000 0.92396  0.97922  0.82262  Biso   1.000  H
  H155     1.0000 0.90687  0.92391  0.94500  Biso   1.000  H
  H156     1.0000 0.90802  0.99600  0.93348  Biso   1.000  H
  C108     1.0000 0.98280  0.42900  0.11710  Biso   1.000  C
  H157     1.0000 0.83600  0.43039  0.15189  Biso   1.000  H
  H158     1.0000 0.85902  0.48292  0.10169  Biso   1.000  H
  H159     1.0000 0.17208  0.46302  0.08859  Biso   1.000  H
  H160     1.0000 0.17274  0.39111  0.09368  Biso   1.000  H
  O36      1.0000 0.04748  0.42500  0.06680  Biso   1.000  O
  H161     1.0000 0.99162  0.39079  0.14119  Biso   1.000  H
  H162     1.0000 0.01153  0.46219  0.14378  Biso   1.000  H
  O37      1.0000 0.43984  0.72570  0.40308  Biso   1.000  O
  C109     1.0000 0.55185  0.73611  0.40452  Biso   1.000  C
  C110     1.0000 0.38513  0.73518  0.46091  Biso   1.000  C
  C111     1.0000 0.60779  0.73188  0.34448  Biso   1.000  C
  H163     1.0000 0.58477  0.70632  0.43380  Biso   1.000  H
  H164     1.0000 0.56452  0.77720  0.42209  Biso   1.000  H
  H165     1.0000 0.39427  0.77841  0.47348  Biso   1.000  H
  H166     1.0000 0.41945  0.70971  0.49369  Biso   1.000  H
  C112     1.0000 0.27073  0.72128  0.45890  Biso   1.000  C
  H167     1.0000 0.68342  0.74518  0.35010  Biso   1.000  H
  H168     1.0000 0.60861  0.68889  0.33061  Biso   1.000  H
  O38      1.0000 0.55782  0.76861  0.29678  Biso   1.000  O
  H169     1.0000 0.26160  0.67680  0.45390  Biso   1.000  H
  H170     1.0000 0.23774  0.73300  0.49950  Biso   1.000  H
  O39      1.0000 0.21484  0.75131  0.40951  Biso   1.000  O
  C113     1.0000 0.62982  0.78301  0.24500  Biso   1.000  C
  C114     1.0000 0.09954  0.75601  0.42170  Biso   1.000  C
  C115     1.0000 0.56742  0.81351  0.19182  Biso   1.000  C
  H171     1.0000 0.66405  0.74518  0.22930  Biso   1.000  H
  H172     1.0000 0.68759  0.81058  0.25992  Biso   1.000  H
  H173     1.0000 0.08713  0.77572  0.46288  Biso   1.000  H
  H174     1.0000 0.06695  0.71478  0.42281  Biso   1.000  H
  C116     1.0000 0.04694  0.79399  0.36901  Biso   1.000  C
  H175     1.0000 0.51936  0.84540  0.20891  Biso   1.000  H
  H176     1.0000 0.61802  0.83271  0.16178  Biso   1.000  H
  O40      1.0000 0.50371  0.76628  0.15991  Biso   1.000  O
  H177     1.0000 0.09549  0.82759  0.35639  Biso   1.000  H
  O41      1.0000 0.02709  0.75443  0.31650  Biso   1.000  O
  H178     1.0000 0.97831  0.81188  0.38398  Biso   1.000  H
  C117     1.0000 0.45292  0.78199  0.10342  Biso   1.000  C
  C118     1.0000 0.96823  0.77790  0.26539  Biso   1.000  C
  C119     1.0000 0.43810  0.84298  0.08269  Biso   1.000  C
  C120     1.0000 0.41439  0.73179  0.06829  Biso   1.000  C
  C121     1.0000 0.92592  0.73328  0.22412  Biso   1.000  C
  C122     1.0000 0.95144  0.84131  0.25378  Biso   1.000  C
  H179     1.0000 0.46551  0.87580  0.10688  Biso   1.000  H
  C123     1.0000 0.38269  0.85451  0.02630  Biso   1.000  C
  C124     1.0000 0.35948  0.74369  0.01061  Biso   1.000  C
  H180     1.0000 0.42493  0.69130  0.08259  Biso   1.000  H
  H181     1.0000 0.93324  0.69121  0.23338  Biso   1.000  H
  C125     1.0000 0.87290  0.75229  0.16888  Biso   1.000  C
  C126     1.0000 0.89801  0.85902  0.19830  Biso   1.000  C
  H182     1.0000 0.97581  0.87092  0.28301  Biso   1.000  H
  C127     1.0000 0.36762  0.91889  0.00288  Biso   1.000  C
  C128     1.0000 0.34326  0.80482  0.98930  Biso   1.000  C
  O42      1.0000 0.31906  0.69809  0.97183  Biso   1.000  O
  C129     1.0000 0.86195  0.81532  0.15492  Biso   1.000  C
  O43      1.0000 0.82927  0.71213  0.12521  Biso   1.000  O
  C130     1.0000 0.87735  0.92651  0.18640  Biso   1.000  C
  H183     1.0000 0.43478  0.94231  0.00979  Biso   1.000  H
  O44      1.0000 0.28377  0.94752  0.03311  Biso   1.000  O
  H184     1.0000 0.35321  0.91819  0.95710  Biso   1.000  H
  H185     1.0000 0.30646  0.81230  0.95090  Biso   1.000  H
  C131     1.0000 0.34309  0.63478  0.98541  Biso   1.000  C
  H186     1.0000 0.83034  0.82778  0.11638  Biso   1.000  H
  C132     1.0000 0.80944  0.64951  0.14378  Biso   1.000  C
  H187     1.0000 0.79884  0.93492  0.18678  Biso   1.000  H
  H188     1.0000 0.91192  0.95138  0.21951  Biso   1.000  H
  O45      1.0000 0.92284  0.94120  0.12502  Biso   1.000  O
  C133     1.0000 0.30229  0.02199  0.03911  Biso   1.000  C
  H189     1.0000 0.31159  0.62348  0.02659  Biso   1.000  H
  C134     1.0000 0.29749  0.59448  0.93512  Biso   1.000  C
  H190     1.0000 0.42210  0.62911  0.98781  Biso   1.000  H
  H191     1.0000 0.76452  0.64821  0.18232  Biso   1.000  H
  H192     1.0000 0.87857  0.62850  0.15261  Biso   1.000  H
  C135     1.0000 0.75009  0.61791  0.08869  Biso   1.000  C
  C136     1.0000 0.87782  0.99791  0.10001  Biso   1.000  C
  H193     1.0000 0.37974  0.03110  0.04569  Biso   1.000  H
  H194     1.0000 0.27858  0.04249  0.00000  Biso   1.000  H
  C137     1.0000 0.23713  0.04421  0.09402  Biso   1.000  C
  H195     1.0000 0.32290  0.60828  0.89331  Biso   1.000  H
  H196     1.0000 0.32218  0.55208  0.94150  Biso   1.000  H
  O46      1.0000 0.18153  0.59699  0.93761  Biso   1.000  O
  H197     1.0000 0.72244  0.57770  0.10222  Biso   1.000  H
  H198     1.0000 0.68844  0.64310  0.07472  Biso   1.000  H
  O47      1.0000 0.82546  0.61070  0.03868  Biso   1.000  O
  H199     1.0000 0.79832  0.99712  0.10409  Biso   1.000  H
  C138     1.0000 0.92194  0.05150  0.13462  Biso   1.000  C
  H200     1.0000 0.89583  0.00139  0.05481  Biso   1.000  H
  H201     1.0000 0.25960  0.08641  0.10381  Biso   1.000  H
  H202     1.0000 0.25483  0.01869  0.13102  Biso   1.000  H
  C139     1.0000 0.11401  0.04351  0.08480  Biso   1.000  C
  C140     1.0000 0.12909  0.56078  0.88900  Biso   1.000  C
  C141     1.0000 0.78429  0.57802  0.98699  Biso   1.000  C
  H203     1.0000 0.88533  0.05369  0.17589  Biso   1.000  H
  H204     1.0000 0.90202  0.08869  0.11091  Biso   1.000  H
  C142     1.0000 0.05560  0.05318  0.14729  Biso   1.000  C
  H205     1.0000 0.09318  0.07609  0.05500  Biso   1.000  H
  H206     1.0000 0.09203  0.00400  0.06652  Biso   1.000  H
  C143     1.0000 0.01725  0.57100  0.88290  Biso   1.000  C
  H207     1.0000 0.16406  0.56961  0.84811  Biso   1.000  H
  H208     1.0000 0.14103  0.51708  0.89831  Biso   1.000  H
  H209     1.0000 0.71491  0.59689  0.97461  Biso   1.000  H
  C144     1.0000 0.84970  0.57472  0.93358  Biso   1.000  C
  H210     1.0000 0.76841  0.53600  0.00101  Biso   1.000  H
  H211     1.0000 0.07650  0.09301  0.16552  Biso   1.000  H
  H212     1.0000 0.07610  0.02078  0.17738  Biso   1.000  H
  H213     1.0000 0.98852  0.53781  0.85622  Biso   1.000  H
  O48      1.0000 0.95258  0.57500  0.93320  Biso   1.000  O
  H214     1.0000 0.00843  0.60921  0.85881  Biso   1.000  H
  H215     1.0000 0.82797  0.53698  0.91141  Biso   1.000  H
  H216     1.0000 0.82731  0.60889  0.90632  Biso   1.000  H
