data_image0
_cell_length_a       11.861
_cell_length_b       17.427
_cell_length_c       22.237
_cell_angle_alpha    71.64
_cell_angle_beta     76.22
_cell_angle_gamma    74.56

_symmetry_space_group_name_H-M    "P 1"
_symmetry_int_tables_number       1

loop_
  _symmetry_equiv_pos_as_xyz
  'x, y, z'

loop_
  _atom_site_label
  _atom_site_occupancy
  _atom_site_fract_x
  _atom_site_fract_y
  _atom_site_fract_z
  _atom_site_thermal_displace_type
  _atom_site_B_iso_or_equiv
  _atom_site_type_symbol
  C1       1.0000 0.52172  0.69117  0.52393  Biso   1.000  C
  C2       1.0000 0.63022  0.72804  0.50922  Biso   1.000  C
  H1       1.0000 0.46472  0.72665  0.49532  Biso   1.000  H
  H2       1.0000 0.54495  0.63578  0.51590  Biso   1.000  H
  C3       1.0000 0.46325  0.68376  0.59397  Biso   1.000  C
  C4       1.0000 0.62729  0.80948  0.48768  Biso   1.000  C
  C5       1.0000 0.74554  0.67184  0.51922  Biso   1.000  C
  C6       1.0000 0.38219  0.75096  0.61089  Biso   1.000  C
  C7       1.0000 0.49284  0.61202  0.64189  Biso   1.000  C
  C8       1.0000 0.73245  0.84499  0.47691  Biso   1.000  C
  H3       1.0000 0.55411  0.84596  0.47893  Biso   1.000  H
  O1       1.0000 0.75423  0.59640  0.53599  Biso   1.000  O
  C9       1.0000 0.84988  0.70720  0.50888  Biso   1.000  C
  O2       1.0000 0.35822  0.82058  0.56185  Biso   1.000  O
  C10      1.0000 0.32873  0.74475  0.67487  Biso   1.000  C
  C11      1.0000 0.44251  0.60638  0.70592  Biso   1.000  C
  H4       1.0000 0.54835  0.56604  0.63074  Biso   1.000  H
  O3       1.0000 0.72415  0.91981  0.45696  Biso   1.000  O
  C12      1.0000 0.84632  0.78766  0.49018  Biso   1.000  C
  H5       1.0000 0.92376  0.67057  0.51599  Biso   1.000  H
  C13      1.0000 0.29544  0.89377  0.57868  Biso   1.000  C
  H6       1.0000 0.27152  0.79013  0.68583  Biso   1.000  H
  C14      1.0000 0.35861  0.67244  0.72304  Biso   1.000  C
  O4       1.0000 0.47068  0.53785  0.75611  Biso   1.000  O
  C15      1.0000 0.95104  0.82666  0.48206  Biso   1.000  C
  H7       1.0000 0.33144  0.90155  0.61113  Biso   1.000  H
  H8       1.0000 0.29866  0.94086  0.54041  Biso   1.000  H
  H9       1.0000 0.21248  0.88967  0.59622  Biso   1.000  H
  C16      1.0000 0.30204  0.66716  0.79259  Biso   1.000  C
  C17      1.0000 0.55292  0.46965  0.73967  Biso   1.000  C
  C18      1.0000 0.95601  0.84589  0.54339  Biso   1.000  C
  H10      1.0000 0.94456  0.87840  0.44672  Biso   1.000  H
  H11      1.0000 0.02545  0.78855  0.47004  Biso   1.000  H
  H12      1.0000 0.29629  0.60912  0.81552  Biso   1.000  H
  H13      1.0000 0.22050  0.70121  0.79433  Biso   1.000  H
  C19      1.0000 0.37233  0.69634  0.82600  Biso   1.000  C
  H14      1.0000 0.56581  0.42483  0.77875  Biso   1.000  H
  H15      1.0000 0.52192  0.45056  0.71102  Biso   1.000  H
  H16      1.0000 0.62830  0.48603  0.71775  Biso   1.000  H
  C20      1.0000 0.90645  0.92330  0.55335  Biso   1.000  C
  C21      1.0000 0.01220  0.78497  0.59118  Biso   1.000  C
  C22      1.0000 0.34813  0.78657  0.81985  Biso   1.000  C
  C23      1.0000 0.45400  0.64612  0.86023  Biso   1.000  C
  C24      1.0000 0.91133  0.94096  0.60887  Biso   1.000  C
  H17      1.0000 0.86803  0.96529  0.52123  Biso   1.000  H
  O5       1.0000 0.05906  0.70852  0.58002  Biso   1.000  O
  C25      1.0000 0.01911  0.80346  0.64656  Biso   1.000  C
  O6       1.0000 0.27128  0.83398  0.79048  Biso   1.000  O
  C26      1.0000 0.41854  0.81563  0.85119  Biso   1.000  C
  C27      1.0000 0.52393  0.67461  0.89181  Biso   1.000  C
  H18      1.0000 0.46778  0.58865  0.86441  Biso   1.000  H
  C28      1.0000 0.96779  0.88136  0.65679  Biso   1.000  C
  O7       1.0000 0.86084  0.01703  0.62113  Biso   1.000  O
  C29      1.0000 0.11551  0.64523  0.62762  Biso   1.000  C
  H19      1.0000 0.05964  0.76207  0.67814  Biso   1.000  H
  H20      1.0000 0.40414  0.87321  0.84735  Biso   1.000  H
  C30      1.0000 0.50155  0.76501  0.88484  Biso   1.000  C
  O8       1.0000 0.59830  0.62596  0.92253  Biso   1.000  O
  C31      1.0000 0.97337  0.89788  0.71876  Biso   1.000  C
  C32      1.0000 0.78869  0.07573  0.57892  Biso   1.000  C
  H21      1.0000 0.05816  0.63368  0.66742  Biso   1.000  H
  H22      1.0000 0.14682  0.59513  0.61271  Biso   1.000  H
  H23      1.0000 0.18093  0.66314  0.63574  Biso   1.000  H
  C33      1.0000 0.57652  0.79591  0.91532  Biso   1.000  C
  C34      1.0000 0.87106  0.87222  0.77096  Biso   1.000  C
  H24      1.0000 0.96997  0.95755  0.71111  Biso   1.000  H
  H25      1.0000 0.04960  0.86678  0.73313  Biso   1.000  H
  H26      1.0000 0.75844  0.12604  0.59353  Biso   1.000  H
  H27      1.0000 0.83540  0.08897  0.53561  Biso   1.000  H
  H28      1.0000 0.72198  0.05312  0.57801  Biso   1.000  H
  H29      1.0000 0.60551  0.75143  0.95205  Biso   1.000  H
  H30      1.0000 0.52764  0.84311  0.93171  Biso   1.000  H
  C35      1.0000 0.68114  0.82272  0.86600  Biso   1.000  C
  C36      1.0000 0.76453  0.92787  0.78048  Biso   1.000  C
  C37      1.0000 0.88115  0.79025  0.80904  Biso   1.000  C
  C38      1.0000 0.66916  0.90426  0.82725  Biso   1.000  C
  C39      1.0000 0.78702  0.76653  0.85614  Biso   1.000  C
  H31      1.0000 0.75628  0.98333  0.75452  Biso   1.000  H
  O9       1.0000 0.98728  0.73774  0.79750  Biso   1.000  O
  O10      1.0000 0.56316  0.95601  0.83841  Biso   1.000  O
  H32      1.0000 0.79498  0.71104  0.88201  Biso   1.000  H
  C40      1.0000 0.99317  0.65103  0.82740  Biso   1.000  C
  C41      1.0000 0.54138  0.03502  0.79495  Biso   1.000  C
  H33      1.0000 0.98212  0.64060  0.87412  Biso   1.000  H
  H34      1.0000 0.93073  0.63351  0.81625  Biso   1.000  H
  H35      1.0000 0.07097  0.61982  0.81211  Biso   1.000  H
  H36      1.0000 0.46030  0.06389  0.80755  Biso   1.000  H
  H37      1.0000 0.59773  0.06661  0.79572  Biso   1.000  H
  H38      1.0000 0.55074  0.02918  0.75154  Biso   1.000  H
  C42      1.0000 0.47818  0.30878  0.47610  Biso   1.000  C
  C43      1.0000 0.53668  0.31613  0.40606  Biso   1.000  C
  C44      1.0000 0.36961  0.27183  0.49085  Biso   1.000  C
  H39      1.0000 0.53512  0.27324  0.50470  Biso   1.000  H
  H40      1.0000 0.45495  0.36417  0.48412  Biso   1.000  H
  C45      1.0000 0.61762  0.24899  0.38913  Biso   1.000  C
  C46      1.0000 0.50707  0.38786  0.35818  Biso   1.000  C
  C47      1.0000 0.37251  0.19045  0.51239  Biso   1.000  C
  C48      1.0000 0.25439  0.32805  0.48081  Biso   1.000  C
  C49      1.0000 0.67117  0.25520  0.32515  Biso   1.000  C
  O11      1.0000 0.64159  0.17937  0.43817  Biso   1.000  O
  C50      1.0000 0.55733  0.39351  0.29410  Biso   1.000  C
  H41      1.0000 0.45154  0.43389  0.36933  Biso   1.000  H
  C51      1.0000 0.26744  0.15494  0.52316  Biso   1.000  C
  H42      1.0000 0.44571  0.15392  0.52114  Biso   1.000  H
  C52      1.0000 0.14993  0.29275  0.49114  Biso   1.000  C
  O12      1.0000 0.24567  0.40355  0.46403  Biso   1.000  O
  C53      1.0000 0.64121  0.32751  0.27699  Biso   1.000  C
  H43      1.0000 0.72832  0.20976  0.31419  Biso   1.000  H
  C54      1.0000 0.70446  0.10618  0.42134  Biso   1.000  C
  O13      1.0000 0.52912  0.46209  0.24396  Biso   1.000  O
  C55      1.0000 0.15356  0.21227  0.50989  Biso   1.000  C
  O14      1.0000 0.27576  0.08014  0.54306  Biso   1.000  O
  H44      1.0000 0.07614  0.32938  0.48403  Biso   1.000  H
  C56      1.0000 0.69786  0.33279  0.20743  Biso   1.000  C
  H45      1.0000 0.66848  0.09834  0.38889  Biso   1.000  H
  H46      1.0000 0.70127  0.05903  0.45961  Biso   1.000  H
  H47      1.0000 0.78733  0.11028  0.40380  Biso   1.000  H
  C57      1.0000 0.44696  0.53028  0.26040  Biso   1.000  C
  C58      1.0000 0.04884  0.17327  0.51801  Biso   1.000  C
  C59      1.0000 0.62758  0.30353  0.17407  Biso   1.000  C
  H48      1.0000 0.70354  0.39077  0.18450  Biso   1.000  H
  H49      1.0000 0.77934  0.29868  0.20570  Biso   1.000  H
  H50      1.0000 0.43407  0.57510  0.22132  Biso   1.000  H
  H51      1.0000 0.47798  0.54939  0.28900  Biso   1.000  H
  H52      1.0000 0.37158  0.51390  0.28232  Biso   1.000  H
  C60      1.0000 0.04389  0.15406  0.45663  Biso   1.000  C
  H53      1.0000 0.05526  0.12155  0.55330  Biso   1.000  H
  H54      1.0000 0.97446  0.21133  0.53003  Biso   1.000  H
  C61      1.0000 0.65177  0.21338  0.18017  Biso   1.000  C
  C62      1.0000 0.54584  0.35377  0.13979  Biso   1.000  C
  C63      1.0000 0.09345  0.07665  0.44668  Biso   1.000  C
  C64      1.0000 0.98761  0.21498  0.40884  Biso   1.000  C
  C65      1.0000 0.58135  0.18431  0.14888  Biso   1.000  C
  O15      1.0000 0.72853  0.16597  0.20954  Biso   1.000  O
  C66      1.0000 0.47595  0.32532  0.10826  Biso   1.000  C
  H55      1.0000 0.53204  0.41130  0.13561  Biso   1.000  H
  C67      1.0000 0.08857  0.05899  0.39115  Biso   1.000  C
  H56      1.0000 0.13186  0.03465  0.47884  Biso   1.000  H
  C68      1.0000 0.98069  0.19647  0.35351  Biso   1.000  C
  O16      1.0000 0.94086  0.29137  0.42000  Biso   1.000  O
  C69      1.0000 0.49837  0.23488  0.11518  Biso   1.000  C
  H57      1.0000 0.59577  0.12666  0.15272  Biso   1.000  H
  O17      1.0000 0.40160  0.37399  0.07749  Biso   1.000  O
  C70      1.0000 0.03209  0.11857  0.34328  Biso   1.000  C
  O18      1.0000 0.13897  0.98292  0.37890  Biso   1.000  O
  H58      1.0000 0.94024  0.23786  0.32193  Biso   1.000  H
  C71      1.0000 0.88432  0.35466  0.37241  Biso   1.000  C
  C72      1.0000 0.42340  0.20398  0.08470  Biso   1.000  C
  C73      1.0000 0.02644  0.10207  0.28126  Biso   1.000  C
  C74      1.0000 0.21123  0.92416  0.42110  Biso   1.000  C
  H59      1.0000 0.94174  0.36627  0.33260  Biso   1.000  H
  H60      1.0000 0.85302  0.40476  0.38731  Biso   1.000  H
  H61      1.0000 0.81898  0.33674  0.36433  Biso   1.000  H
  C75      1.0000 0.31879  0.17717  0.13402  Biso   1.000  C
  H62      1.0000 0.39438  0.24850  0.04802  Biso   1.000  H
  H63      1.0000 0.47229  0.15678  0.06831  Biso   1.000  H
  C76      1.0000 0.12876  0.12765  0.22911  Biso   1.000  C
  H64      1.0000 0.02987  0.04234  0.28891  Biso   1.000  H
  H65      1.0000 0.95021  0.13317  0.26689  Biso   1.000  H
  H66      1.0000 0.24136  0.87389  0.40654  Biso   1.000  H
  H67      1.0000 0.16450  0.91098  0.46441  Biso   1.000  H
  H68      1.0000 0.27794  0.94677  0.42202  Biso   1.000  H
  C77      1.0000 0.21288  0.23342  0.14388  Biso   1.000  C
  C78      1.0000 0.33066  0.09568  0.17277  Biso   1.000  C
  C79      1.0000 0.11866  0.20970  0.19099  Biso   1.000  C
  C80      1.0000 0.23537  0.07208  0.21954  Biso   1.000  C
  H69      1.0000 0.20483  0.28891  0.11801  Biso   1.000  H
  O19      1.0000 0.43665  0.04394  0.16161  Biso   1.000  O
  O20      1.0000 0.01254  0.26221  0.20252  Biso   1.000  O
  H70      1.0000 0.24356  0.01656  0.24550  Biso   1.000  H
  C81      1.0000 0.45851  0.96491  0.20512  Biso   1.000  C
  C82      1.0000 0.00665  0.34892  0.17262  Biso   1.000  C
  H71      1.0000 0.53961  0.93598  0.19252  Biso   1.000  H
  H72      1.0000 0.40211  0.93328  0.20430  Biso   1.000  H
  H73      1.0000 0.44909  0.97069  0.24853  Biso   1.000  H
  H74      1.0000 0.01781  0.35929  0.12590  Biso   1.000  H
  H75      1.0000 0.06918  0.36636  0.18382  Biso   1.000  H
  H76      1.0000 0.92895  0.38007  0.18791  Biso   1.000  H
  C83      1.0000 0.69882  0.66976  0.36568  Biso   1.000  C
  C84      1.0000 0.69260  0.65498  0.30251  Biso   1.000  C
  H77      1.0000 0.62435  0.70616  0.37991  Biso   1.000  H
  H78      1.0000 0.70839  0.61659  0.39933  Biso   1.000  H
  C85      1.0000 0.80290  0.70961  0.35597  Biso   1.000  C
  C86      1.0000 0.74637  0.58635  0.28506  Biso   1.000  C
  C87      1.0000 0.62586  0.72409  0.25737  Biso   1.000  C
  C88      1.0000 0.91332  0.65949  0.36577  Biso   1.000  C
  C89      1.0000 0.78943  0.79490  0.33655  Biso   1.000  C
  C90      1.0000 0.74896  0.57539  0.22204  Biso   1.000  C
  H79      1.0000 0.78562  0.54147  0.31520  Biso   1.000  H
  C91      1.0000 0.62968  0.71537  0.19301  Biso   1.000  C
  O21      1.0000 0.56804  0.78687  0.27295  Biso   1.000  O
  O22      1.0000 0.92092  0.57610  0.38385  Biso   1.000  O
  C92      1.0000 0.00928  0.69649  0.35674  Biso   1.000  C
  C93      1.0000 0.88663  0.83151  0.32621  Biso   1.000  C
  H80      1.0000 0.71367  0.82868  0.33010  Biso   1.000  H
  O23      1.0000 0.79994  0.51222  0.20757  Biso   1.000  O
  C94      1.0000 0.68436  0.64742  0.17483  Biso   1.000  C
  H81      1.0000 0.59074  0.76080  0.16301  Biso   1.000  H
  C95      1.0000 0.02994  0.52377  0.39832  Biso   1.000  C
  C96      1.0000 0.99749  0.78162  0.33707  Biso   1.000  C
  H82      1.0000 0.08446  0.66234  0.36423  Biso   1.000  H
  O24      1.0000 0.88305  0.91438  0.30448  Biso   1.000  O
  C97      1.0000 0.69082  0.63753  0.10936  Biso   1.000  C
  H83      1.0000 0.09114  0.53186  0.35991  Biso   1.000  H
  H84      1.0000 0.02139  0.46607  0.41231  Biso   1.000  H
  H85      1.0000 0.05283  0.53718  0.43274  Biso   1.000  H
  C98      1.0000 0.10369  0.82076  0.32683  Biso   1.000  C
  C99      1.0000 0.77271  0.96631  0.29049  Biso   1.000  C
  H86      1.0000 0.61753  0.67012  0.09239  Biso   1.000  H
  H87      1.0000 0.69576  0.57862  0.11292  Biso   1.000  H
  C100     1.0000 0.79715  0.66563  0.06302  Biso   1.000  C
  H88      1.0000 0.07568  0.87582  0.33530  Biso   1.000  H
  H89      1.0000 0.15705  0.78599  0.35770  Biso   1.000  H
  C101     1.0000 0.17175  0.83003  0.25901  Biso   1.000  C
  H90      1.0000 0.74973  0.95297  0.25603  Biso   1.000  H
  H91      1.0000 0.71191  0.95761  0.32909  Biso   1.000  H
  H92      1.0000 0.78043  0.02417  0.27670  Biso   1.000  H
  C102     1.0000 0.90214  0.60859  0.05288  Biso   1.000  C
  C103     1.0000 0.79282  0.74852  0.02918  Biso   1.000  C
  C104     1.0000 0.26578  0.75910  0.24632  Biso   1.000  C
  C105     1.0000 0.15073  0.89813  0.21074  Biso   1.000  C
  H93      1.0000 0.90684  0.55208  0.07600  Biso   1.000  H
  C106     1.0000 0.00157  0.63331  0.00889  Biso   1.000  C
  O25      1.0000 0.68859  0.80239  0.04245  Biso   1.000  O
  C107     1.0000 0.89044  0.77273  0.98495  Biso   1.000  C
  O26      1.0000 0.28942  0.69601  0.28867  Biso   1.000  O
  C108     1.0000 0.33184  0.76635  0.18003  Biso   1.000  C
  C109     1.0000 0.21892  0.90573  0.14465  Biso   1.000  C
  H94      1.0000 0.09000  0.94341  0.21911  Biso   1.000  H
  C110     1.0000 0.99466  0.71571  0.97390  Biso   1.000  C
  O27      1.0000 0.10643  0.57892  0.99712  Biso   1.000  O
  C111     1.0000 0.68593  0.88812  0.01298  Biso   1.000  C
  H95      1.0000 0.88581  0.82929  0.96202  Biso   1.000  H
  H96      1.0000 0.39095  0.72041  0.17152  Biso   1.000  H
  C112     1.0000 0.31254  0.83409  0.13181  Biso   1.000  C
  O28      1.0000 0.20015  0.97001  0.10263  Biso   1.000  O
  C113     1.0000 0.10035  0.74301  0.92780  Biso   1.000  C
  C114     1.0000 0.13236  0.50544  0.04456  Biso   1.000  C
  H97      1.0000 0.74363  0.90544  0.02831  Biso   1.000  H
  H98      1.0000 0.60634  0.92015  0.02418  Biso   1.000  H
  H99      1.0000 0.70617  0.89773  0.96621  Biso   1.000  H
  C115     1.0000 0.37899  0.84112  0.06408  Biso   1.000  C
  C116     1.0000 0.17700  0.76914  0.96020  Biso   1.000  C
  H100     1.0000 0.07298  0.79001  0.89203  Biso   1.000  H
  H101     1.0000 0.14821  0.69711  0.90953  Biso   1.000  H
  H102     1.0000 0.21339  0.47610  0.03230  Biso   1.000  H
  H103     1.0000 0.07633  0.47073  0.04922  Biso   1.000  H
  H104     1.0000 0.12560  0.51778  0.08552  Biso   1.000  H
  C117     1.0000 0.31024  0.81558  0.02668  Biso   1.000  C
  H105     1.0000 0.45893  0.80491  0.06480  Biso   1.000  H
  H106     1.0000 0.38836  0.89884  0.04312  Biso   1.000  H
  C118     1.0000 0.25551  0.71061  0.99726  Biso   1.000  C
  C119     1.0000 0.16489  0.85232  0.95635  Biso   1.000  C
  C120     1.0000 0.32300  0.73225  0.02976  Biso   1.000  C
  C121     1.0000 0.23126  0.87481  0.98947  Biso   1.000  C
  H107     1.0000 0.26334  0.65405  0.00038  Biso   1.000  H
  O29      1.0000 0.08515  0.90819  0.92059  Biso   1.000  O
  O30      1.0000 0.40336  0.67720  0.06605  Biso   1.000  O
  H108     1.0000 0.22274  0.93151  0.98664  Biso   1.000  H
  C122     1.0000 0.09230  0.99182  0.90270  Biso   1.000  C
  C123     1.0000 0.41325  0.59130  0.07345  Biso   1.000  C
  H109     1.0000 0.17541  0.99671  0.88771  Biso   1.000  H
  H110     1.0000 0.04643  0.02271  0.86809  Biso   1.000  H
  H111     1.0000 0.06006  0.01451  0.93991  Biso   1.000  H
  H112     1.0000 0.43826  0.58012  0.03120  Biso   1.000  H
  H113     1.0000 0.33627  0.57641  0.09331  Biso   1.000  H
  H114     1.0000 0.47230  0.55869  0.10100  Biso   1.000  H
  C124     1.0000 0.30102  0.33013  0.63435  Biso   1.000  C
  C125     1.0000 0.19691  0.29034  0.64406  Biso   1.000  C
  C126     1.0000 0.30721  0.34496  0.69756  Biso   1.000  C
  H115     1.0000 0.37557  0.29373  0.62012  Biso   1.000  H
  H116     1.0000 0.29141  0.38335  0.60074  Biso   1.000  H
  C127     1.0000 0.08652  0.34040  0.63425  Biso   1.000  C
  C128     1.0000 0.21046  0.20503  0.66352  Biso   1.000  C
  C129     1.0000 0.25354  0.41352  0.71501  Biso   1.000  C
  C130     1.0000 0.37403  0.27584  0.74270  Biso   1.000  C
  O31      1.0000 0.07898  0.42385  0.61617  Biso   1.000  O
  C131     1.0000 0.99062  0.30346  0.64329  Biso   1.000  C
  C132     1.0000 0.11327  0.16844  0.67381  Biso   1.000  C
  H117     1.0000 0.28626  0.17121  0.66992  Biso   1.000  H
  C133     1.0000 0.25093  0.42455  0.77803  Biso   1.000  C
  H118     1.0000 0.21422  0.45842  0.68482  Biso   1.000  H
  O32      1.0000 0.43187  0.21300  0.72712  Biso   1.000  O
  C134     1.0000 0.37024  0.28452  0.80702  Biso   1.000  C
  C135     1.0000 0.96987  0.47618  0.60170  Biso   1.000  C
  C136     1.0000 0.00231  0.21831  0.66300  Biso   1.000  C
  H119     1.0000 0.91545  0.33753  0.63584  Biso   1.000  H
  O33      1.0000 0.11683  0.08555  0.69559  Biso   1.000  O
  O34      1.0000 0.19990  0.48767  0.79245  Biso   1.000  O
  C137     1.0000 0.31554  0.35253  0.82519  Biso   1.000  C
  H120     1.0000 0.40916  0.23915  0.83701  Biso   1.000  H
  H121     1.0000 0.90869  0.46803  0.64011  Biso   1.000  H
  H122     1.0000 0.97851  0.53388  0.58772  Biso   1.000  H
  H123     1.0000 0.94697  0.46275  0.56733  Biso   1.000  H
  C138     1.0000 0.89622  0.17911  0.67323  Biso   1.000  C
  C139     1.0000 0.22711  0.03364  0.70953  Biso   1.000  C
  C140     1.0000 0.30899  0.36242  0.89066  Biso   1.000  C
  H124     1.0000 0.92422  0.12413  0.66473  Biso   1.000  H
  H125     1.0000 0.84277  0.21396  0.64232  Biso   1.000  H
  C141     1.0000 0.82809  0.16986  0.74101  Biso   1.000  C
  H126     1.0000 0.25010  0.04690  0.74404  Biso   1.000  H
  H127     1.0000 0.28791  0.04234  0.67093  Biso   1.000  H
  H128     1.0000 0.21947  0.97577  0.72332  Biso   1.000  H
  H129     1.0000 0.38229  0.32983  0.90763  Biso   1.000  H
  H130     1.0000 0.30413  0.42132  0.88715  Biso   1.000  H
  C142     1.0000 0.20275  0.33432  0.93700  Biso   1.000  C
  C143     1.0000 0.73412  0.24085  0.75371  Biso   1.000  C
  C144     1.0000 0.84909  0.10181  0.78928  Biso   1.000  C
  C145     1.0000 0.09768  0.39128  0.94719  Biso   1.000  C
  C146     1.0000 0.20700  0.25143  0.97084  Biso   1.000  C
  O35      1.0000 0.71040  0.30394  0.71135  Biso   1.000  O
  C147     1.0000 0.66798  0.23360  0.82000  Biso   1.000  C
  C148     1.0000 0.78090  0.09414  0.85542  Biso   1.000  C
  H131     1.0000 0.90990  0.05654  0.78091  Biso   1.000  H
  H132     1.0000 0.09300  0.44781  0.92402  Biso   1.000  H
  C149     1.0000 0.99825  0.36664  0.99113  Biso   1.000  C
  O36      1.0000 0.31133  0.19750  0.95757  Biso   1.000  O
  C150     1.0000 0.10937  0.22722  0.01507  Biso   1.000  C
  H133     1.0000 0.60893  0.27952  0.82855  Biso   1.000  H
  C151     1.0000 0.68728  0.16586  0.86821  Biso   1.000  C
  O37      1.0000 0.79969  0.02988  0.89739  Biso   1.000  O
  O38      1.0000 0.89347  0.42103  0.00291  Biso   1.000  O
  C152     1.0000 0.00515  0.28424  0.02612  Biso   1.000  C
  C153     1.0000 0.31391  0.11177  0.98704  Biso   1.000  C
  H134     1.0000 0.11410  0.17059  0.03805  Biso   1.000  H
  C154     1.0000 0.62091  0.15883  0.93594  Biso   1.000  C
  C155     1.0000 0.86754  0.49451  0.95546  Biso   1.000  C
  C156     1.0000 0.89958  0.25688  0.07222  Biso   1.000  C
  H135     1.0000 0.25617  0.09449  0.97176  Biso   1.000  H
  H136     1.0000 0.39347  0.07980  0.97584  Biso   1.000  H
  H137     1.0000 0.29373  0.10222  0.03382  Biso   1.000  H
  H138     1.0000 0.54089  0.19504  0.93522  Biso   1.000  H
  H139     1.0000 0.61152  0.10109  0.95695  Biso   1.000  H
  C157     1.0000 0.68958  0.18437  0.97334  Biso   1.000  C
  H140     1.0000 0.78653  0.52379  0.96772  Biso   1.000  H
  H141     1.0000 0.92348  0.52920  0.95084  Biso   1.000  H
  H142     1.0000 0.87431  0.48209  0.91455  Biso   1.000  H
  C158     1.0000 0.82290  0.23081  0.03982  Biso   1.000  C
  H143     1.0000 0.92682  0.20992  0.10804  Biso   1.000  H
  H144     1.0000 0.85168  0.30283  0.09054  Biso   1.000  H
  C159     1.0000 0.67690  0.26770  0.97027  Biso   1.000  C
  C160     1.0000 0.76855  0.12514  0.01055  Biso   1.000  C
  C161     1.0000 0.74438  0.28932  0.00281  Biso   1.000  C
  C162     1.0000 0.83501  0.14763  0.04367  Biso   1.000  C
  O39      1.0000 0.59654  0.32275  0.93397  Biso   1.000  O
  H145     1.0000 0.77706  0.06842  0.01343  Biso   1.000  H
  H146     1.0000 0.73648  0.34590  0.99964  Biso   1.000  H
  O40      1.0000 0.91465  0.09174  0.07948  Biso   1.000  O
  C163     1.0000 0.58659  0.40859  0.92657  Biso   1.000  C
  C164     1.0000 0.90760  0.00813  0.09732  Biso   1.000  C
  H147     1.0000 0.56164  0.41983  0.96882  Biso   1.000  H
  H148     1.0000 0.66363  0.42354  0.90672  Biso   1.000  H
  H149     1.0000 0.52762  0.44120  0.89902  Biso   1.000  H
  H150     1.0000 0.95338  0.97724  0.13193  Biso   1.000  H
  H151     1.0000 0.93984  0.98544  0.06011  Biso   1.000  H
  H152     1.0000 0.82452  0.00318  0.11232  Biso   1.000  H
