data_image0
_cell_length_a       11.065
_cell_length_b       14.93
_cell_length_c       17.57
_cell_angle_alpha    112.7
_cell_angle_beta     100.32
_cell_angle_gamma    101.42

_symmetry_space_group_name_H-M    "P 1"
_symmetry_int_tables_number       1

loop_
  _symmetry_equiv_pos_as_xyz
  'x, y, z'

loop_
  _atom_site_label
  _atom_site_occupancy
  _atom_site_fract_x
  _atom_site_fract_y
  _atom_site_fract_z
  _atom_site_thermal_displace_type
  _atom_site_B_iso_or_equiv
  _atom_site_type_symbol
  C1       1.0000 0.76803  0.17130  0.36911  Biso   1.000  C
  N1       1.0000 0.82669  0.17788  0.30228  Biso   1.000  N
  H1       1.0000 0.83537  0.18451  0.41998  Biso   1.000  H
  H2       1.0000 0.70839  0.10316  0.34737  Biso   1.000  H
  H3       1.0000 0.72106  0.22187  0.38461  Biso   1.000  H
  C2       1.0000 0.74527  0.16113  0.22401  Biso   1.000  C
  C3       1.0000 0.95910  0.20909  0.31971  Biso   1.000  C
  N2       1.0000 0.63820  0.08249  0.19121  Biso   1.000  N
  C4       1.0000 0.76751  0.22672  0.18562  Biso   1.000  C
  N3       1.0000 0.02612  0.27781  0.39992  Biso   1.000  N
  C5       1.0000 0.02376  0.16490  0.25939  Biso   1.000  C
  C6       1.0000 0.55769  0.06981  0.11963  Biso   1.000  C
  C7       1.0000 0.67877  0.20341  0.10747  Biso   1.000  C
  Br1      1.0000 0.89054  0.35667  0.24794  Biso   1.000  Br
  C8       1.0000 0.15336  0.30788  0.41580  Biso   1.000  C
  Br2      1.0000 0.93835  0.04255  0.15950  Biso   1.000  Br
  C9       1.0000 0.15613  0.20637  0.28228  Biso   1.000  C
  N4       1.0000 0.57320  0.12347  0.07480  Biso   1.000  N
  H4       1.0000 0.47982  0.01612  0.09770  Biso   1.000  H
  N5       1.0000 0.68625  0.26317  0.06399  Biso   1.000  N
  N6       1.0000 0.22160  0.27919  0.36049  Biso   1.000  N
  H5       1.0000 0.20083  0.35522  0.47311  Biso   1.000  H
  N7       1.0000 0.23013  0.16647  0.22787  Biso   1.000  N
  C10      1.0000 0.80460  0.31668  0.06123  Biso   1.000  C
  C11      1.0000 0.56959  0.26187  0.00997  Biso   1.000  C
  C12      1.0000 0.21437  0.16441  0.14709  Biso   1.000  C
  C13      1.0000 0.34140  0.14071  0.26389  Biso   1.000  C
  N8       1.0000 0.82091  0.41456  0.07969  Biso   1.000  N
  C14      1.0000 0.89478  0.26786  0.03428  Biso   1.000  C
  H6       1.0000 0.49472  0.22239  0.01769  Biso   1.000  H
  H7       1.0000 0.56562  0.33160  0.02618  Biso   1.000  H
  H8       1.0000 0.56950  0.23077  0.94958  Biso   1.000  H
  C15      1.0000 0.14688  0.22194  0.11982  Biso   1.000  C
  N9       1.0000 0.27843  0.10876  0.09860  Biso   1.000  N
  H9       1.0000 0.38442  0.11391  0.21951  Biso   1.000  H
  H10      1.0000 0.31234  0.08920  0.28350  Biso   1.000  H
  H11      1.0000 0.40170  0.20168  0.31251  Biso   1.000  H
  C16      1.0000 0.93216  0.46328  0.07557  Biso   1.000  C
  Br3      1.0000 0.84846  0.12440  0.97980  Biso   1.000  Br
  C17      1.0000 0.01273  0.32861  0.03827  Biso   1.000  C
  C18      1.0000 0.15688  0.22450  0.04361  Biso   1.000  C
  H12      1.0000 0.09687  0.25713  0.15211  Biso   1.000  H
  C19      1.0000 0.27571  0.11459  0.02540  Biso   1.000  C
  H13      1.0000 0.94286  0.53194  0.08522  Biso   1.000  H
  N10      1.0000 0.03027  0.42781  0.05981  Biso   1.000  N
  N11      1.0000 0.11169  0.29053  0.01492  Biso   1.000  N
  N12      1.0000 0.22017  0.16907  0.99408  Biso   1.000  N
  H14      1.0000 0.31927  0.07473  0.99042  Biso   1.000  H
  C20      1.0000 0.19675  0.34350  0.97987  Biso   1.000  C
  H15      1.0000 0.14534  0.34573  0.92951  Biso   1.000  H
  H16      1.0000 0.25938  0.30709  0.96321  Biso   1.000  H
  H17      1.0000 0.24222  0.41298  0.02393  Biso   1.000  H
  C21      1.0000 0.23203  0.82867  0.63088  Biso   1.000  C
  N13      1.0000 0.17327  0.82209  0.69770  Biso   1.000  N
  H18      1.0000 0.16461  0.81553  0.58000  Biso   1.000  H
  H19      1.0000 0.29157  0.89681  0.65261  Biso   1.000  H
  H20      1.0000 0.27891  0.77810  0.61537  Biso   1.000  H
  C22      1.0000 0.25471  0.83891  0.77597  Biso   1.000  C
  C23      1.0000 0.04087  0.79089  0.68027  Biso   1.000  C
  N14      1.0000 0.36176  0.91748  0.80877  Biso   1.000  N
  C24      1.0000 0.23247  0.77332  0.81437  Biso   1.000  C
  N15      1.0000 0.97387  0.72219  0.60013  Biso   1.000  N
  C25      1.0000 0.97620  0.83507  0.74060  Biso   1.000  C
  C26      1.0000 0.44230  0.93020  0.88042  Biso   1.000  C
  Br4      1.0000 0.10947  0.64340  0.75211  Biso   1.000  Br
  C27      1.0000 0.32121  0.79663  0.89251  Biso   1.000  C
  C28      1.0000 0.84661  0.69209  0.58418  Biso   1.000  C
  Br5      1.0000 0.06161  0.95742  0.84048  Biso   1.000  Br
  C29      1.0000 0.84392  0.79360  0.71770  Biso   1.000  C
  N16      1.0000 0.42676  0.87650  0.92518  Biso   1.000  N
  H21      1.0000 0.52017  0.98392  0.90229  Biso   1.000  H
  N17      1.0000 0.31371  0.73680  0.93599  Biso   1.000  N
  N18      1.0000 0.77836  0.72078  0.63949  Biso   1.000  N
  H22      1.0000 0.79924  0.64482  0.52688  Biso   1.000  H
  N19      1.0000 0.76993  0.83351  0.77211  Biso   1.000  N
  C30      1.0000 0.19539  0.68332  0.93882  Biso   1.000  C
  C31      1.0000 0.43037  0.73810  0.99002  Biso   1.000  C
  C32      1.0000 0.78559  0.83557  0.85289  Biso   1.000  C
  C33      1.0000 0.65857  0.85926  0.73610  Biso   1.000  C
  N20      1.0000 0.17906  0.58541  0.92030  Biso   1.000  N
  C34      1.0000 0.10518  0.73212  0.96570  Biso   1.000  C
  H23      1.0000 0.50533  0.77758  0.98230  Biso   1.000  H
  H24      1.0000 0.43443  0.66838  0.97381  Biso   1.000  H
  H25      1.0000 0.43047  0.76920  0.05041  Biso   1.000  H
  N21      1.0000 0.72162  0.89121  0.90139  Biso   1.000  N
  C35      1.0000 0.85313  0.77813  0.88023  Biso   1.000  C
  H26      1.0000 0.61554  0.88606  0.78047  Biso   1.000  H
  H27      1.0000 0.68771  0.91077  0.71648  Biso   1.000  H
  H28      1.0000 0.59826  0.79829  0.68747  Biso   1.000  H
  C36      1.0000 0.06780  0.53669  0.92441  Biso   1.000  C
  C37      1.0000 0.98734  0.67143  0.96172  Biso   1.000  C
  Br6      1.0000 0.15151  0.87558  0.02018  Biso   1.000  Br
  C38      1.0000 0.72426  0.88539  0.97458  Biso   1.000  C
  C39      1.0000 0.84308  0.77548  0.95638  Biso   1.000  C
  H29      1.0000 0.90311  0.74291  0.84788  Biso   1.000  H
  H30      1.0000 0.05724  0.46813  0.91483  Biso   1.000  H
  N22      1.0000 0.96969  0.57216  0.94017  Biso   1.000  N
  N23      1.0000 0.88832  0.70955  0.98513  Biso   1.000  N
  N24      1.0000 0.77979  0.83090  0.00590  Biso   1.000  N
  H31      1.0000 0.68074  0.92534  0.00963  Biso   1.000  H
  C40      1.0000 0.80323  0.65654  0.02012  Biso   1.000  C
  H32      1.0000 0.75777  0.58703  0.97612  Biso   1.000  H
  H33      1.0000 0.85473  0.65431  0.07047  Biso   1.000  H
  H34      1.0000 0.74059  0.69288  0.03677  Biso   1.000  H
