data_image0
_cell_length_a       12.318
_cell_length_b       12.44
_cell_length_c       18.656
_cell_angle_alpha    81.41
_cell_angle_beta     71.21
_cell_angle_gamma    88.92

_symmetry_space_group_name_H-M    "P 1"
_symmetry_int_tables_number       1

loop_
  _symmetry_equiv_pos_as_xyz
  'x, y, z'

loop_
  _atom_site_label
  _atom_site_occupancy
  _atom_site_fract_x
  _atom_site_fract_y
  _atom_site_fract_z
  _atom_site_thermal_displace_type
  _atom_site_B_iso_or_equiv
  _atom_site_type_symbol
  C1       1.0000 0.67613  0.42575  0.42662  Biso   1.000  C
  C2       1.0000 0.64839  0.40825  0.35502  Biso   1.000  C
  H1       1.0000 0.71689  0.36468  0.44180  Biso   1.000  H
  H2       1.0000 0.60626  0.43269  0.46723  Biso   1.000  H
  H3       1.0000 0.72296  0.49074  0.41562  Biso   1.000  H
  C3       1.0000 0.67481  0.31401  0.32220  Biso   1.000  C
  C4       1.0000 0.58815  0.48701  0.32300  Biso   1.000  C
  C5       1.0000 0.63895  0.29438  0.26200  Biso   1.000  C
  O1       1.0000 0.73481  0.23448  0.35141  Biso   1.000  O
  C6       1.0000 0.55513  0.47659  0.26079  Biso   1.000  C
  O2       1.0000 0.56457  0.57872  0.35828  Biso   1.000  O
  C7       1.0000 0.66016  0.18760  0.22952  Biso   1.000  C
  C8       1.0000 0.57999  0.37732  0.23152  Biso   1.000  C
  H4       1.0000 0.70380  0.17492  0.35622  Biso   1.000  H
  C9       1.0000 0.49486  0.56321  0.22288  Biso   1.000  C
  H5       1.0000 0.50586  0.60539  0.35279  Biso   1.000  H
  C10      1.0000 0.56160  0.10525  0.27002  Biso   1.000  C
  H6       1.0000 0.72447  0.15686  0.24499  Biso   1.000  H
  C11      1.0000 0.70253  0.19830  0.14423  Biso   1.000  C
  H7       1.0000 0.55628  0.36627  0.19051  Biso   1.000  H
  C12      1.0000 0.36414  0.55145  0.26148  Biso   1.000  C
  H8       1.0000 0.51702  0.63211  0.23450  Biso   1.000  H
  C13      1.0000 0.53034  0.57662  0.13730  Biso   1.000  C
  C14      1.0000 0.47112  0.09887  0.24172  Biso   1.000  C
  C15      1.0000 0.55738  0.03387  0.33503  Biso   1.000  C
  H9       1.0000 0.64106  0.20948  0.12138  Biso   1.000  H
  C16      1.0000 0.80931  0.26989  0.10030  Biso   1.000  C
  C17      1.0000 0.77196  0.09767  0.12350  Biso   1.000  C
  C18      1.0000 0.29845  0.48210  0.23891  Biso   1.000  C
  C19      1.0000 0.30624  0.60865  0.31968  Biso   1.000  C
  H10      1.0000 0.50142  0.51397  0.12281  Biso   1.000  H
  H11      1.0000 0.61342  0.57703  0.11708  Biso   1.000  H
  C20      1.0000 0.48867  0.67945  0.09990  Biso   1.000  C
  C21      1.0000 0.37977  0.02609  0.27322  Biso   1.000  C
  H12      1.0000 0.47239  0.14728  0.19830  Biso   1.000  H
  C22      1.0000 0.46935  0.95567  0.37043  Biso   1.000  C
  O3       1.0000 0.63999  0.03178  0.36980  Biso   1.000  O
  C23      1.0000 0.83896  0.28897  0.01380  Biso   1.000  C
  C24      1.0000 0.90196  0.20300  0.11301  Biso   1.000  C
  C25      1.0000 0.81600  0.11199  0.03632  Biso   1.000  C
  C26      1.0000 0.88395  0.04798  0.12802  Biso   1.000  C
  C27      1.0000 0.18191  0.46832  0.27082  Biso   1.000  C
  H13      1.0000 0.33590  0.44267  0.19979  Biso   1.000  H
  C28      1.0000 0.18803  0.59298  0.35891  Biso   1.000  C
  O4       1.0000 0.37061  0.67622  0.34419  Biso   1.000  O
  H14      1.0000 0.40512  0.67983  0.12321  Biso   1.000  H
  C29      1.0000 0.51416  0.68032  0.01432  Biso   1.000  C
  C30      1.0000 0.53781  0.78176  0.11582  Biso   1.000  C
  C31      1.0000 0.28297  0.02260  0.23931  Biso   1.000  C
  C32      1.0000 0.37999  0.95565  0.33761  Biso   1.000  C
  C33      1.0000 0.46683  0.87768  0.43922  Biso   1.000  C
  H15      1.0000 0.66760  0.09330  0.36373  Biso   1.000  H
  H16      1.0000 0.78164  0.33185  0.99983  Biso   1.000  H
  H17      1.0000 0.84201  0.21964  0.99593  Biso   1.000  H
  H18      1.0000 0.91249  0.32560  0.99112  Biso   1.000  H
  H19      1.0000 0.85970  0.04992  0.02022  Biso   1.000  H
  H20      1.0000 0.86408  0.17649  0.01678  Biso   1.000  H
  H21      1.0000 0.75241  0.11783  0.01701  Biso   1.000  H
  C34      1.0000 0.11198  0.39518  0.24080  Biso   1.000  C
  C35      1.0000 0.12645  0.52526  0.33320  Biso   1.000  C
  C36      1.0000 0.12954  0.65107  0.42530  Biso   1.000  C
  H22      1.0000 0.33751  0.73328  0.35141  Biso   1.000  H
  H23      1.0000 0.47726  0.61807  0.00619  Biso   1.000  H
  H24      1.0000 0.48581  0.74540  0.99284  Biso   1.000  H
  H25      1.0000 0.59558  0.67795  0.98980  Biso   1.000  H
  H26      1.0000 0.50869  0.84498  0.09251  Biso   1.000  H
  H27      1.0000 0.61996  0.78322  0.09480  Biso   1.000  H
  H28      1.0000 0.51554  0.78158  0.17012  Biso   1.000  H
  C37      1.0000 0.18756  0.09847  0.27500  Biso   1.000  C
  C38      1.0000 0.31887  0.03833  0.15231  Biso   1.000  C
  H29      1.0000 0.24898  0.94886  0.25661  Biso   1.000  H
  O5       1.0000 0.29318  0.87606  0.37570  Biso   1.000  O
  H30      1.0000 0.53343  0.89017  0.45331  Biso   1.000  H
  H31      1.0000 0.46668  0.80463  0.42822  Biso   1.000  H
  H32      1.0000 0.39900  0.88734  0.48069  Biso   1.000  H
  C39      1.0000 0.10704  0.27858  0.27643  Biso   1.000  C
  H33      1.0000 0.03293  0.41987  0.25759  Biso   1.000  H
  C40      1.0000 0.15018  0.41238  0.15483  Biso   1.000  C
  O6       1.0000 0.01113  0.50606  0.36831  Biso   1.000  O
  H34      1.0000 0.04936  0.63094  0.44449  Biso   1.000  H
  H35      1.0000 0.13880  0.72818  0.40881  Biso   1.000  H
  H36      1.0000 0.16302  0.63117  0.46511  Biso   1.000  H
  C41      1.0000 0.19167  0.20588  0.24659  Biso   1.000  C
  C42      1.0000 0.09153  0.05817  0.33829  Biso   1.000  C
  H37      1.0000 0.34209  0.11389  0.13220  Biso   1.000  H
  C43      1.0000 0.21467  0.00460  0.12109  Biso   1.000  C
  H38      1.0000 0.38462  0.99427  0.13289  Biso   1.000  H
  H39      1.0000 0.23155  0.89899  0.37301  Biso   1.000  H
  C44      1.0000 0.01477  0.23621  0.34110  Biso   1.000  C
  H40      1.0000 0.22634  0.38313  0.13381  Biso   1.000  H
  C45      1.0000 0.06117  0.36176  0.12510  Biso   1.000  C
  C46      1.0000 0.14096  0.52341  0.11032  Biso   1.000  C
  H41      1.0000 0.99487  0.44276  0.36768  Biso   1.000  H
  H42      1.0000 0.25458  0.23280  0.20478  Biso   1.000  H
  C47      1.0000 0.00468  0.12456  0.37129  Biso   1.000  C
  O7       1.0000 0.08617  0.94883  0.36819  Biso   1.000  O
  H43      1.0000 0.14611  0.04398  0.14509  Biso   1.000  H
  C48      1.0000 0.25202  0.04003  0.03483  Biso   1.000  C
  C49      1.0000 0.18700  0.88279  0.14429  Biso   1.000  C
  O8       1.0000 0.92774  0.29896  0.37610  Biso   1.000  O
  C50      1.0000 0.11800  0.36598  0.03889  Biso   1.000  C
  H44      1.0000 0.04640  0.28537  0.14870  Biso   1.000  H
  C51      1.0000 0.94727  0.41998  0.14263  Biso   1.000  C
  H45      1.0000 0.17749  0.57541  0.13060  Biso   1.000  H
  C52      1.0000 0.01397  0.54901  0.13598  Biso   1.000  C
  C53      1.0000 0.20693  0.53603  0.02469  Biso   1.000  C
  C54      1.0000 0.90389  0.08481  0.44100  Biso   1.000  C
  H46      1.0000 0.14964  0.92995  0.36963  Biso   1.000  H
  H47      1.0000 0.19196  0.02038  0.01592  Biso   1.000  H
  H48      1.0000 0.32051  0.00378  0.01083  Biso   1.000  H
  H49      1.0000 0.26550  0.11704  0.02331  Biso   1.000  H
  H50      1.0000 0.12599  0.86355  0.12682  Biso   1.000  H
  H51      1.0000 0.16447  0.86476  0.19899  Biso   1.000  H
  H52      1.0000 0.25408  0.84315  0.12149  Biso   1.000  H
  H53      1.0000 0.95305  0.36037  0.37358  Biso   1.000  H
  H54      1.0000 0.06561  0.33566  0.01799  Biso   1.000  H
  H55      1.0000 0.18646  0.32572  0.02910  Biso   1.000  H
  H56      1.0000 0.13604  0.44068  0.01529  Biso   1.000  H
  H57      1.0000 0.28632  0.52215  0.01741  Biso   1.000  H
  H58      1.0000 0.19973  0.60899  0.00132  Biso   1.000  H
  H59      1.0000 0.17607  0.48549  0.00172  Biso   1.000  H
  H60      1.0000 0.85441  0.14405  0.45492  Biso   1.000  H
  H61      1.0000 0.93101  0.05631  0.48270  Biso   1.000  H
  H62      1.0000 0.86224  0.02859  0.42988  Biso   1.000  H
  C55      1.0000 0.32372  0.57420  0.57343  Biso   1.000  C
  C56      1.0000 0.35154  0.59169  0.64503  Biso   1.000  C
  H63      1.0000 0.28307  0.63529  0.55819  Biso   1.000  H
  H64      1.0000 0.39367  0.56725  0.53282  Biso   1.000  H
  H65      1.0000 0.27697  0.50921  0.58443  Biso   1.000  H
  C57      1.0000 0.32515  0.68596  0.67779  Biso   1.000  C
  C58      1.0000 0.41172  0.51295  0.67699  Biso   1.000  C
  O9       1.0000 0.26512  0.76547  0.64864  Biso   1.000  O
  C59      1.0000 0.36093  0.70558  0.73799  Biso   1.000  C
  O10      1.0000 0.43539  0.42124  0.64170  Biso   1.000  O
  C60      1.0000 0.44475  0.52337  0.73919  Biso   1.000  C
  H66      1.0000 0.29613  0.82503  0.64382  Biso   1.000  H
  C61      1.0000 0.41994  0.62263  0.76852  Biso   1.000  C
  C62      1.0000 0.33969  0.81235  0.77053  Biso   1.000  C
  H67      1.0000 0.49410  0.39457  0.64720  Biso   1.000  H
  C63      1.0000 0.50502  0.43675  0.77711  Biso   1.000  C
  H68      1.0000 0.44365  0.63368  0.80953  Biso   1.000  H
  C64      1.0000 0.43833  0.89470  0.73003  Biso   1.000  C
  H69      1.0000 0.27540  0.84310  0.75500  Biso   1.000  H
  C65      1.0000 0.29732  0.80165  0.85582  Biso   1.000  C
  C66      1.0000 0.63574  0.44851  0.73851  Biso   1.000  C
  H70      1.0000 0.48286  0.36785  0.76549  Biso   1.000  H
  C67      1.0000 0.46954  0.42334  0.86269  Biso   1.000  C
  C68      1.0000 0.44255  0.96608  0.66502  Biso   1.000  C
  C69      1.0000 0.52881  0.90108  0.75833  Biso   1.000  C
  H71      1.0000 0.35882  0.79048  0.87861  Biso   1.000  H
  C70      1.0000 0.19065  0.73007  0.89969  Biso   1.000  C
  C71      1.0000 0.22792  0.90229  0.87649  Biso   1.000  C
  C72      1.0000 0.69363  0.39131  0.68031  Biso   1.000  C
  C73      1.0000 0.70148  0.51785  0.76113  Biso   1.000  C
  H72      1.0000 0.49843  0.48598  0.87724  Biso   1.000  H
  H73      1.0000 0.38645  0.42293  0.88291  Biso   1.000  H
  C74      1.0000 0.51129  0.32051  0.90009  Biso   1.000  C
  O11      1.0000 0.35989  0.96818  0.63019  Biso   1.000  O
  C75      1.0000 0.53058  0.04428  0.62962  Biso   1.000  C
  H74      1.0000 0.52757  0.85268  0.80169  Biso   1.000  H
  C76      1.0000 0.62008  0.97386  0.72682  Biso   1.000  C
  C77      1.0000 0.16089  0.71098  0.98624  Biso   1.000  C
  C78      1.0000 0.09789  0.79695  0.88703  Biso   1.000  C
  C79      1.0000 0.18393  0.88796  0.96373  Biso   1.000  C
  C80      1.0000 0.11590  0.95197  0.87203  Biso   1.000  C
  O12      1.0000 0.62927  0.32374  0.65580  Biso   1.000  O
  C81      1.0000 0.81182  0.40697  0.64113  Biso   1.000  C
  C82      1.0000 0.81793  0.53171  0.72923  Biso   1.000  C
  H75      1.0000 0.66406  0.55729  0.80020  Biso   1.000  H
  H76      1.0000 0.59473  0.32020  0.87684  Biso   1.000  H
  C83      1.0000 0.48577  0.31963  0.98573  Biso   1.000  C
  C84      1.0000 0.46204  0.21819  0.88423  Biso   1.000  C
  H77      1.0000 0.33233  0.90664  0.63632  Biso   1.000  H
  C85      1.0000 0.61997  0.04432  0.66238  Biso   1.000  C
  C86      1.0000 0.53302  0.12227  0.56083  Biso   1.000  C
  C87      1.0000 0.71688  0.97735  0.76073  Biso   1.000  C
  H78      1.0000 0.21824  0.66811  0.00016  Biso   1.000  H
  H79      1.0000 0.15792  0.78031  0.00411  Biso   1.000  H
  H80      1.0000 0.08747  0.67436  0.00887  Biso   1.000  H
  H81      1.0000 0.14023  0.95003  0.97983  Biso   1.000  H
  H82      1.0000 0.13580  0.82347  0.98321  Biso   1.000  H
  H83      1.0000 0.24752  0.88212  0.98303  Biso   1.000  H
  H84      1.0000 0.66234  0.26667  0.64864  Biso   1.000  H
  C88      1.0000 0.87343  0.47470  0.66679  Biso   1.000  C
  C89      1.0000 0.87034  0.34889  0.57469  Biso   1.000  C
  C90      1.0000 0.88798  0.60478  0.75919  Biso   1.000  C
  H85      1.0000 0.52270  0.38189  0.99380  Biso   1.000  H
  H86      1.0000 0.51404  0.25455  0.00721  Biso   1.000  H
  H87      1.0000 0.40438  0.32201  0.01019  Biso   1.000  H
  H88      1.0000 0.49116  0.15497  0.90754  Biso   1.000  H
  H89      1.0000 0.38000  0.21674  0.90519  Biso   1.000  H
  H90      1.0000 0.48439  0.21837  0.82993  Biso   1.000  H
  O13      1.0000 0.70677  0.12390  0.62429  Biso   1.000  O
  H91      1.0000 0.46642  0.10978  0.54674  Biso   1.000  H
  H92      1.0000 0.53325  0.19532  0.57182  Biso   1.000  H
  H93      1.0000 0.60096  0.11262  0.51930  Biso   1.000  H
  C91      1.0000 0.81231  0.90149  0.72499  Biso   1.000  C
  C92      1.0000 0.68098  0.96170  0.84774  Biso   1.000  C
  H94      1.0000 0.75095  0.05109  0.74343  Biso   1.000  H
  O14      1.0000 0.98874  0.49390  0.63168  Biso   1.000  O
  H95      1.0000 0.95059  0.36902  0.55550  Biso   1.000  H
  H96      1.0000 0.86108  0.27178  0.59118  Biso   1.000  H
  H97      1.0000 0.83683  0.36877  0.53494  Biso   1.000  H
  C93      1.0000 0.89281  0.72137  0.72361  Biso   1.000  C
  H98      1.0000 0.96694  0.58009  0.74240  Biso   1.000  H
  C94      1.0000 0.84975  0.58757  0.84522  Biso   1.000  C
  H99      1.0000 0.76833  0.10097  0.62698  Biso   1.000  H
  C95      1.0000 0.90842  0.94179  0.66170  Biso   1.000  C
  C96      1.0000 0.80821  0.79408  0.75340  Biso   1.000  C
  H100     1.0000 0.65787  0.88607  0.86779  Biso   1.000  H
  C97      1.0000 0.78521  0.99536  0.87890  Biso   1.000  C
  H101     1.0000 0.61525  0.00569  0.86710  Biso   1.000  H
  H102     1.0000 0.00501  0.55720  0.63231  Biso   1.000  H
  C98      1.0000 0.98511  0.76375  0.65889  Biso   1.000  C
  H103     1.0000 0.77353  0.61683  0.86618  Biso   1.000  H
  C99      1.0000 0.93879  0.63820  0.87489  Biso   1.000  C
  C100     1.0000 0.85897  0.47654  0.88973  Biso   1.000  C
  C101     1.0000 0.99519  0.87540  0.62870  Biso   1.000  C
  O15      1.0000 0.91379  0.05113  0.63180  Biso   1.000  O
  H104     1.0000 0.74530  0.76716  0.79521  Biso   1.000  H
  H105     1.0000 0.85385  0.95598  0.85490  Biso   1.000  H
  C102     1.0000 0.74791  0.95992  0.96522  Biso   1.000  C
  C103     1.0000 0.81296  0.11717  0.85570  Biso   1.000  C
  O16      1.0000 0.07214  0.70100  0.62389  Biso   1.000  O
  C104     1.0000 0.88196  0.63398  0.96110  Biso   1.000  C
  H106     1.0000 0.95356  0.71459  0.85129  Biso   1.000  H
  C105     1.0000 0.05266  0.57997  0.85742  Biso   1.000  C
  H107     1.0000 0.82247  0.42455  0.86939  Biso   1.000  H
  C106     1.0000 0.98598  0.45095  0.86401  Biso   1.000  C
  C107     1.0000 0.79295  0.46393  0.97530  Biso   1.000  C
  C108     1.0000 0.09599  0.91515  0.55899  Biso   1.000  C
  H108     1.0000 0.85029  0.07000  0.63042  Biso   1.000  H
  H109     1.0000 0.80789  0.97957  0.98412  Biso   1.000  H
  H110     1.0000 0.67942  0.99617  0.98922  Biso   1.000  H
  H111     1.0000 0.73443  0.88299  0.97673  Biso   1.000  H
  H112     1.0000 0.87394  0.13639  0.87323  Biso   1.000  H
  H113     1.0000 0.83549  0.13520  0.80100  Biso   1.000  H
  H114     1.0000 0.74588  0.15681  0.87850  Biso   1.000  H
  H115     1.0000 0.04683  0.63960  0.62641  Biso   1.000  H
  H116     1.0000 0.93435  0.66430  0.98200  Biso   1.000  H
  H117     1.0000 0.81342  0.67424  0.97089  Biso   1.000  H
  H118     1.0000 0.86384  0.55928  0.98470  Biso   1.000  H
  H119     1.0000 0.71353  0.47779  0.98263  Biso   1.000  H
  H120     1.0000 0.80012  0.39096  0.99873  Biso   1.000  H
  H121     1.0000 0.82386  0.51446  0.99833  Biso   1.000  H
  H122     1.0000 0.14552  0.85590  0.54513  Biso   1.000  H
  H123     1.0000 0.06895  0.94365  0.51729  Biso   1.000  H
  H124     1.0000 0.13772  0.97137  0.57011  Biso   1.000  H
