data_image0
_cell_length_a       12.207
_cell_length_b       20.655
_cell_length_c       21.404
_cell_angle_alpha    68.82
_cell_angle_beta     88.87
_cell_angle_gamma    80.17

_symmetry_space_group_name_H-M    "P 1"
_symmetry_int_tables_number       1

loop_
  _symmetry_equiv_pos_as_xyz
  'x, y, z'

loop_
  _atom_site_label
  _atom_site_occupancy
  _atom_site_fract_x
  _atom_site_fract_y
  _atom_site_fract_z
  _atom_site_thermal_displace_type
  _atom_site_B_iso_or_equiv
  _atom_site_type_symbol
  C1       1.0000 0.56732  0.40494  0.59893  Biso   1.000  C
  O1       1.0000 0.68596  0.39533  0.60028  Biso   1.000  O
  H1       1.0000 0.53852  0.42672  0.55323  Biso   1.000  H
  H2       1.0000 0.53913  0.43465  0.62340  Biso   1.000  H
  H3       1.0000 0.54437  0.36002  0.61914  Biso   1.000  H
  C2       1.0000 0.73537  0.45514  0.57901  Biso   1.000  C
  C3       1.0000 0.67630  0.52342  0.55103  Biso   1.000  C
  C4       1.0000 0.85037  0.44420  0.58553  Biso   1.000  C
  C5       1.0000 0.72761  0.58154  0.53152  Biso   1.000  C
  H4       1.0000 0.59931  0.53006  0.54511  Biso   1.000  H
  C6       1.0000 0.91736  0.36971  0.61382  Biso   1.000  C
  C7       1.0000 0.90226  0.50201  0.56592  Biso   1.000  C
  C8       1.0000 0.84193  0.57040  0.54034  Biso   1.000  C
  C9       1.0000 0.65912  0.65523  0.50363  Biso   1.000  C
  C10      1.0000 0.93154  0.34215  0.68971  Biso   1.000  C
  H5       1.0000 0.88008  0.33843  0.60053  Biso   1.000  H
  H6       1.0000 0.99014  0.36931  0.59481  Biso   1.000  H
  H7       1.0000 0.97941  0.49533  0.57004  Biso   1.000  H
  O2       1.0000 0.89210  0.63014  0.52133  Biso   1.000  O
  H8       1.0000 0.70362  0.68684  0.47363  Biso   1.000  H
  H9       1.0000 0.59515  0.65462  0.47770  Biso   1.000  H
  C11      1.0000 0.62003  0.68231  0.55725  Biso   1.000  C
  C12      1.0000 0.85802  0.30323  0.72934  Biso   1.000  C
  C13      1.0000 0.01953  0.35634  0.72021  Biso   1.000  C
  C14      1.0000 0.99999  0.62212  0.54812  Biso   1.000  C
  C15      1.0000 0.51624  0.66984  0.58564  Biso   1.000  C
  C16      1.0000 0.68373  0.71881  0.58042  Biso   1.000  C
  H10      1.0000 0.79967  0.29294  0.70932  Biso   1.000  H
  C17      1.0000 0.86947  0.27911  0.79875  Biso   1.000  C
  O3       1.0000 0.09059  0.39507  0.67747  Biso   1.000  O
  C18      1.0000 0.03135  0.33202  0.79003  Biso   1.000  C
  C19      1.0000 0.03001  0.69444  0.53733  Biso   1.000  C
  H11      1.0000 0.05317  0.59745  0.52640  Biso   1.000  H
  H12      1.0000 0.00394  0.59424  0.59562  Biso   1.000  H
  O4       1.0000 0.45468  0.63426  0.55930  Biso   1.000  O
  C20      1.0000 0.48266  0.69199  0.63725  Biso   1.000  C
  H13      1.0000 0.75078  0.72835  0.56111  Biso   1.000  H
  C21      1.0000 0.64883  0.74102  0.63173  Biso   1.000  C
  O5       1.0000 0.79889  0.23988  0.84099  Biso   1.000  O
  C22      1.0000 0.95629  0.29381  0.83025  Biso   1.000  C
  C23      1.0000 0.18947  0.40321  0.70441  Biso   1.000  C
  H14      1.0000 0.09044  0.34172  0.81004  Biso   1.000  H
  H15      1.0000 0.96312  0.72844  0.53182  Biso   1.000  H
  H16      1.0000 0.07240  0.70896  0.49791  Biso   1.000  H
  H17      1.0000 0.07349  0.69135  0.57550  Biso   1.000  H
  C24      1.0000 0.34339  0.62593  0.58032  Biso   1.000  C
  H18      1.0000 0.41496  0.68332  0.65621  Biso   1.000  H
  C25      1.0000 0.54810  0.72742  0.66142  Biso   1.000  C
  O6       1.0000 0.70985  0.77751  0.65661  Biso   1.000  O
  C26      1.0000 0.70418  0.22778  0.81235  Biso   1.000  C
  C27      1.0000 0.96229  0.27537  0.90564  Biso   1.000  C
  C28      1.0000 0.25116  0.44040  0.64462  Biso   1.000  C
  H19      1.0000 0.23266  0.35769  0.73094  Biso   1.000  H
  H20      1.0000 0.17307  0.43108  0.73255  Biso   1.000  H
  H21      1.0000 0.31512  0.59722  0.55990  Biso   1.000  H
  H22      1.0000 0.29642  0.67133  0.56683  Biso   1.000  H
  H23      1.0000 0.34461  0.60351  0.62822  Biso   1.000  H
  C29      1.0000 0.51255  0.74610  0.72081  Biso   1.000  C
  C30      1.0000 0.81011  0.78771  0.62591  Biso   1.000  C
  H24      1.0000 0.72781  0.20091  0.78456  Biso   1.000  H
  H25      1.0000 0.66024  0.27219  0.78561  Biso   1.000  H
  H26      1.0000 0.66056  0.20217  0.84736  Biso   1.000  H
  H27      1.0000 0.93199  0.23269  0.92786  Biso   1.000  H
  C31      1.0000 0.89664  0.33550  0.92304  Biso   1.000  C
  H28      1.0000 0.03935  0.26677  0.92134  Biso   1.000  H
  H29      1.0000 0.20056  0.47815  0.61282  Biso   1.000  H
  H30      1.0000 0.28376  0.40771  0.62421  Biso   1.000  H
  H31      1.0000 0.30878  0.45932  0.65861  Biso   1.000  H
  H32      1.0000 0.43190  0.75534  0.72081  Biso   1.000  H
  H33      1.0000 0.53931  0.78850  0.71825  Biso   1.000  H
  C32      1.0000 0.55805  0.68678  0.78426  Biso   1.000  C
  C33      1.0000 0.85720  0.82272  0.65144  Biso   1.000  C
  H34      1.0000 0.85723  0.74261  0.63283  Biso   1.000  H
  H35      1.0000 0.79670  0.81324  0.57801  Biso   1.000  H
  C34      1.0000 0.94628  0.39067  0.92655  Biso   1.000  C
  C35      1.0000 0.78289  0.34090  0.93142  Biso   1.000  C
  C36      1.0000 0.66253  0.68179  0.80863  Biso   1.000  C
  C37      1.0000 0.49520  0.63358  0.81932  Biso   1.000  C
  H36      1.0000 0.93552  0.81593  0.64402  Biso   1.000  H
  H37      1.0000 0.84615  0.80711  0.69874  Biso   1.000  H
  H38      1.0000 0.82600  0.87193  0.63093  Biso   1.000  H
  C38      1.0000 0.88327  0.44611  0.94015  Biso   1.000  C
  O7       1.0000 0.05892  0.38312  0.91622  Biso   1.000  O
  C39      1.0000 0.71803  0.39707  0.94476  Biso   1.000  C
  H39      1.0000 0.74782  0.30559  0.92816  Biso   1.000  H
  C40      1.0000 0.71147  0.62740  0.86406  Biso   1.000  C
  H40      1.0000 0.70276  0.71730  0.78641  Biso   1.000  H
  O8       1.0000 0.39377  0.64010  0.79364  Biso   1.000  O
  C41      1.0000 0.54671  0.57918  0.87645  Biso   1.000  C
  C42      1.0000 0.76977  0.45148  0.94832  Biso   1.000  C
  H41      1.0000 0.91875  0.48106  0.94396  Biso   1.000  H
  C43      1.0000 0.11255  0.43890  0.91773  Biso   1.000  C
  O9       1.0000 0.60710  0.40438  0.95263  Biso   1.000  O
  O10      1.0000 0.81766  0.62000  0.88974  Biso   1.000  O
  C44      1.0000 0.64956  0.57330  0.90072  Biso   1.000  C
  C45      1.0000 0.33164  0.58547  0.82473  Biso   1.000  C
  H42      1.0000 0.50621  0.54421  0.89942  Biso   1.000  H
  C46      1.0000 0.70260  0.51290  0.96352  Biso   1.000  C
  H43      1.0000 0.07270  0.48318  0.88773  Biso   1.000  H
  H44      1.0000 0.18748  0.43187  0.90383  Biso   1.000  H
  H45      1.0000 0.11358  0.43905  0.96247  Biso   1.000  H
  C47      1.0000 0.55399  0.35277  0.94396  Biso   1.000  C
  C48      1.0000 0.88605  0.66811  0.85062  Biso   1.000  C
  H46      1.0000 0.25949  0.59770  0.80251  Biso   1.000  H
  H47      1.0000 0.32354  0.57987  0.87103  Biso   1.000  H
  H48      1.0000 0.36996  0.54222  0.82183  Biso   1.000  H
  H49      1.0000 0.75087  0.53050  0.98664  Biso   1.000  H
  H50      1.0000 0.64439  0.49585  0.99346  Biso   1.000  H
  C49      1.0000 0.44374  0.37058  0.95354  Biso   1.000  C
  H51      1.0000 0.56420  0.35201  0.89912  Biso   1.000  H
  H52      1.0000 0.58443  0.30647  0.97626  Biso   1.000  H
  H53      1.0000 0.85143  0.71609  0.84425  Biso   1.000  H
  H54      1.0000 0.89483  0.66421  0.80693  Biso   1.000  H
  C50      1.0000 0.99358  0.65159  0.88522  Biso   1.000  C
  H55      1.0000 0.41358  0.41497  0.91953  Biso   1.000  H
  H56      1.0000 0.43529  0.37420  0.99692  Biso   1.000  H
  H57      1.0000 0.40474  0.33488  0.95103  Biso   1.000  H
  H58      1.0000 0.98406  0.65376  0.92906  Biso   1.000  H
  H59      1.0000 0.03897  0.68491  0.86015  Biso   1.000  H
  H60      1.0000 0.02905  0.60487  0.88934  Biso   1.000  H
  C51      1.0000 0.43268  0.59495  0.40111  Biso   1.000  C
  O11      1.0000 0.31411  0.60456  0.39975  Biso   1.000  O
  H61      1.0000 0.46147  0.57317  0.44680  Biso   1.000  H
  H62      1.0000 0.46087  0.56524  0.37663  Biso   1.000  H
  H63      1.0000 0.45571  0.63987  0.38089  Biso   1.000  H
  C52      1.0000 0.26471  0.54474  0.42102  Biso   1.000  C
  C53      1.0000 0.32369  0.47646  0.44901  Biso   1.000  C
  C54      1.0000 0.14972  0.55563  0.41450  Biso   1.000  C
  C55      1.0000 0.27238  0.41835  0.46852  Biso   1.000  C
  H64      1.0000 0.40069  0.46983  0.45493  Biso   1.000  H
  C56      1.0000 0.09783  0.49783  0.43411  Biso   1.000  C
  C57      1.0000 0.08264  0.63017  0.38621  Biso   1.000  C
  C58      1.0000 0.34096  0.34465  0.49641  Biso   1.000  C
  C59      1.0000 0.15816  0.42942  0.45974  Biso   1.000  C
  H65      1.0000 0.02058  0.50456  0.43000  Biso   1.000  H
  C60      1.0000 0.06845  0.65774  0.31032  Biso   1.000  C
  H66      1.0000 0.12000  0.66145  0.39950  Biso   1.000  H
  H67      1.0000 0.00987  0.63052  0.40522  Biso   1.000  H
  C61      1.0000 0.38005  0.31755  0.44284  Biso   1.000  C
  H68      1.0000 0.29646  0.31305  0.52640  Biso   1.000  H
  H69      1.0000 0.40495  0.34521  0.52234  Biso   1.000  H
  O12      1.0000 0.10790  0.36974  0.47870  Biso   1.000  O
  C62      1.0000 0.14206  0.69666  0.27070  Biso   1.000  C
  C63      1.0000 0.98046  0.64354  0.27983  Biso   1.000  C
  C64      1.0000 0.48384  0.33004  0.41440  Biso   1.000  C
  C65      1.0000 0.31637  0.28103  0.41961  Biso   1.000  C
  C66      1.0000 0.00001  0.37777  0.45192  Biso   1.000  C
  C67      1.0000 0.13053  0.72075  0.20133  Biso   1.000  C
  H70      1.0000 0.20041  0.70695  0.29071  Biso   1.000  H
  C68      1.0000 0.96865  0.66786  0.21001  Biso   1.000  C
  O13      1.0000 0.90948  0.60481  0.32256  Biso   1.000  O
  C69      1.0000 0.51744  0.30783  0.36284  Biso   1.000  C
  O14      1.0000 0.54531  0.36563  0.44073  Biso   1.000  O
  C70      1.0000 0.35125  0.25886  0.36830  Biso   1.000  C
  H71      1.0000 0.24922  0.27153  0.43893  Biso   1.000  H
  C71      1.0000 0.97007  0.30545  0.46270  Biso   1.000  C
  H72      1.0000 0.94683  0.40244  0.47363  Biso   1.000  H
  H73      1.0000 0.99614  0.40564  0.40442  Biso   1.000  H
  C72      1.0000 0.04371  0.70606  0.16983  Biso   1.000  C
  O15      1.0000 0.20110  0.76000  0.15905  Biso   1.000  O
  H74      1.0000 0.90955  0.65816  0.19000  Biso   1.000  H
  C73      1.0000 0.81061  0.59668  0.29563  Biso   1.000  C
  C74      1.0000 0.45189  0.27247  0.33861  Biso   1.000  C
  H75      1.0000 0.58512  0.31656  0.34383  Biso   1.000  H
  C75      1.0000 0.65660  0.37395  0.41972  Biso   1.000  C
  O16      1.0000 0.29023  0.22238  0.34343  Biso   1.000  O
  H76      1.0000 0.03696  0.27145  0.46822  Biso   1.000  H
  H77      1.0000 0.92768  0.29092  0.50212  Biso   1.000  H
  H78      1.0000 0.92658  0.30853  0.42453  Biso   1.000  H
  C76      1.0000 0.03772  0.72446  0.09440  Biso   1.000  C
  C77      1.0000 0.29583  0.77205  0.18769  Biso   1.000  C
  C78      1.0000 0.74893  0.55944  0.35541  Biso   1.000  C
  H79      1.0000 0.76733  0.64219  0.26909  Biso   1.000  H
  H80      1.0000 0.82702  0.56876  0.26749  Biso   1.000  H
  C79      1.0000 0.48752  0.25378  0.27922  Biso   1.000  C
  H81      1.0000 0.68496  0.40266  0.44013  Biso   1.000  H
  H82      1.0000 0.70366  0.32855  0.43321  Biso   1.000  H
  H83      1.0000 0.65540  0.39633  0.37182  Biso   1.000  H
  C80      1.0000 0.18996  0.21217  0.37412  Biso   1.000  C
  C81      1.0000 0.10344  0.66438  0.07699  Biso   1.000  C
  H84      1.0000 0.06801  0.76718  0.07223  Biso   1.000  H
  H85      1.0000 0.96074  0.73306  0.07870  Biso   1.000  H
  H86      1.0000 0.27227  0.79896  0.21553  Biso   1.000  H
  H87      1.0000 0.33985  0.72764  0.21442  Biso   1.000  H
  H88      1.0000 0.33954  0.79765  0.15273  Biso   1.000  H
  H89      1.0000 0.79952  0.52174  0.38721  Biso   1.000  H
  H90      1.0000 0.71634  0.59213  0.37583  Biso   1.000  H
  H91      1.0000 0.69130  0.54056  0.34142  Biso   1.000  H
  C82      1.0000 0.44203  0.31309  0.21583  Biso   1.000  C
  H92      1.0000 0.56810  0.24455  0.27922  Biso   1.000  H
  H93      1.0000 0.46069  0.21137  0.28183  Biso   1.000  H
  C83      1.0000 0.14280  0.17716  0.34859  Biso   1.000  C
  H94      1.0000 0.14285  0.25727  0.36720  Biso   1.000  H
  H95      1.0000 0.20338  0.18665  0.42202  Biso   1.000  H
  C84      1.0000 0.05373  0.60917  0.07348  Biso   1.000  C
  C85      1.0000 0.21711  0.65898  0.06861  Biso   1.000  C
  C86      1.0000 0.33747  0.31810  0.19140  Biso   1.000  C
  C87      1.0000 0.50489  0.36625  0.18072  Biso   1.000  C
  H96      1.0000 0.06456  0.18396  0.35602  Biso   1.000  H
  H97      1.0000 0.15393  0.19278  0.30129  Biso   1.000  H
  H98      1.0000 0.17408  0.12795  0.36911  Biso   1.000  H
  C88      1.0000 0.11673  0.55378  0.05989  Biso   1.000  C
  O17      1.0000 0.94116  0.61677  0.08381  Biso   1.000  O
  C89      1.0000 0.28205  0.60279  0.05532  Biso   1.000  C
  H99      1.0000 0.25226  0.69428  0.07193  Biso   1.000  H
  C90      1.0000 0.28862  0.37247  0.13603  Biso   1.000  C
  H100     1.0000 0.29732  0.28258  0.21362  Biso   1.000  H
  C91      1.0000 0.45337  0.42070  0.12359  Biso   1.000  C
  O18      1.0000 0.60631  0.35978  0.20640  Biso   1.000  O
  C92      1.0000 0.23022  0.54840  0.05171  Biso   1.000  C
  H101     1.0000 0.08135  0.51876  0.05613  Biso   1.000  H
  C93      1.0000 0.88744  0.56098  0.08231  Biso   1.000  C
  O19      1.0000 0.39298  0.59550  0.04740  Biso   1.000  O
  O20      1.0000 0.18234  0.37989  0.11030  Biso   1.000  O
  C94      1.0000 0.35044  0.42659  0.09931  Biso   1.000  C
  H102     1.0000 0.49387  0.45567  0.10062  Biso   1.000  H
  C95      1.0000 0.66837  0.41436  0.17530  Biso   1.000  C
  C96      1.0000 0.29748  0.48699  0.03651  Biso   1.000  C
  H103     1.0000 0.92738  0.51670  0.11230  Biso   1.000  H
  H104     1.0000 0.81253  0.56796  0.09620  Biso   1.000  H
  H105     1.0000 0.88643  0.56076  0.03762  Biso   1.000  H
  C97      1.0000 0.44601  0.64710  0.05613  Biso   1.000  C
  C98      1.0000 0.11395  0.33178  0.14942  Biso   1.000  C
  H106     1.0000 0.74059  0.40219  0.19752  Biso   1.000  H
  H107     1.0000 0.67647  0.41996  0.12900  Biso   1.000  H
  H108     1.0000 0.63012  0.45767  0.17821  Biso   1.000  H
  H109     1.0000 0.24913  0.46939  0.01339  Biso   1.000  H
  H110     1.0000 0.35562  0.50396  0.00662  Biso   1.000  H
  C99      1.0000 0.55634  0.62931  0.04650  Biso   1.000  C
  H111     1.0000 0.43588  0.64787  0.10092  Biso   1.000  H
  H112     1.0000 0.41565  0.69339  0.02382  Biso   1.000  H
  H113     1.0000 0.14856  0.28379  0.15579  Biso   1.000  H
  H114     1.0000 0.10517  0.33567  0.19311  Biso   1.000  H
  C100     1.0000 0.00650  0.34829  0.11481  Biso   1.000  C
  H115     1.0000 0.58643  0.58487  0.08050  Biso   1.000  H
  H116     1.0000 0.56470  0.62569  0.00311  Biso   1.000  H
  H117     1.0000 0.59534  0.66500  0.04900  Biso   1.000  H
  H118     1.0000 0.01594  0.34610  0.07102  Biso   1.000  H
  H119     1.0000 0.96111  0.31498  0.13989  Biso   1.000  H
  H120     1.0000 0.97096  0.39497  0.11070  Biso   1.000  H
  O21      1.0000 0.75484  0.79049  0.37929  Biso   1.000  O
  C101     1.0000 0.75968  0.84045  0.40723  Biso   1.000  C
  C102     1.0000 0.84929  0.76824  0.34970  Biso   1.000  C
  C103     1.0000 0.65817  0.87242  0.42232  Biso   1.000  C
  C104     1.0000 0.85734  0.85824  0.42162  Biso   1.000  C
  H121     1.0000 0.86798  0.80773  0.31333  Biso   1.000  H
  H122     1.0000 0.83462  0.73314  0.33289  Biso   1.000  H
  H123     1.0000 0.91021  0.74857  0.38240  Biso   1.000  H
  C105     1.0000 0.54954  0.85012  0.40983  Biso   1.000  C
  C106     1.0000 0.65835  0.92426  0.44830  Biso   1.000  C
  C107     1.0000 0.85847  0.91013  0.44825  Biso   1.000  C
  H124     1.0000 0.92466  0.83467  0.41309  Biso   1.000  H
  C108     1.0000 0.50849  0.88146  0.33771  Biso   1.000  C
  H125     1.0000 0.56131  0.79912  0.42423  Biso   1.000  H
  H126     1.0000 0.49275  0.86424  0.43692  Biso   1.000  H
  C109     1.0000 0.75596  0.94455  0.46014  Biso   1.000  C
  H127     1.0000 0.59109  0.94632  0.45834  Biso   1.000  H
  C110     1.0000 0.96671  0.93051  0.45984  Biso   1.000  C
  C111     1.0000 0.52852  0.84353  0.29563  Biso   1.000  C
  C112     1.0000 0.44867  0.95017  0.31143  Biso   1.000  C
  O22      1.0000 0.75955  0.99822  0.48352  Biso   1.000  O
  H128     1.0000 0.95696  0.95483  0.49124  Biso   1.000  H
  H129     1.0000 0.02260  0.88845  0.47900  Biso   1.000  H
  C113     1.0000 0.00565  0.97792  0.39454  Biso   1.000  C
  C114     1.0000 0.49197  0.87235  0.22832  Biso   1.000  C
  H130     1.0000 0.56745  0.79746  0.31283  Biso   1.000  H
  C115     1.0000 0.41000  0.97857  0.24492  Biso   1.000  C
  O23      1.0000 0.43055  0.98528  0.35506  Biso   1.000  O
  C116     1.0000 0.66306  0.05339  0.47002  Biso   1.000  C
  C117     1.0000 0.95964  0.04924  0.36901  Biso   1.000  C
  C118     1.0000 0.08137  0.95174  0.35682  Biso   1.000  C
  O24      1.0000 0.51235  0.83680  0.18463  Biso   1.000  O
  C119     1.0000 0.43127  0.94044  0.20183  Biso   1.000  C
  H131     1.0000 0.36901  0.02403  0.22832  Biso   1.000  H
  C120     1.0000 0.37822  0.05721  0.32923  Biso   1.000  C
  C121     1.0000 0.69538  0.11361  0.48231  Biso   1.000  C
  H132     1.0000 0.60411  0.03619  0.49911  Biso   1.000  H
  H133     1.0000 0.63595  0.06800  0.42383  Biso   1.000  H
  H134     1.0000 0.91017  0.06741  0.39464  Biso   1.000  H
  C122     1.0000 0.98491  0.09394  0.30691  Biso   1.000  C
  O25      1.0000 0.12449  0.88119  0.38380  Biso   1.000  O
  C123     1.0000 0.10771  0.99597  0.29392  Biso   1.000  C
  C124     1.0000 0.59727  0.77855  0.20053  Biso   1.000  C
  C125     1.0000 0.39628  0.97479  0.12840  Biso   1.000  C
  H135     1.0000 0.42243  0.08380  0.29512  Biso   1.000  H
  H136     1.0000 0.37116  0.07542  0.36479  Biso   1.000  H
  H137     1.0000 0.30577  0.06103  0.31022  Biso   1.000  H
  H138     1.0000 0.75678  0.12830  0.45543  Biso   1.000  H
  H139     1.0000 0.71690  0.09959  0.52891  Biso   1.000  H
  H140     1.0000 0.63344  0.15189  0.47072  Biso   1.000  H
  O26      1.0000 0.94304  0.16496  0.28013  Biso   1.000  O
  C126     1.0000 0.05935  0.06695  0.26799  Biso   1.000  C
  C127     1.0000 0.21147  0.85338  0.35140  Biso   1.000  C
  H141     1.0000 0.15840  0.97777  0.26889  Biso   1.000  H
  C128     1.0000 0.61152  0.75617  0.14129  Biso   1.000  C
  H142     1.0000 0.57862  0.74039  0.23920  Biso   1.000  H
  H143     1.0000 0.66593  0.79056  0.21141  Biso   1.000  H
  H144     1.0000 0.38948  0.93898  0.11009  Biso   1.000  H
  H145     1.0000 0.32465  0.00533  0.12278  Biso   1.000  H
  C129     1.0000 0.48281  0.01737  0.09179  Biso   1.000  C
  C130     1.0000 0.86273  0.19293  0.31739  Biso   1.000  C
  C131     1.0000 0.08296  0.11325  0.19812  Biso   1.000  C
  C132     1.0000 0.25788  0.78634  0.39840  Biso   1.000  C
  H146     1.0000 0.26706  0.88364  0.33881  Biso   1.000  H
  H147     1.0000 0.18292  0.84895  0.31143  Biso   1.000  H
  H148     1.0000 0.61880  0.79608  0.10192  Biso   1.000  H
  H149     1.0000 0.54778  0.73708  0.13532  Biso   1.000  H
  H150     1.0000 0.67711  0.72077  0.14882  Biso   1.000  H
  C133     1.0000 0.57818  0.98456  0.07183  Biso   1.000  C
  C134     1.0000 0.47247  0.08884  0.08040  Biso   1.000  C
  H151     1.0000 0.84985  0.24351  0.29803  Biso   1.000  H
  H152     1.0000 0.89026  0.17781  0.36314  Biso   1.000  H
  H153     1.0000 0.79433  0.17634  0.31619  Biso   1.000  H
  C135     1.0000 0.99630  0.11795  0.14671  Biso   1.000  C
  H154     1.0000 0.08539  0.16023  0.19732  Biso   1.000  H
  H155     1.0000 0.15549  0.09443  0.18628  Biso   1.000  H
  H156     1.0000 0.31053  0.76206  0.37693  Biso   1.000  H
  H157     1.0000 0.19977  0.75945  0.41540  Biso   1.000  H
  H158     1.0000 0.29496  0.79202  0.43471  Biso   1.000  H
  H159     1.0000 0.58581  0.93691  0.07850  Biso   1.000  H
  C136     1.0000 0.66227  0.02055  0.04218  Biso   1.000  C
  O27      1.0000 0.37576  0.11896  0.10252  Biso   1.000  O
  C137     1.0000 0.55575  0.12573  0.05021  Biso   1.000  C
  C138     1.0000 0.00425  0.06916  0.11571  Biso   1.000  C
  C139     1.0000 0.90110  0.17093  0.13061  Biso   1.000  C
  O28      1.0000 0.75873  0.99058  0.02147  Biso   1.000  O
  C140     1.0000 0.65108  0.09268  0.03100  Biso   1.000  C
  C141     1.0000 0.36240  0.19065  0.09379  Biso   1.000  C
  H160     1.0000 0.54735  0.17358  0.04278  Biso   1.000  H
  C142     1.0000 0.92440  0.07516  0.06761  Biso   1.000  C
  O29      1.0000 0.09787  0.01656  0.13392  Biso   1.000  O
  C143     1.0000 0.81912  0.17456  0.08562  Biso   1.000  C
  H161     1.0000 0.89330  0.20433  0.15082  Biso   1.000  H
  C144     1.0000 0.77367  0.91778  0.03170  Biso   1.000  C
  C145     1.0000 0.74366  0.13268  0.00000  Biso   1.000  C
  C146     1.0000 0.26873  0.22847  0.05818  Biso   1.000  C
  H162     1.0000 0.36096  0.19492  0.13753  Biso   1.000  H
  H163     1.0000 0.42566  0.20972  0.07112  Biso   1.000  H
  C147     1.0000 0.83141  0.12756  0.05186  Biso   1.000  C
  H164     1.0000 0.93371  0.04328  0.04559  Biso   1.000  H
  C148     1.0000 0.09197  0.95207  0.12549  Biso   1.000  C
  O30      1.0000 0.72170  0.22345  0.07082  Biso   1.000  O
  H165     1.0000 0.83549  0.90608  0.00702  Biso   1.000  H
  H166     1.0000 0.70751  0.90757  0.01650  Biso   1.000  H
  H167     1.0000 0.78829  0.89048  0.07860  Biso   1.000  H
  H168     1.0000 0.71221  0.18170  0.97638  Biso   1.000  H
  H169     1.0000 0.77903  0.11392  0.96755  Biso   1.000  H
  H170     1.0000 0.28669  0.26694  0.02051  Biso   1.000  H
  H171     1.0000 0.21974  0.24644  0.08602  Biso   1.000  H
  H172     1.0000 0.23278  0.19885  0.04248  Biso   1.000  H
  C149     1.0000 0.00840  0.91237  0.16843  Biso   1.000  C
  H173     1.0000 0.16493  0.92227  0.13623  Biso   1.000  H
  H174     1.0000 0.07303  0.96200  0.07880  Biso   1.000  H
  C150     1.0000 0.70207  0.26787  0.10889  Biso   1.000  C
  H175     1.0000 0.93482  0.93908  0.15448  Biso   1.000  H
  H176     1.0000 0.02344  0.90528  0.21452  Biso   1.000  H
  H177     1.0000 0.01351  0.86749  0.16361  Biso   1.000  H
  H178     1.0000 0.62987  0.29695  0.09630  Biso   1.000  H
  H179     1.0000 0.75796  0.29715  0.10041  Biso   1.000  H
  H180     1.0000 0.70500  0.23934  0.15579  Biso   1.000  H
  O31      1.0000 0.24515  0.20939  0.62075  Biso   1.000  O
  C151     1.0000 0.24040  0.15943  0.59281  Biso   1.000  C
  C152     1.0000 0.15080  0.23160  0.65034  Biso   1.000  C
  C153     1.0000 0.14265  0.14164  0.57841  Biso   1.000  C
  C154     1.0000 0.34192  0.12741  0.57771  Biso   1.000  C
  H181     1.0000 0.13212  0.19209  0.68675  Biso   1.000  H
  H182     1.0000 0.16547  0.26670  0.66714  Biso   1.000  H
  H183     1.0000 0.08987  0.25131  0.61764  Biso   1.000  H
  C155     1.0000 0.14161  0.08976  0.55178  Biso   1.000  C
  H184     1.0000 0.07534  0.16521  0.58694  Biso   1.000  H
  C156     1.0000 0.34172  0.07563  0.55173  Biso   1.000  C
  C157     1.0000 0.45048  0.14970  0.59025  Biso   1.000  C
  C158     1.0000 0.24412  0.05532  0.53994  Biso   1.000  C
  C159     1.0000 0.03337  0.06935  0.54024  Biso   1.000  C
  H185     1.0000 0.40899  0.05354  0.54175  Biso   1.000  H
  H186     1.0000 0.43878  0.20072  0.57580  Biso   1.000  H
  H187     1.0000 0.50725  0.13564  0.56311  Biso   1.000  H
  C160     1.0000 0.49159  0.11843  0.66233  Biso   1.000  C
  O32      1.0000 0.24046  0.00162  0.51652  Biso   1.000  O
  H188     1.0000 0.04304  0.04504  0.50884  Biso   1.000  H
  H189     1.0000 0.97748  0.11143  0.52103  Biso   1.000  H
  C161     1.0000 0.99444  0.02190  0.60555  Biso   1.000  C
  C162     1.0000 0.47149  0.15630  0.70441  Biso   1.000  C
  C163     1.0000 0.55141  0.04972  0.68861  Biso   1.000  C
  C164     1.0000 0.33702  0.94649  0.53001  Biso   1.000  C
  C165     1.0000 0.91871  0.04814  0.64322  Biso   1.000  C
  C166     1.0000 0.04044  0.95065  0.63103  Biso   1.000  C
  H190     1.0000 0.43255  0.20241  0.68725  Biso   1.000  H
  C167     1.0000 0.50813  0.12749  0.77172  Biso   1.000  C
  O33      1.0000 0.56953  0.01460  0.64497  Biso   1.000  O
  C168     1.0000 0.59000  0.02131  0.75512  Biso   1.000  C
  C169     1.0000 0.30470  0.88628  0.51772  Biso   1.000  C
  H191     1.0000 0.39598  0.96365  0.50092  Biso   1.000  H
  H192     1.0000 0.36413  0.93189  0.57621  Biso   1.000  H
  O34      1.0000 0.87559  0.11867  0.61628  Biso   1.000  O
  C170     1.0000 0.89229  0.00392  0.70611  Biso   1.000  C
  H193     1.0000 0.08992  0.93246  0.60545  Biso   1.000  H
  C171     1.0000 0.01508  0.90594  0.69312  Biso   1.000  C
  O35      1.0000 0.48774  0.16306  0.81546  Biso   1.000  O
  C172     1.0000 0.56881  0.05942  0.79825  Biso   1.000  C
  C173     1.0000 0.62178  0.94265  0.67085  Biso   1.000  C
  H194     1.0000 0.63106  0.97586  0.77172  Biso   1.000  H
  H195     1.0000 0.24330  0.87158  0.54461  Biso   1.000  H
  H196     1.0000 0.28319  0.90025  0.47113  Biso   1.000  H
  H197     1.0000 0.36657  0.84795  0.52931  Biso   1.000  H
  C174     1.0000 0.78861  0.14651  0.64863  Biso   1.000  C
  C175     1.0000 0.94073  0.93294  0.73204  Biso   1.000  C
  H198     1.0000 0.84160  0.02212  0.73114  Biso   1.000  H
  O36      1.0000 0.05703  0.83493  0.71991  Biso   1.000  O
  C176     1.0000 0.40281  0.22132  0.79956  Biso   1.000  C
  C177     1.0000 0.60372  0.02510  0.87163  Biso   1.000  C
  H199     1.0000 0.57766  0.91603  0.70491  Biso   1.000  H
  H200     1.0000 0.62892  0.92447  0.63524  Biso   1.000  H
  H201     1.0000 0.69431  0.93885  0.68981  Biso   1.000  H
  C178     1.0000 0.74221  0.21350  0.60164  Biso   1.000  C
  H202     1.0000 0.73302  0.11624  0.66122  Biso   1.000  H
  H203     1.0000 0.81708  0.15094  0.68861  Biso   1.000  H
  C179     1.0000 0.91704  0.88664  0.80191  Biso   1.000  C
  C180     1.0000 0.13735  0.80696  0.68264  Biso   1.000  C
  C181     1.0000 0.38847  0.24371  0.85874  Biso   1.000  C
  H204     1.0000 0.42138  0.25950  0.76083  Biso   1.000  H
  H205     1.0000 0.33407  0.20933  0.78862  Biso   1.000  H
  H206     1.0000 0.61052  0.06090  0.88994  Biso   1.000  H
  H207     1.0000 0.67544  0.99450  0.87725  Biso   1.000  H
  C182     1.0000 0.51727  0.98251  0.90825  Biso   1.000  C
  H208     1.0000 0.68947  0.23783  0.62310  Biso   1.000  H
  H209     1.0000 0.80031  0.24044  0.58463  Biso   1.000  H
  H210     1.0000 0.70505  0.20782  0.56532  Biso   1.000  H
  H211     1.0000 0.91469  0.83965  0.80272  Biso   1.000  H
  H212     1.0000 0.84452  0.90540  0.81375  Biso   1.000  H
  C183     1.0000 0.00378  0.88193  0.85332  Biso   1.000  C
  H213     1.0000 0.15023  0.75635  0.70205  Biso   1.000  H
  H214     1.0000 0.10982  0.82206  0.63695  Biso   1.000  H
  H215     1.0000 0.20575  0.82355  0.68384  Biso   1.000  H
  H216     1.0000 0.38120  0.20379  0.89816  Biso   1.000  H
  H217     1.0000 0.45231  0.26279  0.86476  Biso   1.000  H
  H218     1.0000 0.32288  0.27912  0.85122  Biso   1.000  H
  C184     1.0000 0.42182  0.01530  0.92826  Biso   1.000  C
  C185     1.0000 0.52753  0.91104  0.91963  Biso   1.000  C
  C186     1.0000 0.99574  0.93072  0.88432  Biso   1.000  C
  C187     1.0000 0.09899  0.82891  0.86942  Biso   1.000  C
  H219     1.0000 0.41426  0.06298  0.92154  Biso   1.000  H
  C188     1.0000 0.33772  0.97933  0.95785  Biso   1.000  C
  O37      1.0000 0.62424  0.88090  0.89756  Biso   1.000  O
  C189     1.0000 0.44426  0.87410  0.94983  Biso   1.000  C
  O38      1.0000 0.90214  0.98328  0.86611  Biso   1.000  O
  C190     1.0000 0.07568  0.92473  0.93242  Biso   1.000  C
  C191     1.0000 0.18096  0.82533  0.91442  Biso   1.000  C
  H220     1.0000 0.10679  0.79553  0.84926  Biso   1.000  H
  O39      1.0000 0.24135  0.00930  0.97857  Biso   1.000  O
  C192     1.0000 0.34900  0.90720  0.96904  Biso   1.000  C
  C193     1.0000 0.63768  0.80924  0.90624  Biso   1.000  C
  H221     1.0000 0.45264  0.82631  0.95725  Biso   1.000  H
  C194     1.0000 0.90802  0.04782  0.87454  Biso   1.000  C
  H222     1.0000 0.06637  0.95661  0.95444  Biso   1.000  H
  C195     1.0000 0.16867  0.87233  0.94817  Biso   1.000  C
  O40      1.0000 0.27838  0.77644  0.92921  Biso   1.000  O
  C196     1.0000 0.22632  0.08210  0.96833  Biso   1.000  C
  C197     1.0000 0.25621  0.86737  0.99998  Biso   1.000  C
  C198     1.0000 0.73126  0.77141  0.94185  Biso   1.000  C
  H223     1.0000 0.63905  0.80490  0.86255  Biso   1.000  H
  H224     1.0000 0.57435  0.79009  0.92896  Biso   1.000  H
  C199     1.0000 0.99160  0.08749  0.83166  Biso   1.000  C
  H225     1.0000 0.83515  0.07760  0.86386  Biso   1.000  H
  H226     1.0000 0.92705  0.03789  0.92124  Biso   1.000  H
  C200     1.0000 0.29801  0.73202  0.89114  Biso   1.000  C
  H227     1.0000 0.16451  0.09378  0.99306  Biso   1.000  H
  H228     1.0000 0.29258  0.09226  0.98353  Biso   1.000  H
  H229     1.0000 0.21170  0.10940  0.92144  Biso   1.000  H
  H230     1.0000 0.28779  0.81816  0.02371  Biso   1.000  H
  H231     1.0000 0.22097  0.88596  0.03249  Biso   1.000  H
  H232     1.0000 0.71338  0.73294  0.97952  Biso   1.000  H
  H233     1.0000 0.78026  0.75343  0.91406  Biso   1.000  H
  H234     1.0000 0.76730  0.80104  0.95755  Biso   1.000  H
  H235     1.0000 0.06526  0.06081  0.84555  Biso   1.000  H
  H236     1.0000 0.97664  0.09461  0.78551  Biso   1.000  H
  H237     1.0000 0.98657  0.13240  0.83642  Biso   1.000  H
  H238     1.0000 0.37020  0.70293  0.90373  Biso   1.000  H
  H239     1.0000 0.24203  0.70274  0.89962  Biso   1.000  H
  H240     1.0000 0.29508  0.76055  0.84425  Biso   1.000  H
