data_image0
_cell_length_a       11.396
_cell_length_b       20.163
_cell_length_c       23.577
_cell_angle_alpha    110.41
_cell_angle_beta     99.66
_cell_angle_gamma    90.6

_symmetry_space_group_name_H-M    "P 1"
_symmetry_int_tables_number       1

loop_
  _symmetry_equiv_pos_as_xyz
  'x, y, z'

loop_
  _atom_site_label
  _atom_site_occupancy
  _atom_site_fract_x
  _atom_site_fract_y
  _atom_site_fract_z
  _atom_site_thermal_displace_type
  _atom_site_B_iso_or_equiv
  _atom_site_type_symbol
  C1       1.0000 0.69239  0.46896  0.48670  Biso   1.000  C
  C2       1.0000 0.79547  0.49068  0.54309  Biso   1.000  C
  H1       1.0000 0.64278  0.50895  0.48928  Biso   1.000  H
  H2       1.0000 0.72562  0.45580  0.44891  Biso   1.000  H
  H3       1.0000 0.64350  0.42846  0.48628  Biso   1.000  H
  C3       1.0000 0.86807  0.42760  0.53973  Biso   1.000  C
  C4       1.0000 0.74062  0.51367  0.60100  Biso   1.000  C
  C5       1.0000 0.87278  0.55204  0.54033  Biso   1.000  C
  C6       1.0000 0.84550  0.35829  0.50217  Biso   1.000  C
  N1       1.0000 0.97514  0.43179  0.57922  Biso   1.000  N
  C7       1.0000 0.62680  0.50140  0.60795  Biso   1.000  C
  N2       1.0000 0.80674  0.54939  0.65886  Biso   1.000  N
  H4       1.0000 0.94091  0.56569  0.57457  Biso   1.000  H
  H5       1.0000 0.90203  0.53689  0.50129  Biso   1.000  H
  H6       1.0000 0.82493  0.59287  0.54336  Biso   1.000  H
  C8       1.0000 0.93965  0.31906  0.51814  Biso   1.000  C
  H7       1.0000 0.77773  0.33926  0.47050  Biso   1.000  H
  C9       1.0000 0.01828  0.36551  0.56624  Biso   1.000  C
  H8       1.0000 0.01023  0.47089  0.60818  Biso   1.000  H
  H9       1.0000 0.56174  0.47729  0.57600  Biso   1.000  H
  C10      1.0000 0.62352  0.53126  0.67221  Biso   1.000  C
  C11      1.0000 0.73549  0.56084  0.70300  Biso   1.000  C
  H10      1.0000 0.88312  0.56298  0.66659  Biso   1.000  H
  H11      1.0000 0.94680  0.26966  0.49890  Biso   1.000  H
  C12      1.0000 0.13439  0.34979  0.60072  Biso   1.000  C
  H12      1.0000 0.55544  0.53086  0.69048  Biso   1.000  H
  C13      1.0000 0.77809  0.60058  0.77127  Biso   1.000  C
  C14      1.0000 0.19698  0.41563  0.65113  Biso   1.000  C
  C15      1.0000 0.10093  0.29245  0.62673  Biso   1.000  C
  C16      1.0000 0.21662  0.31878  0.55363  Biso   1.000  C
  C17      1.0000 0.91173  0.61635  0.78761  Biso   1.000  C
  C18      1.0000 0.73770  0.55427  0.80653  Biso   1.000  C
  C19      1.0000 0.71567  0.67068  0.79019  Biso   1.000  C
  C20      1.0000 0.29509  0.45763  0.65522  Biso   1.000  C
  N3       1.0000 0.15782  0.44405  0.70692  Biso   1.000  N
  H13      1.0000 0.06345  0.24986  0.59179  Biso   1.000  H
  H14      1.0000 0.04029  0.31076  0.65278  Biso   1.000  H
  C21      1.0000 0.20502  0.26975  0.66489  Biso   1.000  C
  H15      1.0000 0.29197  0.30837  0.57457  Biso   1.000  H
  H16      1.0000 0.17743  0.27498  0.52168  Biso   1.000  H
  H17      1.0000 0.23267  0.35328  0.53457  Biso   1.000  H
  C22      1.0000 0.98161  0.67927  0.80860  Biso   1.000  C
  N4       1.0000 0.98883  0.56358  0.78628  Biso   1.000  N
  C23      1.0000 0.78696  0.58235  0.87613  Biso   1.000  C
  H18      1.0000 0.76315  0.50577  0.78839  Biso   1.000  H
  H19      1.0000 0.64944  0.55088  0.80018  Biso   1.000  H
  H20      1.0000 0.62900  0.66024  0.77767  Biso   1.000  H
  H21      1.0000 0.73579  0.69464  0.83498  Biso   1.000  H
  H22      1.0000 0.74254  0.70149  0.76989  Biso   1.000  H
  C24      1.0000 0.31563  0.51247  0.71373  Biso   1.000  C
  H23      1.0000 0.34164  0.45118  0.62410  Biso   1.000  H
  C25      1.0000 0.23042  0.50309  0.74531  Biso   1.000  C
  H24      1.0000 0.09563  0.42685  0.71626  Biso   1.000  H
  H25      1.0000 0.23251  0.30908  0.70457  Biso   1.000  H
  H26      1.0000 0.27260  0.25937  0.64247  Biso   1.000  H
  C26      1.0000 0.16588  0.20499  0.67667  Biso   1.000  C
  H27      1.0000 0.95350  0.72495  0.81417  Biso   1.000  H
  C27      1.0000 0.10271  0.66407  0.82029  Biso   1.000  C
  H28      1.0000 0.96664  0.51816  0.77458  Biso   1.000  H
  C28      1.0000 0.10541  0.59185  0.80589  Biso   1.000  C
  C29      1.0000 0.71890  0.54475  0.90757  Biso   1.000  C
  H29      1.0000 0.77885  0.63406  0.89348  Biso   1.000  H
  H30      1.0000 0.87267  0.57415  0.88359  Biso   1.000  H
  H31      1.0000 0.37785  0.54935  0.72846  Biso   1.000  H
  C30      1.0000 0.20995  0.54589  0.80943  Biso   1.000  C
  N5       1.0000 0.14157  0.21823  0.73486  Biso   1.000  N
  O1       1.0000 0.15411  0.14593  0.63810  Biso   1.000  O
  H32      1.0000 0.16991  0.69769  0.83539  Biso   1.000  H
  N6       1.0000 0.76570  0.48545  0.91259  Biso   1.000  N
  O2       1.0000 0.62601  0.56632  0.92548  Biso   1.000  O
  C31      1.0000 0.32326  0.59515  0.84455  Biso   1.000  C
  C32      1.0000 0.18735  0.49747  0.84474  Biso   1.000  C
  C33      1.0000 0.10049  0.16907  0.75893  Biso   1.000  C
  H33      1.0000 0.15300  0.26269  0.76008  Biso   1.000  H
  C34      1.0000 0.72363  0.43838  0.93800  Biso   1.000  C
  H34      1.0000 0.83191  0.47475  0.89786  Biso   1.000  H
  H35      1.0000 0.33913  0.62638  0.82237  Biso   1.000  H
  H36      1.0000 0.31115  0.62399  0.88598  Biso   1.000  H
  H37      1.0000 0.39121  0.56658  0.84768  Biso   1.000  H
  H38      1.0000 0.25534  0.46859  0.84699  Biso   1.000  H
  H39      1.0000 0.17755  0.52659  0.88649  Biso   1.000  H
  H40      1.0000 0.11469  0.46635  0.82338  Biso   1.000  H
  C35      1.0000 0.09352  0.09546  0.72938  Biso   1.000  C
  N7       1.0000 0.06829  0.20042  0.81362  Biso   1.000  N
  C36      1.0000 0.61970  0.44386  0.96212  Biso   1.000  C
  N8       1.0000 0.79850  0.38698  0.93699  Biso   1.000  N
  H41      1.0000 0.11636  0.07447  0.69039  Biso   1.000  H
  C37      1.0000 0.05190  0.05430  0.75930  Biso   1.000  C
  C38      1.0000 0.02405  0.15919  0.84105  Biso   1.000  C
  C39      1.0000 0.59123  0.39248  0.98573  Biso   1.000  C
  H42      1.0000 0.56957  0.48124  0.96258  Biso   1.000  H
  C40      1.0000 0.76959  0.33799  0.96074  Biso   1.000  C
  H43      1.0000 0.04797  0.00397  0.74130  Biso   1.000  H
  C41      1.0000 0.01604  0.08590  0.81509  Biso   1.000  C
  C42      1.0000 0.98436  0.19777  0.90034  Biso   1.000  C
  C43      1.0000 0.66727  0.33908  0.98518  Biso   1.000  C
  H44      1.0000 0.52017  0.39399  0.00212  Biso   1.000  H
  C44      1.0000 0.85740  0.28315  0.95752  Biso   1.000  C
  H45      1.0000 0.98621  0.05768  0.83530  Biso   1.000  H
  C45      1.0000 0.89508  0.24505  0.90278  Biso   1.000  C
  C46      1.0000 0.03244  0.18645  0.95452  Biso   1.000  C
  H46      1.0000 0.64943  0.30391  0.00138  Biso   1.000  H
  C47      1.0000 0.90727  0.27019  0.01059  Biso   1.000  C
  O3       1.0000 0.84435  0.25308  0.84773  Biso   1.000  O
  C48      1.0000 0.99373  0.22210  0.00870  Biso   1.000  C
  H47      1.0000 0.09249  0.15407  0.95406  Biso   1.000  H
  H48      1.0000 0.88149  0.29457  0.04829  Biso   1.000  H
  C49      1.0000 0.72061  0.22769  0.82678  Biso   1.000  C
  H49      1.0000 0.02666  0.21361  0.04511  Biso   1.000  H
  H50      1.0000 0.67240  0.25888  0.85436  Biso   1.000  H
  H51      1.0000 0.69451  0.22747  0.78499  Biso   1.000  H
  H52      1.0000 0.71035  0.17936  0.82688  Biso   1.000  H
  C50      1.0000 0.30762  0.53098  0.51326  Biso   1.000  C
  C51      1.0000 0.20455  0.50926  0.45687  Biso   1.000  C
  H53      1.0000 0.35724  0.49099  0.51068  Biso   1.000  H
  H54      1.0000 0.27441  0.54416  0.55110  Biso   1.000  H
  H55      1.0000 0.35652  0.57147  0.51367  Biso   1.000  H
  C52      1.0000 0.25941  0.48628  0.39901  Biso   1.000  C
  C53      1.0000 0.13196  0.57240  0.46028  Biso   1.000  C
  C54      1.0000 0.12724  0.44789  0.45963  Biso   1.000  C
  N9       1.0000 0.19337  0.45055  0.34110  Biso   1.000  N
  C55      1.0000 0.37323  0.49856  0.39206  Biso   1.000  C
  C56      1.0000 0.15453  0.64166  0.49784  Biso   1.000  C
  N10      1.0000 0.02498  0.56817  0.42078  Biso   1.000  N
  H56      1.0000 0.05911  0.43425  0.42538  Biso   1.000  H
  H57      1.0000 0.09798  0.46305  0.49867  Biso   1.000  H
  H58      1.0000 0.17509  0.40707  0.45659  Biso   1.000  H
  C57      1.0000 0.26454  0.43917  0.29700  Biso   1.000  C
  H59      1.0000 0.11691  0.43698  0.33341  Biso   1.000  H
  C58      1.0000 0.37652  0.46870  0.32780  Biso   1.000  C
  H60      1.0000 0.43830  0.52267  0.42400  Biso   1.000  H
  C59      1.0000 0.06038  0.68090  0.48187  Biso   1.000  C
  H61      1.0000 0.22239  0.66070  0.52951  Biso   1.000  H
  C60      1.0000 0.98175  0.63449  0.43376  Biso   1.000  C
  H62      1.0000 0.98979  0.52905  0.39178  Biso   1.000  H
  C61      1.0000 0.22194  0.39938  0.22873  Biso   1.000  C
  H63      1.0000 0.44466  0.46908  0.30947  Biso   1.000  H
  H64      1.0000 0.05324  0.73030  0.50111  Biso   1.000  H
  C62      1.0000 0.86563  0.65015  0.39924  Biso   1.000  C
  C63      1.0000 0.28445  0.32928  0.20981  Biso   1.000  C
  C64      1.0000 0.08837  0.38359  0.21235  Biso   1.000  C
  C65      1.0000 0.26232  0.44567  0.19343  Biso   1.000  C
  C66      1.0000 0.80304  0.58436  0.34883  Biso   1.000  C
  C67      1.0000 0.89917  0.70749  0.37323  Biso   1.000  C
  C68      1.0000 0.78341  0.68118  0.44637  Biso   1.000  C
  H65      1.0000 0.37102  0.33970  0.22229  Biso   1.000  H
  H66      1.0000 0.26423  0.30530  0.16498  Biso   1.000  H
  H67      1.0000 0.25750  0.29852  0.23011  Biso   1.000  H
  C69      1.0000 0.01842  0.32069  0.19140  Biso   1.000  C
  N11      1.0000 0.01128  0.43636  0.21368  Biso   1.000  N
  C70      1.0000 0.21317  0.41760  0.12387  Biso   1.000  C
  H68      1.0000 0.23697  0.49419  0.21161  Biso   1.000  H
  H69      1.0000 0.35067  0.44906  0.19978  Biso   1.000  H
  N12      1.0000 0.84222  0.55590  0.29309  Biso   1.000  N
  C71      1.0000 0.70493  0.54231  0.34474  Biso   1.000  C
  H70      1.0000 0.93666  0.75008  0.40817  Biso   1.000  H
  H71      1.0000 0.95972  0.68917  0.34717  Biso   1.000  H
  C72      1.0000 0.79508  0.73019  0.33507  Biso   1.000  C
  H72      1.0000 0.70805  0.69157  0.42538  Biso   1.000  H
  H73      1.0000 0.82268  0.72496  0.47827  Biso   1.000  H
  H74      1.0000 0.76735  0.64666  0.46539  Biso   1.000  H
  H75      1.0000 0.04651  0.27499  0.18579  Biso   1.000  H
  C73      1.0000 0.89731  0.33587  0.17966  Biso   1.000  C
  H76      1.0000 0.03346  0.48177  0.22537  Biso   1.000  H
  C74      1.0000 0.89461  0.40809  0.19407  Biso   1.000  C
  C75      1.0000 0.28112  0.45519  0.09239  Biso   1.000  C
  H77      1.0000 0.22128  0.36590  0.10652  Biso   1.000  H
  H78      1.0000 0.12737  0.42581  0.11642  Biso   1.000  H
  C76      1.0000 0.76962  0.49687  0.25470  Biso   1.000  C
  H79      1.0000 0.90439  0.57308  0.28370  Biso   1.000  H
  C77      1.0000 0.68441  0.48749  0.28627  Biso   1.000  C
  H80      1.0000 0.65839  0.54878  0.37590  Biso   1.000  H
  H81      1.0000 0.76751  0.69086  0.29539  Biso   1.000  H
  H82      1.0000 0.72742  0.74057  0.35749  Biso   1.000  H
  C78      1.0000 0.83415  0.79497  0.32333  Biso   1.000  C
  H83      1.0000 0.83012  0.30232  0.16461  Biso   1.000  H
  C79      1.0000 0.79007  0.45410  0.19053  Biso   1.000  C
  N13      1.0000 0.23433  0.51451  0.08742  Biso   1.000  N
  O4       1.0000 0.37403  0.43363  0.07453  Biso   1.000  O
  H84      1.0000 0.62226  0.45059  0.27150  Biso   1.000  H
  N14      1.0000 0.85845  0.78171  0.26510  Biso   1.000  N
  O5       1.0000 0.84599  0.85401  0.36186  Biso   1.000  O
  C80      1.0000 0.67684  0.40479  0.15540  Biso   1.000  C
  C81      1.0000 0.81276  0.50247  0.15522  Biso   1.000  C
  C82      1.0000 0.27649  0.56157  0.06201  Biso   1.000  C
  H85      1.0000 0.16811  0.52519  0.10210  Biso   1.000  H
  C83      1.0000 0.89952  0.83087  0.24102  Biso   1.000  C
  H86      1.0000 0.84702  0.73725  0.23987  Biso   1.000  H
  H87      1.0000 0.66089  0.37361  0.17759  Biso   1.000  H
  H88      1.0000 0.68895  0.37600  0.11398  Biso   1.000  H
  H89      1.0000 0.60880  0.43336  0.15227  Biso   1.000  H
  H90      1.0000 0.74470  0.53137  0.15301  Biso   1.000  H
  H91      1.0000 0.82257  0.47337  0.11352  Biso   1.000  H
  H92      1.0000 0.88533  0.53359  0.17658  Biso   1.000  H
  C84      1.0000 0.38032  0.55608  0.03784  Biso   1.000  C
  N15      1.0000 0.20152  0.61296  0.06297  Biso   1.000  N
  N16      1.0000 0.93173  0.79952  0.18634  Biso   1.000  N
  C85      1.0000 0.90659  0.90448  0.27058  Biso   1.000  C
  C86      1.0000 0.40889  0.60748  0.01427  Biso   1.000  C
  H93      1.0000 0.43045  0.51870  0.03738  Biso   1.000  H
  C87      1.0000 0.23044  0.66197  0.03927  Biso   1.000  C
  C88      1.0000 0.97597  0.84075  0.15890  Biso   1.000  C
  C89      1.0000 0.94813  0.94565  0.24070  Biso   1.000  C
  H94      1.0000 0.88367  0.92549  0.30961  Biso   1.000  H
  C90      1.0000 0.33276  0.66088  0.01482  Biso   1.000  C
  H95      1.0000 0.47987  0.60597  0.99788  Biso   1.000  H
  C91      1.0000 0.14270  0.71678  0.04244  Biso   1.000  C
  C92      1.0000 0.01566  0.80217  0.09961  Biso   1.000  C
  C93      1.0000 0.98399  0.91411  0.18491  Biso   1.000  C
  H96      1.0000 0.95207  0.99598  0.25870  Biso   1.000  H
  H97      1.0000 0.35059  0.69608  0.99857  Biso   1.000  H
  C94      1.0000 0.10502  0.75489  0.09717  Biso   1.000  C
  C95      1.0000 0.09286  0.72977  0.98941  Biso   1.000  C
  C96      1.0000 0.96758  0.81349  0.04543  Biso   1.000  C
  H98      1.0000 0.01383  0.94228  0.16470  Biso   1.000  H
  O6       1.0000 0.15568  0.74687  0.15227  Biso   1.000  O
  C97      1.0000 0.00629  0.77784  0.99125  Biso   1.000  C
  H99      1.0000 0.11853  0.70537  0.95167  Biso   1.000  H
  H100     1.0000 0.90753  0.84587  0.04589  Biso   1.000  H
  C98      1.0000 0.27950  0.77225  0.17317  Biso   1.000  C
  H101     1.0000 0.97337  0.78634  0.95489  Biso   1.000  H
  H102     1.0000 0.32770  0.74106  0.14560  Biso   1.000  H
  H103     1.0000 0.30561  0.77249  0.21502  Biso   1.000  H
  H104     1.0000 0.28966  0.82057  0.17308  Biso   1.000  H
  C99      1.0000 0.57440  0.29216  0.54097  Biso   1.000  C
  C100     1.0000 0.63868  0.23259  0.52329  Biso   1.000  C
  H105     1.0000 0.55300  0.31770  0.51409  Biso   1.000  H
  C101     1.0000 0.54176  0.31398  0.59819  Biso   1.000  C
  C102     1.0000 0.67489  0.19578  0.56284  Biso   1.000  C
  H106     1.0000 0.65857  0.21648  0.48338  Biso   1.000  H
  H107     1.0000 0.49584  0.35399  0.60988  Biso   1.000  H
  C103     1.0000 0.57464  0.27889  0.63916  Biso   1.000  C
  C104     1.0000 0.73687  0.12941  0.54092  Biso   1.000  C
  C105     1.0000 0.64603  0.22128  0.62166  Biso   1.000  C
  C106     1.0000 0.53273  0.30148  0.69923  Biso   1.000  C
  C107     1.0000 0.83216  0.12519  0.51054  Biso   1.000  C
  N17      1.0000 0.69336  0.07355  0.55179  Biso   1.000  N
  O7       1.0000 0.68825  0.19095  0.66553  Biso   1.000  O
  C108     1.0000 0.52803  0.37205  0.73527  Biso   1.000  C
  N18      1.0000 0.49647  0.24864  0.71589  Biso   1.000  N
  C109     1.0000 0.87956  0.06030  0.48776  Biso   1.000  C
  H108     1.0000 0.86433  0.16607  0.50548  Biso   1.000  H
  C110     1.0000 0.74489  0.01260  0.53158  Biso   1.000  C
  C111     1.0000 0.81597  0.19004  0.68086  Biso   1.000  C
  H109     1.0000 0.55423  0.40906  0.72307  Biso   1.000  H
  C112     1.0000 0.48401  0.38759  0.78987  Biso   1.000  C
  C113     1.0000 0.45638  0.26438  0.76869  Biso   1.000  C
  C114     1.0000 0.83515  0.00186  0.49692  Biso   1.000  C
  H110     1.0000 0.94311  0.05597  0.46557  Biso   1.000  H
  N19      1.0000 0.69537  0.95932  0.54801  Biso   1.000  N
  H111     1.0000 0.84873  0.23518  0.71318  Biso   1.000  H
  H112     1.0000 0.83510  0.15100  0.69559  Biso   1.000  H
  H113     1.0000 0.85094  0.18369  0.64417  Biso   1.000  H
  H114     1.0000 0.47932  0.43558  0.81500  Biso   1.000  H
  C115     1.0000 0.44719  0.33367  0.80777  Biso   1.000  C
  N20      1.0000 0.42810  0.20271  0.78025  Biso   1.000  N
  H115     1.0000 0.86466  0.95644  0.48048  Biso   1.000  H
  C116     1.0000 0.74855  0.90288  0.55759  Biso   1.000  C
  H116     1.0000 0.62046  0.96278  0.55271  Biso   1.000  H
  H117     1.0000 0.41713  0.34319  0.84478  Biso   1.000  H
  C117     1.0000 0.40777  0.19586  0.83300  Biso   1.000  C
  H118     1.0000 0.42277  0.16279  0.74858  Biso   1.000  H
  C118     1.0000 0.68281  0.87454  0.59699  Biso   1.000  C
  O8       1.0000 0.84191  0.88272  0.54046  Biso   1.000  O
  C119     1.0000 0.68050  0.84165  0.56477  Biso   1.000  C
  C120     1.0000 0.40577  0.11898  0.82959  Biso   1.000  C
  O9       1.0000 0.39520  0.24539  0.87834  Biso   1.000  O
  C121     1.0000 0.72137  0.80219  0.59690  Biso   1.000  C
  H119     1.0000 0.59592  0.87055  0.58120  Biso   1.000  H
  H120     1.0000 0.69822  0.90885  0.63980  Biso   1.000  H
  C122     1.0000 0.74417  0.85925  0.63096  Biso   1.000  C
  H121     1.0000 0.59358  0.84648  0.56109  Biso   1.000  H
  H122     1.0000 0.69696  0.79445  0.53687  Biso   1.000  H
  H123     1.0000 0.48358  0.10035  0.82117  Biso   1.000  H
  H124     1.0000 0.34348  0.09059  0.79447  Biso   1.000  H
  C123     1.0000 0.38194  0.10868  0.88736  Biso   1.000  C
  C124     1.0000 0.69817  0.78445  0.65260  Biso   1.000  C
  H125     1.0000 0.67844  0.76508  0.55888  Biso   1.000  H
  H126     1.0000 0.80774  0.80045  0.59579  Biso   1.000  H
  H127     1.0000 0.83186  0.86317  0.63386  Biso   1.000  H
  H128     1.0000 0.71967  0.90454  0.65808  Biso   1.000  H
  C125     1.0000 0.41462  0.03569  0.89238  Biso   1.000  C
  H129     1.0000 0.42787  0.14699  0.92359  Biso   1.000  H
  H130     1.0000 0.29619  0.11389  0.88907  Biso   1.000  H
  C126     1.0000 0.76796  0.83197  0.71359  Biso   1.000  C
  C127     1.0000 0.56615  0.77989  0.65297  Biso   1.000  C
  C128     1.0000 0.74113  0.70828  0.63860  Biso   1.000  C
  C129     1.0000 0.54852  0.03018  0.89744  Biso   1.000  C
  C130     1.0000 0.37899  0.03555  0.95277  Biso   1.000  C
  C131     1.0000 0.34463  0.97523  0.83986  Biso   1.000  C
  C132     1.0000 0.88128  0.86226  0.72699  Biso   1.000  C
  N21      1.0000 0.72921  0.84681  0.76952  Biso   1.000  N
  C133     1.0000 0.48761  0.72196  0.63736  Biso   1.000  C
  N22      1.0000 0.50027  0.83928  0.66705  Biso   1.000  N
  H131     1.0000 0.69544  0.67646  0.59920  Biso   1.000  H
  H132     1.0000 0.82617  0.70927  0.63630  Biso   1.000  H
  H133     1.0000 0.72893  0.69116  0.67138  Biso   1.000  H
  C134     1.0000 0.64094  0.08076  0.92488  Biso   1.000  C
  N23      1.0000 0.59885  0.96559  0.88083  Biso   1.000  N
  H134     1.0000 0.42161  0.07577  0.98748  Biso   1.000  H
  H135     1.0000 0.29278  0.03960  0.95020  Biso   1.000  H
  H136     1.0000 0.39986  0.99114  0.95890  Biso   1.000  H
  C135     1.0000 0.24850  0.93287  0.83719  Biso   1.000  C
  N24      1.0000 0.36681  0.95616  0.78038  Biso   1.000  N
  H137     1.0000 0.93056  0.86105  0.69789  Biso   1.000  H
  C136     1.0000 0.91247  0.89555  0.79079  Biso   1.000  C
  C137     1.0000 0.81757  0.88566  0.81749  Biso   1.000  C
  H138     1.0000 0.65832  0.83324  0.77357  Biso   1.000  H
  C138     1.0000 0.37346  0.74634  0.64215  Biso   1.000  C
  H139     1.0000 0.50679  0.67385  0.62539  Biso   1.000  H
  C139     1.0000 0.38146  0.81876  0.66056  Biso   1.000  C
  H140     1.0000 0.52994  0.88335  0.67838  Biso   1.000  H
  C140     1.0000 0.74914  0.04638  0.92548  Biso   1.000  C
  H141     1.0000 0.63421  0.13057  0.94076  Biso   1.000  H
  C141     1.0000 0.72108  0.97422  0.89754  Biso   1.000  C
  H142     1.0000 0.55785  0.92424  0.86200  Biso   1.000  H
  H143     1.0000 0.21273  0.93396  0.87107  Biso   1.000  H
  C142     1.0000 0.21039  0.88675  0.77537  Biso   1.000  C
  C143     1.0000 0.28525  0.90244  0.74093  Biso   1.000  C
  H144     1.0000 0.42454  0.97555  0.76947  Biso   1.000  H
  H145     1.0000 0.98686  0.92096  0.81238  Biso   1.000  H
  C144     1.0000 0.80157  0.91285  0.88419  Biso   1.000  C
  H146     1.0000 0.30208  0.71716  0.63400  Biso   1.000  H
  C145     1.0000 0.28612  0.87095  0.67258  Biso   1.000  C
  H147     1.0000 0.82717  0.06899  0.94228  Biso   1.000  H
  H148     1.0000 0.14538  0.85168  0.76059  Biso   1.000  H
  C146     1.0000 0.74870  0.85305  0.90117  Biso   1.000  C
  C147     1.0000 0.92382  0.93903  0.92580  Biso   1.000  C
  C148     1.0000 0.16358  0.83124  0.63920  Biso   1.000  C
  C149     1.0000 0.30647  0.92998  0.64717  Biso   1.000  C
  H149     1.0000 0.66922  0.83627  0.87608  Biso   1.000  H
  H150     1.0000 0.80085  0.81375  0.89348  Biso   1.000  H
  H151     1.0000 0.74262  0.87136  0.94486  Biso   1.000  H
  H152     1.0000 0.91487  0.95435  0.96898  Biso   1.000  H
  H153     1.0000 0.97744  0.90033  0.91728  Biso   1.000  H
  H154     1.0000 0.95755  0.97896  0.91770  Biso   1.000  H
  H155     1.0000 0.10208  0.86538  0.64348  Biso   1.000  H
  H156     1.0000 0.16568  0.80686  0.59547  Biso   1.000  H
  H157     1.0000 0.14524  0.79647  0.65748  Biso   1.000  H
  H158     1.0000 0.38135  0.95804  0.66977  Biso   1.000  H
  H159     1.0000 0.31080  0.90866  0.60339  Biso   1.000  H
  H160     1.0000 0.24008  0.96075  0.65218  Biso   1.000  H
  C150     1.0000 0.42561  0.70777  0.45899  Biso   1.000  C
  C151     1.0000 0.45826  0.68596  0.40177  Biso   1.000  C
  C152     1.0000 0.36136  0.76737  0.47671  Biso   1.000  C
  H161     1.0000 0.44702  0.68229  0.48587  Biso   1.000  H
  C153     1.0000 0.42549  0.72107  0.36085  Biso   1.000  C
  H162     1.0000 0.50427  0.64595  0.39008  Biso   1.000  H
  C154     1.0000 0.32513  0.80416  0.43712  Biso   1.000  C
  H163     1.0000 0.34145  0.78346  0.51657  Biso   1.000  H
  C155     1.0000 0.46738  0.69846  0.30073  Biso   1.000  C
  C156     1.0000 0.35399  0.77866  0.37829  Biso   1.000  C
  C157     1.0000 0.26317  0.87059  0.45908  Biso   1.000  C
  C158     1.0000 0.47207  0.62789  0.26469  Biso   1.000  C
  N25      1.0000 0.50357  0.75131  0.28411  Biso   1.000  N
  O10      1.0000 0.31178  0.80900  0.33447  Biso   1.000  O
  C159     1.0000 0.16788  0.87476  0.48946  Biso   1.000  C
  N26      1.0000 0.30666  0.92639  0.44817  Biso   1.000  N
  H164     1.0000 0.44587  0.59088  0.27688  Biso   1.000  H
  C160     1.0000 0.51601  0.61240  0.21009  Biso   1.000  C
  C161     1.0000 0.54365  0.73557  0.23131  Biso   1.000  C
  C162     1.0000 0.18405  0.80989  0.31910  Biso   1.000  C
  C163     1.0000 0.12048  0.93965  0.51225  Biso   1.000  C
  H165     1.0000 0.13569  0.83387  0.49448  Biso   1.000  H
  C164     1.0000 0.25522  0.98734  0.46838  Biso   1.000  C
  H166     1.0000 0.52072  0.56438  0.18500  Biso   1.000  H
  C165     1.0000 0.55283  0.66627  0.19218  Biso   1.000  C
  N27      1.0000 0.57200  0.79723  0.21971  Biso   1.000  N
  H167     1.0000 0.15129  0.76476  0.28678  Biso   1.000  H
  H168     1.0000 0.16502  0.84896  0.30441  Biso   1.000  H
  H169     1.0000 0.14908  0.81625  0.35578  Biso   1.000  H
  C166     1.0000 0.16487  0.99808  0.50304  Biso   1.000  C
  H170     1.0000 0.05690  0.94397  0.53439  Biso   1.000  H
  N28      1.0000 0.30466  0.04064  0.45199  Biso   1.000  N
  H171     1.0000 0.58297  0.65675  0.15517  Biso   1.000  H
  C167     1.0000 0.59227  0.80410  0.16700  Biso   1.000  C
  H172     1.0000 0.57725  0.83719  0.25138  Biso   1.000  H
  H173     1.0000 0.13535  0.04350  0.51947  Biso   1.000  H
  C168     1.0000 0.25147  0.09711  0.44237  Biso   1.000  C
  H174     1.0000 0.37957  0.03718  0.44729  Biso   1.000  H
  C169     1.0000 0.59426  0.88098  0.17041  Biso   1.000  C
  O11      1.0000 0.60490  0.75454  0.12162  Biso   1.000  O
  C170     1.0000 0.31722  0.12542  0.40301  Biso   1.000  C
  O12      1.0000 0.15810  0.11722  0.45949  Biso   1.000  O
  C171     1.0000 0.31952  0.15829  0.43519  Biso   1.000  C
  H175     1.0000 0.51652  0.89959  0.17879  Biso   1.000  H
  H176     1.0000 0.65654  0.90940  0.20549  Biso   1.000  H
  C172     1.0000 0.61808  0.89126  0.11259  Biso   1.000  C
  C173     1.0000 0.27875  0.19782  0.40310  Biso   1.000  C
  H177     1.0000 0.40412  0.12941  0.41880  Biso   1.000  H
  H178     1.0000 0.30181  0.09110  0.36020  Biso   1.000  H
  C174     1.0000 0.25594  0.14069  0.36899  Biso   1.000  C
  H179     1.0000 0.40653  0.15350  0.43887  Biso   1.000  H
  H180     1.0000 0.30314  0.20549  0.46308  Biso   1.000  H
  C175     1.0000 0.58540  0.96430  0.10758  Biso   1.000  C
  H181     1.0000 0.57217  0.85297  0.07641  Biso   1.000  H
  H182     1.0000 0.70391  0.88610  0.11089  Biso   1.000  H
  C176     1.0000 0.30195  0.21551  0.34740  Biso   1.000  C
  H183     1.0000 0.32158  0.23491  0.44108  Biso   1.000  H
  H184     1.0000 0.19230  0.19951  0.40421  Biso   1.000  H
  H185     1.0000 0.16825  0.13677  0.36609  Biso   1.000  H
  H186     1.0000 0.28044  0.09540  0.34188  Biso   1.000  H
  C177     1.0000 0.45150  0.96976  0.10251  Biso   1.000  C
  C178     1.0000 0.62112  0.96439  0.04718  Biso   1.000  C
  C179     1.0000 0.65538  0.02471  0.16010  Biso   1.000  C
  C180     1.0000 0.23216  0.16799  0.28641  Biso   1.000  C
  C181     1.0000 0.43389  0.22007  0.34704  Biso   1.000  C
  C182     1.0000 0.25891  0.29167  0.36140  Biso   1.000  C
  C183     1.0000 0.35908  0.91918  0.07508  Biso   1.000  C
  N29      1.0000 0.40118  0.03437  0.11918  Biso   1.000  N
  H187     1.0000 0.57842  0.92419  0.01252  Biso   1.000  H
  H188     1.0000 0.70734  0.96041  0.04981  Biso   1.000  H
  H189     1.0000 0.60018  0.00882  0.04111  Biso   1.000  H
  C184     1.0000 0.75162  0.06709  0.16282  Biso   1.000  C
  N30      1.0000 0.63332  0.04385  0.21962  Biso   1.000  N
  C185     1.0000 0.11883  0.13768  0.27297  Biso   1.000  C
  N31      1.0000 0.27081  0.15313  0.23044  Biso   1.000  N
  C186     1.0000 0.51242  0.27800  0.36264  Biso   1.000  C
  N32      1.0000 0.49976  0.16073  0.33295  Biso   1.000  N
  H190     1.0000 0.30459  0.32350  0.40080  Biso   1.000  H
  H191     1.0000 0.17396  0.29068  0.36370  Biso   1.000  H
  H192     1.0000 0.27108  0.30877  0.32858  Biso   1.000  H
  C187     1.0000 0.25088  0.95356  0.07448  Biso   1.000  C
  H193     1.0000 0.36581  0.86937  0.05920  Biso   1.000  H
  C188     1.0000 0.27903  0.02572  0.10242  Biso   1.000  C
  H194     1.0000 0.44218  0.07572  0.13800  Biso   1.000  H
  H195     1.0000 0.78729  0.06598  0.12889  Biso   1.000  H
  C189     1.0000 0.78971  0.11319  0.22459  Biso   1.000  C
  C190     1.0000 0.71478  0.09751  0.25907  Biso   1.000  C
  H196     1.0000 0.57548  0.02439  0.23048  Biso   1.000  H
  C191     1.0000 0.08765  0.10441  0.20922  Biso   1.000  C
  H197     1.0000 0.06956  0.13891  0.30211  Biso   1.000  H
  C192     1.0000 0.18255  0.11430  0.18252  Biso   1.000  C
  H198     1.0000 0.34170  0.16670  0.22639  Biso   1.000  H
  C193     1.0000 0.62665  0.25360  0.35781  Biso   1.000  C
  H199     1.0000 0.49325  0.32610  0.37461  Biso   1.000  H
  C194     1.0000 0.61858  0.18120  0.33944  Biso   1.000  C
  H200     1.0000 0.47008  0.11659  0.32158  Biso   1.000  H
  H201     1.0000 0.17293  0.93100  0.05768  Biso   1.000  H
  C195     1.0000 0.19856  0.08711  0.11582  Biso   1.000  C
  H202     1.0000 0.85474  0.14828  0.23941  Biso   1.000  H
  C196     1.0000 0.71391  0.12900  0.32743  Biso   1.000  C
  H203     1.0000 0.01324  0.07897  0.18758  Biso   1.000  H
  H204     1.0000 0.69804  0.28280  0.36600  Biso   1.000  H
  C197     1.0000 0.25131  0.14688  0.09879  Biso   1.000  C
  C198     1.0000 0.07622  0.06092  0.07420  Biso   1.000  C
  C199     1.0000 0.83652  0.16870  0.36075  Biso   1.000  C
  C200     1.0000 0.69355  0.06996  0.35279  Biso   1.000  C
  H205     1.0000 0.33081  0.16368  0.12392  Biso   1.000  H
  H206     1.0000 0.19927  0.18621  0.10652  Biso   1.000  H
  H207     1.0000 0.25740  0.12858  0.05510  Biso   1.000  H
  H208     1.0000 0.08523  0.04559  0.03098  Biso   1.000  H
  H209     1.0000 0.02259  0.09963  0.08272  Biso   1.000  H
  H210     1.0000 0.04249  0.02099  0.08231  Biso   1.000  H
  H211     1.0000 0.89793  0.13456  0.35647  Biso   1.000  H
  H212     1.0000 0.83443  0.19308  0.40448  Biso   1.000  H
  H213     1.0000 0.85478  0.20347  0.34248  Biso   1.000  H
  H214     1.0000 0.61866  0.04190  0.33019  Biso   1.000  H
  H215     1.0000 0.68931  0.09128  0.39657  Biso   1.000  H
  H216     1.0000 0.75994  0.03919  0.34777  Biso   1.000  H
