data_image0
_cell_length_a       14.793
_cell_length_b       12.348
_cell_length_c       27.007
_cell_angle_alpha    90
_cell_angle_beta     99
_cell_angle_gamma    90

_symmetry_space_group_name_H-M    "P 1"
_symmetry_int_tables_number       1

loop_
  _symmetry_equiv_pos_as_xyz
  'x, y, z'

loop_
  _atom_site_label
  _atom_site_occupancy
  _atom_site_fract_x
  _atom_site_fract_y
  _atom_site_fract_z
  _atom_site_thermal_displace_type
  _atom_site_B_iso_or_equiv
  _atom_site_type_symbol
  C1       1.0000 0.49870  0.45133  0.38872  Biso   1.000  C
  C2       1.0000 0.44891  0.44679  0.33414  Biso   1.000  C
  H1       1.0000 0.51687  0.52608  0.39742  Biso   1.000  H
  H2       1.0000 0.55324  0.40517  0.39221  Biso   1.000  H
  H3       1.0000 0.45756  0.42541  0.41129  Biso   1.000  H
  C3       1.0000 0.42435  0.33228  0.31821  Biso   1.000  C
  C4       1.0000 0.36606  0.51992  0.32833  Biso   1.000  C
  C5       1.0000 0.51492  0.49012  0.29995  Biso   1.000  C
  C6       1.0000 0.42164  0.28247  0.27273  Biso   1.000  C
  N1       1.0000 0.39862  0.25543  0.35075  Biso   1.000  N
  C7       1.0000 0.35196  0.62213  0.30782  Biso   1.000  C
  N2       1.0000 0.28712  0.49198  0.34636  Biso   1.000  N
  H4       1.0000 0.48460  0.48826  0.26501  Biso   1.000  H
  H5       1.0000 0.56994  0.44469  0.30370  Biso   1.000  H
  H6       1.0000 0.53215  0.56479  0.30940  Biso   1.000  H
  C8       1.0000 0.39470  0.17436  0.27783  Biso   1.000  C
  H7       1.0000 0.43552  0.31511  0.24300  Biso   1.000  H
  C9       1.0000 0.38064  0.15727  0.32634  Biso   1.000  C
  H8       1.0000 0.39442  0.26733  0.38243  Biso   1.000  H
  H9       1.0000 0.39459  0.66302  0.29260  Biso   1.000  H
  C10      1.0000 0.26191  0.65500  0.31348  Biso   1.000  C
  C11      1.0000 0.22305  0.57329  0.33789  Biso   1.000  C
  H10      1.0000 0.27875  0.43027  0.36132  Biso   1.000  H
  H11      1.0000 0.38729  0.12156  0.25189  Biso   1.000  H
  C12      1.0000 0.34725  0.05790  0.35075  Biso   1.000  C
  H12      1.0000 0.23354  0.72157  0.30242  Biso   1.000  H
  C13      1.0000 0.13221  0.56868  0.35712  Biso   1.000  C
  C14      1.0000 0.24430  0.05232  0.33916  Biso   1.000  C
  C15      1.0000 0.37672  0.06203  0.40848  Biso   1.000  C
  C16      1.0000 0.38902  0.95611  0.33013  Biso   1.000  C
  C17      1.0000 0.07722  0.46817  0.34021  Biso   1.000  C
  C18      1.0000 0.15505  0.57370  0.41530  Biso   1.000  C
  C19      1.0000 0.07550  0.66918  0.33796  Biso   1.000  C
  N3       1.0000 0.19185  0.13128  0.35622  Biso   1.000  N
  C20      1.0000 0.18535  0.97668  0.31644  Biso   1.000  C
  H13      1.0000 0.44433  0.06139  0.41609  Biso   1.000  H
  H14      1.0000 0.35523  0.13103  0.42130  Biso   1.000  H
  C21      1.0000 0.33934  0.96769  0.43618  Biso   1.000  C
  H15      1.0000 0.36965  0.95190  0.29380  Biso   1.000  H
  H16      1.0000 0.36814  0.89140  0.34602  Biso   1.000  H
  H17      1.0000 0.45592  0.96032  0.33740  Biso   1.000  H
  N4       1.0000 0.09383  0.36848  0.36308  Biso   1.000  N
  C22      1.0000 0.00432  0.45489  0.30295  Biso   1.000  C
  H18      1.0000 0.20102  0.51709  0.42670  Biso   1.000  H
  H19      1.0000 0.18361  0.64472  0.42490  Biso   1.000  H
  C23      1.0000 0.07335  0.55855  0.44334  Biso   1.000  C
  H20      1.0000 0.06501  0.66942  0.30122  Biso   1.000  H
  H21      1.0000 0.10903  0.73486  0.35030  Biso   1.000  H
  H22      1.0000 0.01660  0.66731  0.35022  Biso   1.000  H
  C24      1.0000 0.09995  0.10730  0.34452  Biso   1.000  C
  H23      1.0000 0.21380  0.18967  0.37249  Biso   1.000  H
  C25      1.0000 0.09464  0.00996  0.31978  Biso   1.000  C
  H24      1.0000 0.20201  0.91221  0.30092  Biso   1.000  H
  C26      1.0000 0.32153  0.99984  0.48792  Biso   1.000  C
  H25      1.0000 0.28165  0.94161  0.41620  Biso   1.000  H
  H26      1.0000 0.38383  0.90727  0.43930  Biso   1.000  H
  C27      1.0000 0.03044  0.29292  0.34137  Biso   1.000  C
  H27      1.0000 0.13843  0.35488  0.38790  Biso   1.000  H
  C28      1.0000 0.97573  0.34548  0.30321  Biso   1.000  C
  H28      1.0000 0.97742  0.50956  0.28072  Biso   1.000  H
  H29      1.0000 0.02226  0.60601  0.42850  Biso   1.000  H
  H30      1.0000 0.05203  0.48251  0.44020  Biso   1.000  H
  C29      1.0000 0.10208  0.58665  0.49778  Biso   1.000  C
  C30      1.0000 0.02776  0.17881  0.36136  Biso   1.000  C
  H31      1.0000 0.04025  0.97182  0.30711  Biso   1.000  H
  O1       1.0000 0.28853  0.08811  0.49568  Biso   1.000  O
  N5       1.0000 0.34222  0.92201  0.52368  Biso   1.000  N
  H32      1.0000 0.92701  0.31390  0.28079  Biso   1.000  H
  N6       1.0000 0.13697  0.50445  0.52788  Biso   1.000  N
  O2       1.0000 0.09684  0.67768  0.51352  Biso   1.000  O
  C31      1.0000 0.04125  0.17987  0.41946  Biso   1.000  C
  C32      1.0000 0.93340  0.13047  0.34197  Biso   1.000  C
  Li1      1.0000 0.24108  0.14610  0.54993  Biso   1.000  Li
  C33      1.0000 0.33715  0.92468  0.57553  Biso   1.000  C
  H33      1.0000 0.36176  0.86046  0.51281  Biso   1.000  H
  C34      1.0000 0.16935  0.50656  0.57973  Biso   1.000  C
  H34      1.0000 0.13972  0.44129  0.51311  Biso   1.000  H
  H35      1.0000 0.10162  0.20983  0.43251  Biso   1.000  H
  H36      1.0000 0.03696  0.10577  0.43191  Biso   1.000  H
  H37      1.0000 0.99376  0.22481  0.43071  Biso   1.000  H
  H38      1.0000 0.88616  0.17266  0.35502  Biso   1.000  H
  H39      1.0000 0.93136  0.05523  0.35330  Biso   1.000  H
  H40      1.0000 0.92246  0.13257  0.30531  Biso   1.000  H
  N7       1.0000 0.29483  0.00810  0.59469  Biso   1.000  N
  O3       1.0000 0.29440  0.22902  0.60878  Biso   1.000  O
  O4       1.0000 0.12132  0.20206  0.55000  Biso   1.000  O
  C35      1.0000 0.37832  0.84014  0.60369  Biso   1.000  C
  N8       1.0000 0.17335  0.40905  0.60084  Biso   1.000  N
  C36      1.0000 0.19424  0.60172  0.60650  Biso   1.000  C
  C37      1.0000 0.29685  0.00818  0.64507  Biso   1.000  C
  C38      1.0000 0.25166  0.20530  0.65040  Biso   1.000  C
  C39      1.0000 0.38907  0.25146  0.61981  Biso   1.000  C
  C40      1.0000 0.04284  0.14642  0.56421  Biso   1.000  C
  H41      1.0000 0.11182  0.27211  0.55203  Biso   1.000  H
  C41      1.0000 0.37954  0.84127  0.65437  Biso   1.000  C
  H42      1.0000 0.40547  0.78199  0.58820  Biso   1.000  H
  C42      1.0000 0.20464  0.40120  0.65051  Biso   1.000  C
  C43      1.0000 0.22344  0.59240  0.65763  Biso   1.000  C
  H43      1.0000 0.19123  0.67007  0.59030  Biso   1.000  H
  C44      1.0000 0.25284  0.09953  0.66824  Biso   1.000  C
  C45      1.0000 0.33904  0.92638  0.67563  Biso   1.000  C
  C46      1.0000 0.21015  0.29082  0.67240  Biso   1.000  C
  H44      1.0000 0.39915  0.31195  0.64350  Biso   1.000  H
  H45      1.0000 0.41202  0.27089  0.58891  Biso   1.000  H
  H46      1.0000 0.42146  0.18732  0.63473  Biso   1.000  H
  H47      1.0000 0.04164  0.15743  0.60001  Biso   1.000  H
  H48      1.0000 0.04736  0.06884  0.55731  Biso   1.000  H
  H49      1.0000 0.98664  0.17549  0.54472  Biso   1.000  H
  H50      1.0000 0.40794  0.78418  0.67473  Biso   1.000  H
  C47      1.0000 0.22836  0.49239  0.67960  Biso   1.000  C
  H51      1.0000 0.23995  0.65517  0.67731  Biso   1.000  H
  C48      1.0000 0.21236  0.08147  0.71139  Biso   1.000  C
  H52      1.0000 0.34010  0.92914  0.71083  Biso   1.000  H
  C49      1.0000 0.17216  0.26936  0.71570  Biso   1.000  C
  H53      1.0000 0.24786  0.48550  0.71473  Biso   1.000  H
  C50      1.0000 0.17405  0.16578  0.73512  Biso   1.000  C
  H54      1.0000 0.21124  0.01020  0.72451  Biso   1.000  H
  H55      1.0000 0.14485  0.32653  0.73182  Biso   1.000  H
  H56      1.0000 0.14907  0.15209  0.76481  Biso   1.000  H
  C51      1.0000 0.50136  0.54867  0.61130  Biso   1.000  C
  C52      1.0000 0.55115  0.55321  0.66588  Biso   1.000  C
  H57      1.0000 0.48326  0.47392  0.60260  Biso   1.000  H
  H58      1.0000 0.44683  0.59475  0.60781  Biso   1.000  H
  H59      1.0000 0.54257  0.57459  0.58873  Biso   1.000  H
  C53      1.0000 0.63407  0.48008  0.67169  Biso   1.000  C
  C54      1.0000 0.57578  0.66772  0.68181  Biso   1.000  C
  C55      1.0000 0.48514  0.50988  0.70007  Biso   1.000  C
  N9       1.0000 0.71294  0.50802  0.65366  Biso   1.000  N
  C56      1.0000 0.64817  0.37787  0.69220  Biso   1.000  C
  C57      1.0000 0.57849  0.71744  0.72729  Biso   1.000  C
  N10      1.0000 0.60144  0.74457  0.64927  Biso   1.000  N
  H60      1.0000 0.51547  0.51166  0.73501  Biso   1.000  H
  H61      1.0000 0.43019  0.55531  0.69632  Biso   1.000  H
  H62      1.0000 0.46798  0.43521  0.69062  Biso   1.000  H
  C58      1.0000 0.77708  0.42671  0.66213  Biso   1.000  C
  H63      1.0000 0.72138  0.56965  0.63870  Biso   1.000  H
  C59      1.0000 0.73815  0.34500  0.68654  Biso   1.000  C
  H64      1.0000 0.60547  0.33698  0.70742  Biso   1.000  H
  C60      1.0000 0.60536  0.82556  0.72219  Biso   1.000  C
  H65      1.0000 0.56454  0.68489  0.75702  Biso   1.000  H
  C61      1.0000 0.61943  0.84265  0.67368  Biso   1.000  C
  H66      1.0000 0.60564  0.73267  0.61759  Biso   1.000  H
  C62      1.0000 0.86785  0.43132  0.64290  Biso   1.000  C
  H67      1.0000 0.76653  0.27843  0.69760  Biso   1.000  H
  H68      1.0000 0.61277  0.87836  0.74813  Biso   1.000  H
  C63      1.0000 0.65288  0.94210  0.64927  Biso   1.000  C
  C64      1.0000 0.84502  0.42630  0.58472  Biso   1.000  C
  C65      1.0000 0.92284  0.53183  0.65981  Biso   1.000  C
  C66      1.0000 0.92456  0.33082  0.66206  Biso   1.000  C
  C67      1.0000 0.62335  0.93797  0.59154  Biso   1.000  C
  C68      1.0000 0.75576  0.94768  0.66086  Biso   1.000  C
  C69      1.0000 0.61104  0.04389  0.66989  Biso   1.000  C
  C70      1.0000 0.92671  0.44137  0.55667  Biso   1.000  C
  H69      1.0000 0.79904  0.48291  0.57332  Biso   1.000  H
  H70      1.0000 0.81645  0.35528  0.57512  Biso   1.000  H
  C71      1.0000 0.99574  0.54511  0.69707  Biso   1.000  C
  N11      1.0000 0.90624  0.63152  0.63694  Biso   1.000  N
  H71      1.0000 0.93507  0.33058  0.69883  Biso   1.000  H
  H72      1.0000 0.89103  0.26506  0.64972  Biso   1.000  H
  H73      1.0000 0.98346  0.33269  0.64980  Biso   1.000  H
  C72      1.0000 0.66072  0.03231  0.56383  Biso   1.000  C
  H74      1.0000 0.55574  0.93861  0.58393  Biso   1.000  H
  H75      1.0000 0.64483  0.86897  0.57872  Biso   1.000  H
  N12      1.0000 0.80828  0.86864  0.64380  Biso   1.000  N
  C73      1.0000 0.81478  0.02324  0.68357  Biso   1.000  C
  H76      1.0000 0.63048  0.04810  0.70622  Biso   1.000  H
  H77      1.0000 0.63192  0.10860  0.65400  Biso   1.000  H
  H78      1.0000 0.54414  0.03968  0.66262  Biso   1.000  H
  C74      1.0000 0.89805  0.41327  0.50224  Biso   1.000  C
  H79      1.0000 0.97787  0.39399  0.57152  Biso   1.000  H
  H80      1.0000 0.94803  0.51749  0.55982  Biso   1.000  H
  H81      1.0000 0.02264  0.49036  0.71930  Biso   1.000  H
  C75      1.0000 0.02433  0.65452  0.69681  Biso   1.000  C
  C76      1.0000 0.96962  0.70708  0.65864  Biso   1.000  C
  H82      1.0000 0.86163  0.64512  0.61212  Biso   1.000  H
  C77      1.0000 0.67853  0.00016  0.51210  Biso   1.000  C
  H83      1.0000 0.71842  0.05839  0.58382  Biso   1.000  H
  H84      1.0000 0.61623  0.09265  0.56072  Biso   1.000  H
  C78      1.0000 0.90018  0.89270  0.65549  Biso   1.000  C
  H85      1.0000 0.78626  0.81025  0.62753  Biso   1.000  H
  C79      1.0000 0.90542  0.98996  0.68024  Biso   1.000  C
  H86      1.0000 0.79806  0.08779  0.69913  Biso   1.000  H
  N13      1.0000 0.86316  0.49546  0.47214  Biso   1.000  N
  O5       1.0000 0.90322  0.32232  0.48649  Biso   1.000  O
  H87      1.0000 0.07305  0.68610  0.71923  Biso   1.000  H
  C80      1.0000 0.97237  0.82119  0.63866  Biso   1.000  C
  O6       1.0000 0.71154  0.91189  0.50434  Biso   1.000  O
  N14      1.0000 0.65784  0.07799  0.47634  Biso   1.000  N
  H88      1.0000 0.95987  0.02818  0.69291  Biso   1.000  H
  C81      1.0000 0.83071  0.49336  0.42029  Biso   1.000  C
  H89      1.0000 0.86035  0.55871  0.48691  Biso   1.000  H
  C82      1.0000 0.95881  0.82005  0.58055  Biso   1.000  C
  C83      1.0000 0.06666  0.86945  0.65804  Biso   1.000  C
  Li2      1.0000 0.75905  0.85390  0.45009  Biso   1.000  Li
  C84      1.0000 0.66291  0.07523  0.42449  Biso   1.000  C
  H90      1.0000 0.63837  0.13946  0.48721  Biso   1.000  H
  C85      1.0000 0.80582  0.39828  0.39352  Biso   1.000  C
  N15      1.0000 0.82671  0.59086  0.39918  Biso   1.000  N
  H91      1.0000 0.89844  0.79017  0.56751  Biso   1.000  H
  H92      1.0000 0.96317  0.89415  0.56811  Biso   1.000  H
  H93      1.0000 0.00637  0.77519  0.56931  Biso   1.000  H
  H94      1.0000 0.11397  0.82726  0.64500  Biso   1.000  H
  H95      1.0000 0.06877  0.94477  0.64672  Biso   1.000  H
  H96      1.0000 0.07767  0.86735  0.69471  Biso   1.000  H
  O7       1.0000 0.70573  0.77098  0.39124  Biso   1.000  O
  N16      1.0000 0.70523  0.99190  0.40533  Biso   1.000  N
  O8       1.0000 0.87874  0.79786  0.45002  Biso   1.000  O
  C86      1.0000 0.62174  0.15986  0.39633  Biso   1.000  C
  C87      1.0000 0.77662  0.40760  0.34239  Biso   1.000  C
  H97      1.0000 0.80883  0.32993  0.40972  Biso   1.000  H
  C88      1.0000 0.79542  0.59880  0.34951  Biso   1.000  C
  C89      1.0000 0.74840  0.79470  0.34962  Biso   1.000  C
  C90      1.0000 0.61105  0.74846  0.38021  Biso   1.000  C
  C91      1.0000 0.70321  0.99174  0.35495  Biso   1.000  C
  C92      1.0000 0.95722  0.85358  0.43581  Biso   1.000  C
  H98      1.0000 0.88824  0.72789  0.44799  Biso   1.000  H
  C93      1.0000 0.62052  0.15865  0.34565  Biso   1.000  C
  H99      1.0000 0.59466  0.21793  0.41182  Biso   1.000  H
  H100     1.0000 0.76011  0.34475  0.32271  Biso   1.000  H
  C94      1.0000 0.77170  0.50761  0.32042  Biso   1.000  C
  C95      1.0000 0.78991  0.70918  0.32762  Biso   1.000  C
  C96      1.0000 0.74723  0.90047  0.33178  Biso   1.000  C
  H101     1.0000 0.60091  0.68797  0.35652  Biso   1.000  H
  H102     1.0000 0.58804  0.72911  0.41110  Biso   1.000  H
  H103     1.0000 0.57860  0.81268  0.36529  Biso   1.000  H
  C97      1.0000 0.66102  0.07353  0.32439  Biso   1.000  C
  H104     1.0000 0.95842  0.84257  0.40001  Biso   1.000  H
  H105     1.0000 0.95270  0.93116  0.44271  Biso   1.000  H
  H106     1.0000 0.01342  0.82451  0.45530  Biso   1.000  H
  H107     1.0000 0.59212  0.21574  0.32529  Biso   1.000  H
  H108     1.0000 0.75220  0.51450  0.28529  Biso   1.000  H
  C98      1.0000 0.82790  0.73056  0.28432  Biso   1.000  C
  C99      1.0000 0.78770  0.91845  0.28863  Biso   1.000  C
  H109     1.0000 0.66003  0.07086  0.28919  Biso   1.000  H
  H110     1.0000 0.85521  0.67347  0.26820  Biso   1.000  H
  C100     1.0000 0.82601  0.83414  0.26490  Biso   1.000  C
  H111     1.0000 0.78882  0.98980  0.27551  Biso   1.000  H
  H112     1.0000 0.85099  0.84791  0.23521  Biso   1.000  H
  C101     1.0000 0.60534  0.67436  0.22220  Biso   1.000  C
  C102     1.0000 0.61940  0.65727  0.17369  Biso   1.000  C
  H113     1.0000 0.61273  0.62156  0.24810  Biso   1.000  H
  C103     1.0000 0.57840  0.78247  0.22730  Biso   1.000  C
  C104     1.0000 0.65279  0.55790  0.14928  Biso   1.000  C
  N17      1.0000 0.60141  0.75534  0.14928  Biso   1.000  N
  C105     1.0000 0.57569  0.83228  0.18182  Biso   1.000  C
  H114     1.0000 0.56451  0.81511  0.25699  Biso   1.000  H
  C106     1.0000 0.61102  0.45611  0.16990  Biso   1.000  C
  C107     1.0000 0.75574  0.55232  0.16087  Biso   1.000  C
  C108     1.0000 0.62331  0.56195  0.09151  Biso   1.000  C
  H115     1.0000 0.60561  0.76725  0.11760  Biso   1.000  H
  C109     1.0000 0.55113  0.94679  0.16589  Biso   1.000  C
  H116     1.0000 0.63044  0.45190  0.20619  Biso   1.000  H
  H117     1.0000 0.63190  0.39140  0.15400  Biso   1.000  H
  H118     1.0000 0.54410  0.46032  0.16259  Biso   1.000  H
  C110     1.0000 0.81468  0.47668  0.18358  Biso   1.000  C
  N18      1.0000 0.80818  0.63128  0.14377  Biso   1.000  N
  C111     1.0000 0.66069  0.46769  0.06381  Biso   1.000  C
  H119     1.0000 0.55570  0.56139  0.08390  Biso   1.000  H
  H120     1.0000 0.64479  0.63095  0.07869  Biso   1.000  H
  C112     1.0000 0.48511  0.99004  0.20008  Biso   1.000  C
  C113     1.0000 0.50132  0.95125  0.11127  Biso   1.000  C
  C114     1.0000 0.63404  0.01984  0.17170  Biso   1.000  C
  C115     1.0000 0.90540  0.50996  0.18025  Biso   1.000  C
  H121     1.0000 0.79802  0.41221  0.19910  Biso   1.000  H
  C116     1.0000 0.90008  0.60730  0.15547  Biso   1.000  C
  H122     1.0000 0.78623  0.68967  0.12750  Biso   1.000  H
  C117     1.0000 0.67851  0.49976  0.01211  Biso   1.000  C
  H123     1.0000 0.71838  0.44161  0.08379  Biso   1.000  H
  H124     1.0000 0.61620  0.40727  0.06069  Biso   1.000  H
  H125     1.0000 0.51544  0.98826  0.23502  Biso   1.000  H
  H126     1.0000 0.43009  0.94469  0.19629  Biso   1.000  H
  H127     1.0000 0.46794  0.06479  0.19059  Biso   1.000  H
  H128     1.0000 0.44680  0.90517  0.10782  Biso   1.000  H
  H129     1.0000 0.54247  0.92541  0.08870  Biso   1.000  H
  H130     1.0000 0.48324  0.02608  0.10261  Biso   1.000  H
  N19      1.0000 0.71292  0.99198  0.15367  Biso   1.000  N
  C118     1.0000 0.64808  0.12204  0.19221  Biso   1.000  C
  H131     1.0000 0.95978  0.47182  0.19292  Biso   1.000  H
  C119     1.0000 0.97226  0.67881  0.13863  Biso   1.000  C
  O9       1.0000 0.71150  0.58811  0.00431  Biso   1.000  O
  N20      1.0000 0.65796  0.42201  0.97638  Biso   1.000  N
  H132     1.0000 0.72129  0.93027  0.13871  Biso   1.000  H
  C120     1.0000 0.77698  0.07329  0.16210  Biso   1.000  C
  H133     1.0000 0.60543  0.16294  0.20739  Biso   1.000  H
  C121     1.0000 0.73813  0.15500  0.18655  Biso   1.000  C
  C122     1.0000 0.96960  0.79284  0.15865  Biso   1.000  C
  C123     1.0000 0.95878  0.67987  0.08053  Biso   1.000  C
  C124     1.0000 0.06663  0.63047  0.15802  Biso   1.000  C
  Li3      1.0000 0.75910  0.64610  0.95014  Biso   1.000  Li
  C125     1.0000 0.66303  0.42468  0.92453  Biso   1.000  C
  H134     1.0000 0.63842  0.36046  0.98725  Biso   1.000  H
  C126     1.0000 0.86783  0.06868  0.14291  Biso   1.000  C
  H135     1.0000 0.76650  0.22157  0.19760  Biso   1.000  H
  N21      1.0000 0.90621  0.86848  0.13695  Biso   1.000  N
  C127     1.0000 0.02429  0.84548  0.19678  Biso   1.000  C
  H136     1.0000 0.89841  0.70975  0.06752  Biso   1.000  H
  H137     1.0000 0.96308  0.60577  0.06812  Biso   1.000  H
  H138     1.0000 0.00628  0.72481  0.06932  Biso   1.000  H
  H139     1.0000 0.11388  0.67266  0.14501  Biso   1.000  H
  H140     1.0000 0.06866  0.55515  0.14669  Biso   1.000  H
  H141     1.0000 0.07758  0.63257  0.19472  Biso   1.000  H
  N22      1.0000 0.70535  0.50810  0.90538  Biso   1.000  N
  O10      1.0000 0.70579  0.72894  0.89128  Biso   1.000  O
  O11      1.0000 0.87885  0.70206  0.95003  Biso   1.000  O
  C128     1.0000 0.62185  0.34006  0.89634  Biso   1.000  C
  C129     1.0000 0.92281  0.96817  0.15982  Biso   1.000  C
  C130     1.0000 0.84499  0.07370  0.08473  Biso   1.000  C
  C131     1.0000 0.92453  0.16918  0.16203  Biso   1.000  C
  H142     1.0000 0.86159  0.85488  0.11209  Biso   1.000  H
  C132     1.0000 0.99572  0.95489  0.19708  Biso   1.000  C
  H143     1.0000 0.07301  0.81390  0.21920  Biso   1.000  H
  C133     1.0000 0.70333  0.50818  0.85499  Biso   1.000  C
  C134     1.0000 0.74852  0.70530  0.84967  Biso   1.000  C
  C135     1.0000 0.61110  0.75146  0.88022  Biso   1.000  C
  C136     1.0000 0.95733  0.64642  0.93582  Biso   1.000  C
  H144     1.0000 0.88836  0.77211  0.94804  Biso   1.000  H
  C137     1.0000 0.62064  0.34127  0.84570  Biso   1.000  C
  H145     1.0000 0.59471  0.28199  0.91183  Biso   1.000  H
  H146     1.0000 0.79900  0.01709  0.07329  Biso   1.000  H
  H147     1.0000 0.81642  0.14464  0.07509  Biso   1.000  H
  C138     1.0000 0.92668  0.05855  0.05665  Biso   1.000  C
  H148     1.0000 0.93503  0.16934  0.19880  Biso   1.000  H
  H149     1.0000 0.89099  0.23486  0.14969  Biso   1.000  H
  H150     1.0000 0.98343  0.16723  0.14981  Biso   1.000  H
  H151     1.0000 0.02262  0.00956  0.21931  Biso   1.000  H
  C139     1.0000 0.74735  0.59945  0.83182  Biso   1.000  C
  C140     1.0000 0.66114  0.42638  0.82444  Biso   1.000  C
  C141     1.0000 0.79003  0.79082  0.82766  Biso   1.000  C
  H152     1.0000 0.60102  0.81195  0.85653  Biso   1.000  H
  H153     1.0000 0.58816  0.77089  0.91115  Biso   1.000  H
  H154     1.0000 0.57873  0.68732  0.86534  Biso   1.000  H
  H155     1.0000 0.95853  0.65735  0.90002  Biso   1.000  H
  H156     1.0000 0.95283  0.56876  0.94275  Biso   1.000  H
  H157     1.0000 0.01354  0.67549  0.95535  Biso   1.000  H
  H158     1.0000 0.59225  0.28418  0.82534  Biso   1.000  H
  H159     1.0000 0.94799  0.98251  0.05979  Biso   1.000  H
  H160     1.0000 0.97776  0.10601  0.07149  Biso   1.000  H
  C142     1.0000 0.89802  0.08665  0.00221  Biso   1.000  C
  C143     1.0000 0.78781  0.58147  0.78864  Biso   1.000  C
  H161     1.0000 0.66015  0.42906  0.78924  Biso   1.000  H
  C144     1.0000 0.79554  0.90120  0.84956  Biso   1.000  C
  C145     1.0000 0.82801  0.76936  0.78433  Biso   1.000  C
  N23      1.0000 0.86321  0.00445  0.97218  Biso   1.000  N
  O12      1.0000 0.90334  0.17768  0.98654  Biso   1.000  O
  C146     1.0000 0.82613  0.66578  0.76494  Biso   1.000  C
  H162     1.0000 0.78893  0.51020  0.77552  Biso   1.000  H
  C147     1.0000 0.77181  0.99239  0.82043  Biso   1.000  C
  N24      1.0000 0.82683  0.90905  0.89923  Biso   1.000  N
  H163     1.0000 0.85533  0.82645  0.76824  Biso   1.000  H
  C148     1.0000 0.83083  0.00656  0.92034  Biso   1.000  C
  H164     1.0000 0.86047  0.94129  0.98695  Biso   1.000  H
  H165     1.0000 0.85110  0.65209  0.73522  Biso   1.000  H
  H166     1.0000 0.75232  0.98550  0.78534  Biso   1.000  H
  C149     1.0000 0.77673  0.09240  0.84240  Biso   1.000  C
  C150     1.0000 0.80593  0.10164  0.89353  Biso   1.000  C
  H167     1.0000 0.76024  0.15517  0.82275  Biso   1.000  H
  H168     1.0000 0.80894  0.17007  0.90973  Biso   1.000  H
  C151     1.0000 0.39479  0.32556  0.77782  Biso   1.000  C
  C152     1.0000 0.42166  0.21753  0.77272  Biso   1.000  C
  C153     1.0000 0.38066  0.34273  0.82633  Biso   1.000  C
  H169     1.0000 0.38739  0.37836  0.75192  Biso   1.000  H
  H170     1.0000 0.43556  0.18489  0.74303  Biso   1.000  H
  C154     1.0000 0.42437  0.16772  0.81820  Biso   1.000  C
  N25      1.0000 0.39865  0.24457  0.85074  Biso   1.000  N
  C155     1.0000 0.34727  0.44210  0.85074  Biso   1.000  C
  C156     1.0000 0.44900  0.05321  0.83413  Biso   1.000  C
  H171     1.0000 0.39445  0.23267  0.88242  Biso   1.000  H
  C157     1.0000 0.24439  0.44768  0.83915  Biso   1.000  C
  C158     1.0000 0.37675  0.43797  0.90851  Biso   1.000  C
  C159     1.0000 0.38904  0.54389  0.83012  Biso   1.000  C
  C160     1.0000 0.51495  0.00988  0.79994  Biso   1.000  C
  C161     1.0000 0.49880  0.04867  0.88875  Biso   1.000  C
  C162     1.0000 0.36609  0.98008  0.82832  Biso   1.000  C
  C163     1.0000 0.18538  0.52332  0.81644  Biso   1.000  C
  N26      1.0000 0.19188  0.36872  0.85625  Biso   1.000  N
  C164     1.0000 0.33937  0.53231  0.93621  Biso   1.000  C
  H172     1.0000 0.44436  0.43861  0.91612  Biso   1.000  H
  H173     1.0000 0.35527  0.36897  0.92133  Biso   1.000  H
  H174     1.0000 0.36969  0.54810  0.79383  Biso   1.000  H
  H175     1.0000 0.36816  0.60860  0.84601  Biso   1.000  H
  H176     1.0000 0.45596  0.53968  0.83743  Biso   1.000  H
  H177     1.0000 0.48469  0.01166  0.76500  Biso   1.000  H
  H178     1.0000 0.56997  0.05531  0.80373  Biso   1.000  H
  H179     1.0000 0.53219  0.93521  0.80942  Biso   1.000  H
  H180     1.0000 0.55326  0.09483  0.89220  Biso   1.000  H
  H181     1.0000 0.45759  0.07459  0.91132  Biso   1.000  H
  H182     1.0000 0.51689  0.97392  0.89741  Biso   1.000  H
  N27      1.0000 0.28721  0.00802  0.84635  Biso   1.000  N
  C165     1.0000 0.35198  0.87787  0.80781  Biso   1.000  C
  C166     1.0000 0.09467  0.48996  0.81977  Biso   1.000  C
  H183     1.0000 0.20210  0.58779  0.80091  Biso   1.000  H
  C167     1.0000 0.09999  0.39270  0.84455  Biso   1.000  C
  H184     1.0000 0.21390  0.31025  0.87252  Biso   1.000  H
  C168     1.0000 0.32162  0.50016  0.98791  Biso   1.000  C
  H185     1.0000 0.28168  0.55839  0.91623  Biso   1.000  H
  H186     1.0000 0.38386  0.59265  0.93932  Biso   1.000  H
  H187     1.0000 0.27877  0.06973  0.86131  Biso   1.000  H
  C169     1.0000 0.22308  0.92671  0.83792  Biso   1.000  C
  H188     1.0000 0.39469  0.83698  0.79263  Biso   1.000  H
  C170     1.0000 0.26200  0.84500  0.81347  Biso   1.000  C
  H189     1.0000 0.04028  0.52818  0.80710  Biso   1.000  H
  C171     1.0000 0.02780  0.32119  0.86138  Biso   1.000  C
  O13      1.0000 0.28856  0.41189  0.99571  Biso   1.000  O
  N28      1.0000 0.34217  0.57799  0.02364  Biso   1.000  N
  C172     1.0000 0.13230  0.93132  0.85711  Biso   1.000  C
  H190     1.0000 0.23356  0.77843  0.80241  Biso   1.000  H
  C173     1.0000 0.03046  0.20708  0.84137  Biso   1.000  C
  C174     1.0000 0.04128  0.32005  0.91949  Biso   1.000  C
  C175     1.0000 0.93350  0.36945  0.84200  Biso   1.000  C
  Li4      1.0000 0.24096  0.35390  0.04988  Biso   1.000  Li
  C176     1.0000 0.33704  0.57532  0.07552  Biso   1.000  C
  H191     1.0000 0.36164  0.63946  0.01277  Biso   1.000  H
  C177     1.0000 0.07725  0.03183  0.84020  Biso   1.000  C
  C178     1.0000 0.15507  0.92630  0.91529  Biso   1.000  C
  C179     1.0000 0.07560  0.83082  0.83799  Biso   1.000  C
  N29      1.0000 0.09385  0.13152  0.86307  Biso   1.000  N
  C180     1.0000 0.97577  0.15452  0.80324  Biso   1.000  C
  H192     1.0000 0.10171  0.29017  0.93250  Biso   1.000  H
  H193     1.0000 0.03699  0.39415  0.93190  Biso   1.000  H
  H194     1.0000 0.99378  0.27519  0.93070  Biso   1.000  H
  H195     1.0000 0.88618  0.32726  0.85501  Biso   1.000  H
  H196     1.0000 0.93140  0.44477  0.85332  Biso   1.000  H
  H197     1.0000 0.92248  0.36743  0.80530  Biso   1.000  H
  N30      1.0000 0.29478  0.49190  0.09464  Biso   1.000  N
  O14      1.0000 0.29428  0.27098  0.10874  Biso   1.000  O
  O15      1.0000 0.12128  0.29786  0.04999  Biso   1.000  O
  C181     1.0000 0.37828  0.65986  0.10368  Biso   1.000  C
  C182     1.0000 0.00435  0.04511  0.80294  Biso   1.000  C
  H198     1.0000 0.20106  0.98291  0.92673  Biso   1.000  H
  H199     1.0000 0.18371  0.85528  0.92493  Biso   1.000  H
  C183     1.0000 0.07339  0.94137  0.94337  Biso   1.000  C
  H200     1.0000 0.06510  0.83058  0.80121  Biso   1.000  H
  H201     1.0000 0.10907  0.76514  0.85033  Biso   1.000  H
  H202     1.0000 0.01670  0.83269  0.85021  Biso   1.000  H
  H203     1.0000 0.13847  0.14512  0.88793  Biso   1.000  H
  H204     1.0000 0.92705  0.18610  0.78082  Biso   1.000  H
  C184     1.0000 0.29673  0.49182  0.14503  Biso   1.000  C
  C185     1.0000 0.25154  0.29470  0.15035  Biso   1.000  C
  C186     1.0000 0.38896  0.24846  0.11980  Biso   1.000  C
  C187     1.0000 0.04279  0.35358  0.06420  Biso   1.000  C
  H205     1.0000 0.11177  0.22789  0.05198  Biso   1.000  H
  C188     1.0000 0.37942  0.65865  0.15432  Biso   1.000  C
  H206     1.0000 0.40536  0.71801  0.08819  Biso   1.000  H
  H207     1.0000 0.97745  0.99036  0.78071  Biso   1.000  H
  H208     1.0000 0.05207  0.01749  0.94022  Biso   1.000  H
  H209     1.0000 0.02230  0.89399  0.92853  Biso   1.000  H
  C189     1.0000 0.10211  0.91327  0.99781  Biso   1.000  C
  C190     1.0000 0.25278  0.40047  0.16819  Biso   1.000  C
  C191     1.0000 0.33899  0.57362  0.17558  Biso   1.000  C
  C192     1.0000 0.21003  0.20918  0.17236  Biso   1.000  C
  H210     1.0000 0.39904  0.18797  0.14349  Biso   1.000  H
  H211     1.0000 0.41197  0.22911  0.08887  Biso   1.000  H
  H212     1.0000 0.42134  0.31268  0.13468  Biso   1.000  H
  H213     1.0000 0.98658  0.32451  0.04467  Biso   1.000  H
  H214     1.0000 0.04160  0.34257  0.10000  Biso   1.000  H
  H215     1.0000 0.04724  0.43116  0.05726  Biso   1.000  H
  H216     1.0000 0.40788  0.71574  0.17468  Biso   1.000  H
  N31      1.0000 0.13685  0.99546  0.02784  Biso   1.000  N
  O16      1.0000 0.09672  0.82232  0.01348  Biso   1.000  O
  C193     1.0000 0.21225  0.41853  0.21138  Biso   1.000  C
  H217     1.0000 0.33998  0.57086  0.21078  Biso   1.000  H
  C194     1.0000 0.20459  0.09880  0.15046  Biso   1.000  C
  C195     1.0000 0.17205  0.23056  0.21569  Biso   1.000  C
  C196     1.0000 0.16923  0.99344  0.07968  Biso   1.000  C
  H218     1.0000 0.13966  0.05871  0.01306  Biso   1.000  H
  C197     1.0000 0.17400  0.33422  0.23507  Biso   1.000  C
  H219     1.0000 0.21120  0.48980  0.22450  Biso   1.000  H
  N32      1.0000 0.17323  0.09086  0.10079  Biso   1.000  N
  C198     1.0000 0.22825  0.00761  0.17959  Biso   1.000  C
  H220     1.0000 0.14480  0.17347  0.23178  Biso   1.000  H
  C199     1.0000 0.19413  0.89828  0.10649  Biso   1.000  C
  H221     1.0000 0.14896  0.34791  0.26480  Biso   1.000  H
  C200     1.0000 0.22333  0.90760  0.15762  Biso   1.000  C
  H222     1.0000 0.24774  0.01450  0.21468  Biso   1.000  H
  H223     1.0000 0.19119  0.82993  0.09029  Biso   1.000  H
  H224     1.0000 0.23983  0.84483  0.17727  Biso   1.000  H
