data_image0
_cell_length_a       9.7
_cell_length_b       12.142
_cell_length_c       20.293
_cell_angle_alpha    93.67
_cell_angle_beta     101.17
_cell_angle_gamma    102.19

_symmetry_space_group_name_H-M    "P 1"
_symmetry_int_tables_number       1

loop_
  _symmetry_equiv_pos_as_xyz
  'x, y, z'

loop_
  _atom_site_label
  _atom_site_occupancy
  _atom_site_fract_x
  _atom_site_fract_y
  _atom_site_fract_z
  _atom_site_thermal_displace_type
  _atom_site_B_iso_or_equiv
  _atom_site_type_symbol
  C1       1.0000 0.60579  0.37970  0.49876  Biso   1.000  C
  C2       1.0000 0.48252  0.30301  0.50558  Biso   1.000  C
  C3       1.0000 0.61780  0.40090  0.43292  Biso   1.000  C
  H1       1.0000 0.67844  0.41586  0.53691  Biso   1.000  H
  C4       1.0000 0.37791  0.25052  0.44909  Biso   1.000  C
  H2       1.0000 0.46939  0.28618  0.54929  Biso   1.000  H
  N1       1.0000 0.51922  0.35076  0.37778  Biso   1.000  N
  N2       1.0000 0.73437  0.47637  0.41669  Biso   1.000  N
  C5       1.0000 0.40083  0.27612  0.38567  Biso   1.000  C
  H3       1.0000 0.29306  0.19861  0.45368  Biso   1.000  H
  C6       1.0000 0.84820  0.55009  0.45894  Biso   1.000  C
  H4       1.0000 0.73429  0.47632  0.37329  Biso   1.000  H
  C7       1.0000 0.30188  0.22014  0.32124  Biso   1.000  C
  C8       1.0000 0.94935  0.62052  0.42119  Biso   1.000  C
  O1       1.0000 0.86533  0.55976  0.52034  Biso   1.000  O
  C9       1.0000 0.26397  0.28186  0.26681  Biso   1.000  C
  C10      1.0000 0.25825  0.10146  0.31133  Biso   1.000  C
  H5       1.0000 0.89163  0.64118  0.38001  Biso   1.000  H
  C11      1.0000 0.04218  0.72886  0.46384  Biso   1.000  C
  H6       1.0000 0.01318  0.57424  0.40689  Biso   1.000  H
  C12      1.0000 0.19370  0.22563  0.20284  Biso   1.000  C
  O2       1.0000 0.29485  0.39875  0.27338  Biso   1.000  O
  C13      1.0000 0.18310  0.04490  0.24877  Biso   1.000  C
  H7       1.0000 0.28047  0.05899  0.34807  Biso   1.000  H
  H8       1.0000 0.99346  0.74783  0.50018  Biso   1.000  H
  C14      1.0000 0.07265  0.83346  0.42453  Biso   1.000  C
  H9       1.0000 0.13560  0.71341  0.48567  Biso   1.000  H
  C15      1.0000 0.15323  0.10700  0.19460  Biso   1.000  C
  C16      1.0000 0.16726  0.29108  0.14351  Biso   1.000  C
  C17      1.0000 0.23776  0.45038  0.32422  Biso   1.000  C
  H10      1.0000 0.15246  0.96457  0.24311  Biso   1.000  H
  C18      1.0000 0.93272  0.86958  0.39911  Biso   1.000  C
  C19      1.0000 0.14244  0.80871  0.36636  Biso   1.000  C
  C20      1.0000 0.17671  0.92946  0.47521  Biso   1.000  C
  H11      1.0000 0.10482  0.06848  0.15140  Biso   1.000  H
  C21      1.0000 0.02966  0.28132  0.10364  Biso   1.000  C
  N3       1.0000 0.28592  0.35966  0.13108  Biso   1.000  N
  H12      1.0000 0.13402  0.41730  0.31750  Biso   1.000  H
  H13      1.0000 0.25333  0.53204  0.32109  Biso   1.000  H
  H14      1.0000 0.28673  0.43711  0.36899  Biso   1.000  H
  C22      1.0000 0.79453  0.83008  0.40795  Biso   1.000  C
  N4       1.0000 0.92843  0.95904  0.36045  Biso   1.000  N
  C23      1.0000 0.28555  0.82093  0.36404  Biso   1.000  C
  N5       1.0000 0.06167  0.75802  0.30365  Biso   1.000  N
  H15      1.0000 0.19886  0.99771  0.45227  Biso   1.000  H
  H16      1.0000 0.26615  0.90581  0.49280  Biso   1.000  H
  H17      1.0000 0.13119  0.94587  0.51271  Biso   1.000  H
  C24      1.0000 0.01554  0.34232  0.04811  Biso   1.000  C
  H18      1.0000 0.94753  0.23390  0.11431  Biso   1.000  H
  C25      1.0000 0.26918  0.41982  0.07828  Biso   1.000  C
  H19      1.0000 0.76395  0.76878  0.43251  Biso   1.000  H
  C26      1.0000 0.70485  0.89771  0.37379  Biso   1.000  C
  C27      1.0000 0.79059  0.97773  0.34519  Biso   1.000  C
  H20      1.0000 0.00338  0.99867  0.34731  Biso   1.000  H
  C28      1.0000 0.29202  0.77670  0.29845  Biso   1.000  C
  H21      1.0000 0.36571  0.85320  0.39987  Biso   1.000  H
  H22      1.0000 0.96673  0.74119  0.29228  Biso   1.000  H
  C29      1.0000 0.15214  0.73809  0.26161  Biso   1.000  C
  C30      1.0000 0.13676  0.41255  0.03406  Biso   1.000  C
  H23      1.0000 0.92336  0.33612  0.01981  Biso   1.000  H
  N6       1.0000 0.40109  0.49400  0.07479  Biso   1.000  N
  H24      1.0000 0.60428  0.88882  0.37132  Biso   1.000  H
  C31      1.0000 0.75053  0.06963  0.30239  Biso   1.000  C
  H25      1.0000 0.37730  0.77406  0.28268  Biso   1.000  H
  C32      1.0000 0.09509  0.68337  0.18935  Biso   1.000  C
  H26      1.0000 0.12991  0.45408  0.99591  Biso   1.000  H
  C33      1.0000 0.42147  0.58913  0.04220  Biso   1.000  C
  H27      1.0000 0.47994  0.47640  0.09642  Biso   1.000  H
  C34      1.0000 0.67778  0.01466  0.23149  Biso   1.000  C
  C35      1.0000 0.88466  0.16477  0.30244  Biso   1.000  C
  C36      1.0000 0.64226  0.12236  0.33306  Biso   1.000  C
  C37      1.0000 0.03069  0.76256  0.14336  Biso   1.000  C
  C38      1.0000 0.97970  0.57236  0.18637  Biso   1.000  C
  C39      1.0000 0.22244  0.65356  0.16282  Biso   1.000  C
  C40      1.0000 0.56973  0.66861  0.06898  Biso   1.000  C
  O3       1.0000 0.32762  0.60927  0.99768  Biso   1.000  O
  N7       1.0000 0.75387  0.97586  0.18763  Biso   1.000  N
  C41      1.0000 0.53378  0.98366  0.19986  Biso   1.000  C
  H28      1.0000 0.93035  0.19709  0.34908  Biso   1.000  H
  H29      1.0000 0.85521  0.22428  0.27642  Biso   1.000  H
  H30      1.0000 0.95364  0.13338  0.28197  Biso   1.000  H
  H31      1.0000 0.55642  0.06322  0.33357  Biso   1.000  H
  H32      1.0000 0.61414  0.18087  0.30567  Biso   1.000  H
  H33      1.0000 0.68748  0.15648  0.37940  Biso   1.000  H
  N8       1.0000 0.89267  0.77947  0.13952  Biso   1.000  N
  C42      1.0000 0.08749  0.82332  0.09611  Biso   1.000  C
  H34      1.0000 0.89939  0.58916  0.20491  Biso   1.000  H
  H35      1.0000 0.94392  0.53879  0.13932  Biso   1.000  H
  H36      1.0000 0.02274  0.51886  0.21300  Biso   1.000  H
  H37      1.0000 0.18908  0.62023  0.11572  Biso   1.000  H
  H38      1.0000 0.26131  0.59895  0.19031  Biso   1.000  H
  H39      1.0000 0.29812  0.72251  0.16570  Biso   1.000  H
  H40      1.0000 0.57772  0.69545  0.11698  Biso   1.000  H
  H41      1.0000 0.64519  0.62562  0.06701  Biso   1.000  H
  C43      1.0000 0.59771  0.77119  0.02966  Biso   1.000  C
  C44      1.0000 0.66109  0.92027  0.12901  Biso   1.000  C
  H42      1.0000 0.84836  0.98521  0.19592  Biso   1.000  H
  C45      1.0000 0.52332  0.92497  0.13578  Biso   1.000  C
  H43      1.0000 0.45562  0.99885  0.21790  Biso   1.000  H
  C46      1.0000 0.86030  0.84870  0.08980  Biso   1.000  C
  H44      1.0000 0.83380  0.75037  0.16509  Biso   1.000  H
  C47      1.0000 0.98020  0.87689  0.06251  Biso   1.000  C
  H45      1.0000 0.18127  0.82872  0.08742  Biso   1.000  H
  C48      1.0000 0.71273  0.87607  0.06903  Biso   1.000  C
  H46      1.0000 0.50565  0.79430  0.01511  Biso   1.000  H
  H47      1.0000 0.62912  0.74777  0.98838  Biso   1.000  H
  H48      1.0000 0.43683  0.89437  0.10309  Biso   1.000  H
  H49      1.0000 0.99013  0.92402  0.02729  Biso   1.000  H
  C49      1.0000 0.72387  0.96858  0.01991  Biso   1.000  C
  H50      1.0000 0.63071  0.98943  0.00768  Biso   1.000  H
  H51      1.0000 0.74988  0.93927  0.97908  Biso   1.000  H
  H52      1.0000 0.79801  0.03556  0.04189  Biso   1.000  H
  C50      1.0000 0.39400  0.62029  0.50124  Biso   1.000  C
  C51      1.0000 0.38199  0.59909  0.56708  Biso   1.000  C
  H53      1.0000 0.32143  0.58405  0.46308  Biso   1.000  H
  C52      1.0000 0.51727  0.69698  0.49441  Biso   1.000  C
  N9       1.0000 0.26540  0.52354  0.58330  Biso   1.000  N
  N10      1.0000 0.48068  0.64923  0.62221  Biso   1.000  N
  H54      1.0000 0.53040  0.71381  0.45070  Biso   1.000  H
  C53      1.0000 0.62186  0.74939  0.55091  Biso   1.000  C
  C54      1.0000 0.15157  0.44989  0.54101  Biso   1.000  C
  H55      1.0000 0.26550  0.52367  0.62671  Biso   1.000  H
  C55      1.0000 0.59904  0.72386  0.61428  Biso   1.000  C
  H56      1.0000 0.70683  0.80138  0.54631  Biso   1.000  H
  O4       1.0000 0.13446  0.44023  0.47966  Biso   1.000  O
  C56      1.0000 0.05052  0.37939  0.57880  Biso   1.000  C
  C57      1.0000 0.69799  0.77977  0.67876  Biso   1.000  C
  H57      1.0000 0.10814  0.35872  0.61999  Biso   1.000  H
  C58      1.0000 0.95759  0.27112  0.53610  Biso   1.000  C
  H58      1.0000 0.98659  0.42566  0.59311  Biso   1.000  H
  C59      1.0000 0.73590  0.71805  0.73318  Biso   1.000  C
  C60      1.0000 0.74160  0.89844  0.68861  Biso   1.000  C
  H59      1.0000 0.00628  0.25207  0.49977  Biso   1.000  H
  C61      1.0000 0.92722  0.16652  0.57542  Biso   1.000  C
  H60      1.0000 0.86417  0.28658  0.51427  Biso   1.000  H
  C62      1.0000 0.80620  0.77436  0.79716  Biso   1.000  C
  O5       1.0000 0.70494  0.60124  0.72661  Biso   1.000  O
  C63      1.0000 0.81679  0.95509  0.75122  Biso   1.000  C
  H61      1.0000 0.71940  0.94099  0.65187  Biso   1.000  H
  C64      1.0000 0.06705  0.13033  0.60089  Biso   1.000  C
  C65      1.0000 0.85733  0.19119  0.63363  Biso   1.000  C
  C66      1.0000 0.82308  0.07053  0.52478  Biso   1.000  C
  C67      1.0000 0.84654  0.89291  0.80539  Biso   1.000  C
  C68      1.0000 0.83253  0.70891  0.85648  Biso   1.000  C
  C69      1.0000 0.76209  0.54952  0.67573  Biso   1.000  C
  H62      1.0000 0.84731  0.03534  0.75688  Biso   1.000  H
  C70      1.0000 0.20532  0.16982  0.59199  Biso   1.000  C
  N11      1.0000 0.07133  0.04087  0.63954  Biso   1.000  N
  C71      1.0000 0.71430  0.17897  0.63591  Biso   1.000  C
  N12      1.0000 0.93818  0.24187  0.69629  Biso   1.000  N
  H63      1.0000 0.80101  0.00227  0.54768  Biso   1.000  H
  H64      1.0000 0.73375  0.09418  0.50720  Biso   1.000  H
  H65      1.0000 0.86857  0.05404  0.48729  Biso   1.000  H
  H66      1.0000 0.89505  0.93143  0.84860  Biso   1.000  H
  C72      1.0000 0.97011  0.71859  0.89635  Biso   1.000  C
  N13      1.0000 0.71395  0.64032  0.86886  Biso   1.000  N
  H67      1.0000 0.86577  0.58270  0.68250  Biso   1.000  H
  H68      1.0000 0.74644  0.46787  0.67891  Biso   1.000  H
  H69      1.0000 0.71306  0.56288  0.63100  Biso   1.000  H
  H70      1.0000 0.23592  0.23113  0.56748  Biso   1.000  H
  C73      1.0000 0.29494  0.10229  0.62620  Biso   1.000  C
  C74      1.0000 0.20928  0.02218  0.65481  Biso   1.000  C
  H71      1.0000 0.99649  0.00123  0.65268  Biso   1.000  H
  C75      1.0000 0.70788  0.22329  0.70155  Biso   1.000  C
  H72      1.0000 0.63406  0.14678  0.60008  Biso   1.000  H
  H73      1.0000 0.03304  0.25879  0.70766  Biso   1.000  H
  C76      1.0000 0.84765  0.26190  0.73839  Biso   1.000  C
  C77      1.0000 0.98422  0.65758  0.95189  Biso   1.000  C
  H74      1.0000 0.05236  0.76609  0.88569  Biso   1.000  H
  C78      1.0000 0.73059  0.58009  0.92172  Biso   1.000  C
  H75      1.0000 0.39562  0.11117  0.62868  Biso   1.000  H
  C79      1.0000 0.24934  0.93035  0.69756  Biso   1.000  C
  H76      1.0000 0.62244  0.22584  0.71726  Biso   1.000  H
  C80      1.0000 0.90480  0.31662  0.81065  Biso   1.000  C
  C81      1.0000 0.86298  0.58735  0.96589  Biso   1.000  C
  H77      1.0000 0.07643  0.66387  0.98019  Biso   1.000  H
  N14      1.0000 0.59881  0.50599  0.92521  Biso   1.000  N
  C82      1.0000 0.32209  0.98525  0.76850  Biso   1.000  C
  C83      1.0000 0.11508  0.83513  0.69751  Biso   1.000  C
  C84      1.0000 0.35762  0.87762  0.66688  Biso   1.000  C
  C85      1.0000 0.02020  0.42763  0.81363  Biso   1.000  C
  C86      1.0000 0.96908  0.23735  0.85663  Biso   1.000  C
  C87      1.0000 0.77733  0.34642  0.83713  Biso   1.000  C
  H78      1.0000 0.86989  0.54592  0.00409  Biso   1.000  H
  C88      1.0000 0.57827  0.41077  0.95775  Biso   1.000  C
  H79      1.0000 0.51993  0.52351  0.90358  Biso   1.000  H
  C89      1.0000 0.46599  0.01625  0.80014  Biso   1.000  C
  N15      1.0000 0.24592  0.02414  0.81237  Biso   1.000  N
  H80      1.0000 0.06952  0.80289  0.65086  Biso   1.000  H
  H81      1.0000 0.14459  0.77571  0.72358  Biso   1.000  H
  H82      1.0000 0.04623  0.86661  0.71797  Biso   1.000  H
  H83      1.0000 0.44343  0.93668  0.66638  Biso   1.000  H
  H84      1.0000 0.38573  0.81912  0.69427  Biso   1.000  H
  H85      1.0000 0.31231  0.84351  0.62060  Biso   1.000  H
  H86      1.0000 0.10048  0.41074  0.79509  Biso   1.000  H
  H87      1.0000 0.05595  0.46112  0.86068  Biso   1.000  H
  H88      1.0000 0.97703  0.48105  0.78700  Biso   1.000  H
  N16      1.0000 0.10707  0.22043  0.86042  Biso   1.000  N
  C90      1.0000 0.91227  0.17659  0.90388  Biso   1.000  C
  H89      1.0000 0.81071  0.37976  0.88428  Biso   1.000  H
  H90      1.0000 0.73856  0.40095  0.80969  Biso   1.000  H
  H91      1.0000 0.70177  0.27748  0.83430  Biso   1.000  H
  C91      1.0000 0.43012  0.33129  0.93097  Biso   1.000  C
  O6       1.0000 0.67225  0.39071  0.00227  Biso   1.000  O
  H92      1.0000 0.54425  0.00106  0.78210  Biso   1.000  H
  C92      1.0000 0.47655  0.07494  0.86421  Biso   1.000  C
  C93      1.0000 0.33870  0.07972  0.87099  Biso   1.000  C
  H93      1.0000 0.15143  0.01478  0.80408  Biso   1.000  H
  C94      1.0000 0.13955  0.15120  0.91015  Biso   1.000  C
  H94      1.0000 0.16607  0.24954  0.83491  Biso   1.000  H
  C95      1.0000 0.01957  0.12302  0.93749  Biso   1.000  C
  H95      1.0000 0.81852  0.17127  0.91257  Biso   1.000  H
  C96      1.0000 0.40208  0.22881  0.97033  Biso   1.000  C
  H96      1.0000 0.42213  0.30444  0.88296  Biso   1.000  H
  H97      1.0000 0.35460  0.37438  0.93299  Biso   1.000  H
  H98      1.0000 0.56302  0.10553  0.89686  Biso   1.000  H
  C97      1.0000 0.28712  0.12383  0.93092  Biso   1.000  C
  H99      1.0000 0.00974  0.07597  0.97266  Biso   1.000  H
  H100     1.0000 0.49422  0.20561  0.98489  Biso   1.000  H
  H101     1.0000 0.37077  0.25222  0.01162  Biso   1.000  H
  C98      1.0000 0.27590  0.03140  0.98004  Biso   1.000  C
  H102     1.0000 0.36905  0.01056  0.99226  Biso   1.000  H
  H103     1.0000 0.20186  0.96435  0.95810  Biso   1.000  H
  H104     1.0000 0.24991  0.06073  0.02092  Biso   1.000  H
