data_image0
_cell_length_a       24.681
_cell_length_b       24.681
_cell_length_c       11.009
_cell_angle_alpha    90
_cell_angle_beta     90
_cell_angle_gamma    120

_symmetry_space_group_name_H-M    "P 1"
_symmetry_int_tables_number       1

loop_
  _symmetry_equiv_pos_as_xyz
  'x, y, z'

loop_
  _atom_site_label
  _atom_site_occupancy
  _atom_site_fract_x
  _atom_site_fract_y
  _atom_site_fract_z
  _atom_site_thermal_displace_type
  _atom_site_B_iso_or_equiv
  _atom_site_type_symbol
  C1       1.0000 0.48384  0.48918  0.51712  Biso   1.000  C
  C2       1.0000 0.50524  0.44259  0.48787  Biso   1.000  C
  H1       1.0000 0.44501  0.47884  0.47270  Biso   1.000  H
  H2       1.0000 0.51662  0.53237  0.49605  Biso   1.000  H
  C3       1.0000 0.47223  0.48217  0.65601  Biso   1.000  C
  N1       1.0000 0.53834  0.45498  0.37260  Biso   1.000  N
  C4       1.0000 0.54863  0.45288  0.59515  Biso   1.000  C
  H3       1.0000 0.46885  0.39898  0.48924  Biso   1.000  H
  C5       1.0000 0.50853  0.45208  0.70333  Biso   1.000  C
  H4       1.0000 0.48734  0.52357  0.69416  Biso   1.000  H
  H5       1.0000 0.42702  0.45536  0.67345  Biso   1.000  H
  C6       1.0000 0.51513  0.41068  0.29249  Biso   1.000  C
  N2       1.0000 0.56443  0.40385  0.60269  Biso   1.000  N
  H6       1.0000 0.58751  0.49466  0.58870  Biso   1.000  H
  H7       1.0000 0.47964  0.40857  0.73031  Biso   1.000  H
  H8       1.0000 0.53544  0.47618  0.77264  Biso   1.000  H
  C7       1.0000 0.54342  0.41676  0.17440  Biso   1.000  C
  H9       1.0000 0.47823  0.37269  0.31193  Biso   1.000  H
  C8       1.0000 0.62183  0.42027  0.60051  Biso   1.000  C
  C9       1.0000 0.59882  0.46785  0.13989  Biso   1.000  C
  C10      1.0000 0.51213  0.36796  0.09292  Biso   1.000  C
  C11      1.0000 0.64466  0.37559  0.60514  Biso   1.000  C
  H10      1.0000 0.65176  0.46369  0.59560  Biso   1.000  H
  H11      1.0000 0.62062  0.50116  0.19566  Biso   1.000  H
  C12      1.0000 0.62384  0.47178  0.02480  Biso   1.000  C
  H12      1.0000 0.47371  0.33245  0.11645  Biso   1.000  H
  C13      1.0000 0.53615  0.36998  0.97629  Biso   1.000  C
  C14      1.0000 0.70814  0.39678  0.60505  Biso   1.000  C
  C15      1.0000 0.60323  0.31135  0.60505  Biso   1.000  C
  C16      1.0000 0.59172  0.42205  0.94595  Biso   1.000  C
  C17      1.0000 0.68113  0.52825  0.98628  Biso   1.000  C
  C18      1.0000 0.50662  0.32024  0.88791  Biso   1.000  C
  C19      1.0000 0.73095  0.35538  0.60514  Biso   1.000  C
  H13      1.0000 0.73675  0.44048  0.60496  Biso   1.000  H
  C20      1.0000 0.62442  0.26906  0.60514  Biso   1.000  C
  H14      1.0000 0.55955  0.29629  0.60496  Biso   1.000  H
  H15      1.0000 0.60893  0.42406  0.86774  Biso   1.000  H
  H16      1.0000 0.70673  0.55847  0.04505  Biso   1.000  H
  N3       1.0000 0.69665  0.53719  0.87610  Biso   1.000  N
  N4       1.0000 0.45013  0.27556  0.89300  Biso   1.000  N
  H17      1.0000 0.53120  0.32095  0.82087  Biso   1.000  H
  C21      1.0000 0.68861  0.29184  0.60505  Biso   1.000  C
  C22      1.0000 0.79842  0.37816  0.60051  Biso   1.000  C
  C23      1.0000 0.57973  0.20155  0.60051  Biso   1.000  C
  C24      1.0000 0.75573  0.59188  0.84386  Biso   1.000  C
  C25      1.0000 0.42854  0.22948  0.79671  Biso   1.000  C
  H18      1.0000 0.70373  0.26326  0.60496  Biso   1.000  H
  N5       1.0000 0.83944  0.43557  0.60269  Biso   1.000  N
  H19      1.0000 0.81195  0.34827  0.59560  Biso   1.000  H
  N6       1.0000 0.59615  0.16057  0.60269  Biso   1.000  N
  H20      1.0000 0.53632  0.18808  0.59560  Biso   1.000  H
  C26      1.0000 0.80095  0.57148  0.79671  Biso   1.000  C
  H21      1.0000 0.77402  0.61915  0.91689  Biso   1.000  H
  C27      1.0000 0.74954  0.62959  0.74148  Biso   1.000  C
  H22      1.0000 0.46343  0.24164  0.73731  Biso   1.000  H
  C28      1.0000 0.40815  0.16389  0.84386  Biso   1.000  C
  C29      1.0000 0.37183  0.21937  0.72940  Biso   1.000  C
  C30      1.0000 0.90423  0.45138  0.59515  Biso   1.000  C
  C31      1.0000 0.54713  0.09577  0.59515  Biso   1.000  C
  N7       1.0000 0.82544  0.54986  0.89300  Biso   1.000  N
  H23      1.0000 0.77824  0.53658  0.73731  Biso   1.000  H
  C32      1.0000 0.84754  0.62818  0.72940  Biso   1.000  C
  H24      1.0000 0.74935  0.66697  0.77337  Biso   1.000  H
  H25      1.0000 0.71062  0.60385  0.69489  Biso   1.000  H
  C33      1.0000 0.80854  0.64905  0.66010  Biso   1.000  C
  N8       1.0000 0.46283  0.15949  0.87610  Biso   1.000  N
  H26      1.0000 0.38082  0.15486  0.91689  Biso   1.000  H
  C34      1.0000 0.37042  0.11996  0.74148  Biso   1.000  C
  C35      1.0000 0.35093  0.15949  0.66010  Biso   1.000  C
  H27      1.0000 0.38201  0.25456  0.67318  Biso   1.000  H
  H28      1.0000 0.33885  0.21507  0.78617  Biso   1.000  H
  H29      1.0000 0.90713  0.41246  0.58870  Biso   1.000  H
  C36      1.0000 0.93734  0.49475  0.48787  Biso   1.000  C
  C37      1.0000 0.94352  0.49148  0.70333  Biso   1.000  C
  H30      1.0000 0.50533  0.09287  0.58870  Biso   1.000  H
  C38      1.0000 0.55744  0.06265  0.48787  Biso   1.000  C
  C39      1.0000 0.54795  0.05647  0.70333  Biso   1.000  C
  C40      1.0000 0.81363  0.49335  0.88791  Biso   1.000  C
  H31      1.0000 0.87254  0.61798  0.67318  Biso   1.000  H
  H32      1.0000 0.87623  0.66117  0.78617  Biso   1.000  H
  H33      1.0000 0.79613  0.62795  0.57998  Biso   1.000  H
  H34      1.0000 0.83193  0.69485  0.64729  Biso   1.000  H
  C41      1.0000 0.47171  0.15285  0.98628  Biso   1.000  C
  H35      1.0000 0.33304  0.08239  0.77337  Biso   1.000  H
  H36      1.0000 0.39611  0.10676  0.69489  Biso   1.000  H
  H37      1.0000 0.37203  0.16815  0.57998  Biso   1.000  H
  H38      1.0000 0.30516  0.13708  0.64729  Biso   1.000  H
  N9       1.0000 0.91663  0.46167  0.37260  Biso   1.000  N
  H39      1.0000 0.93013  0.53115  0.48924  Biso   1.000  H
  C42      1.0000 0.00534  0.51618  0.51712  Biso   1.000  C
  H40      1.0000 0.92893  0.52039  0.73031  Biso   1.000  H
  H41      1.0000 0.94073  0.46458  0.77264  Biso   1.000  H
  C43      1.0000 0.00993  0.52778  0.65601  Biso   1.000  C
  N10      1.0000 0.54503  0.08337  0.37260  Biso   1.000  N
  H42      1.0000 0.60103  0.06985  0.48924  Biso   1.000  H
  C44      1.0000 0.51085  0.99467  0.51712  Biso   1.000  C
  H43      1.0000 0.59143  0.07107  0.73031  Biso   1.000  H
  H44      1.0000 0.52382  0.05928  0.77264  Biso   1.000  H
  C45      1.0000 0.51783  0.99008  0.65601  Biso   1.000  C
  C46      1.0000 0.83382  0.46387  0.97629  Biso   1.000  C
  H45      1.0000 0.78976  0.46879  0.82087  Biso   1.000  H
  C47      1.0000 0.52824  0.15205  0.02480  Biso   1.000  C
  H46      1.0000 0.44154  0.14826  0.04505  Biso   1.000  H
  C48      1.0000 0.89553  0.48488  0.29249  Biso   1.000  C
  H47      1.0000 0.03381  0.55496  0.47270  Biso   1.000  H
  H48      1.0000 0.01573  0.48338  0.49605  Biso   1.000  H
  H49      1.0000 0.03625  0.51267  0.69416  Biso   1.000  H
  H50      1.0000 0.02835  0.57298  0.67345  Biso   1.000  H
  C49      1.0000 0.58933  0.10447  0.29249  Biso   1.000  C
  H51      1.0000 0.52115  0.96617  0.47270  Biso   1.000  H
  H52      1.0000 0.46765  0.98428  0.49605  Biso   1.000  H
  H53      1.0000 0.47644  0.96379  0.69416  Biso   1.000  H
  H54      1.0000 0.54462  0.97170  0.67345  Biso   1.000  H
  C50      1.0000 0.85582  0.48787  0.09292  Biso   1.000  C
  C51      1.0000 0.83031  0.40825  0.94595  Biso   1.000  C
  C52      1.0000 0.53211  0.13095  0.13989  Biso   1.000  C
  C53      1.0000 0.57794  0.16969  0.94595  Biso   1.000  C
  C54      1.0000 0.87332  0.45657  0.17440  Biso   1.000  C
  H55      1.0000 0.89444  0.52175  0.31193  Biso   1.000  H
  C55      1.0000 0.58324  0.12665  0.17440  Biso   1.000  C
  H56      1.0000 0.62730  0.10555  0.31193  Biso   1.000  H
  H57      1.0000 0.85874  0.52628  0.11645  Biso   1.000  H
  C56      1.0000 0.84794  0.37615  0.02480  Biso   1.000  C
  H58      1.0000 0.81512  0.39108  0.86774  Biso   1.000  H
  H59      1.0000 0.49883  0.11949  0.19566  Biso   1.000  H
  H60      1.0000 0.57591  0.18485  0.86774  Biso   1.000  H
  C57      1.0000 0.63003  0.16618  0.97629  Biso   1.000  C
  C58      1.0000 0.86904  0.40118  0.13989  Biso   1.000  C
  C59      1.0000 0.63202  0.14414  0.09292  Biso   1.000  C
  C60      1.0000 0.84714  0.31889  0.98628  Biso   1.000  C
  C61      1.0000 0.67974  0.18634  0.88791  Biso   1.000  C
  H61      1.0000 0.88055  0.37938  0.19566  Biso   1.000  H
  H62      1.0000 0.66752  0.14124  0.11645  Biso   1.000  H
  H63      1.0000 0.85174  0.29325  0.04505  Biso   1.000  H
  N11      1.0000 0.84055  0.30335  0.87610  Biso   1.000  N
  N12      1.0000 0.72441  0.17455  0.89300  Biso   1.000  N
  H64      1.0000 0.67901  0.21025  0.82087  Biso   1.000  H
  C62      1.0000 0.83612  0.24426  0.84386  Biso   1.000  C
  C63      1.0000 0.77054  0.19907  0.79671  Biso   1.000  C
  H65      1.0000 0.84513  0.22597  0.91689  Biso   1.000  H
  C64      1.0000 0.88003  0.25049  0.74148  Biso   1.000  C
  H66      1.0000 0.75834  0.22176  0.73731  Biso   1.000  H
  C65      1.0000 0.78062  0.15247  0.72940  Biso   1.000  C
  H67      1.0000 0.91765  0.25067  0.77337  Biso   1.000  H
  H68      1.0000 0.89323  0.28937  0.69489  Biso   1.000  H
  C66      1.0000 0.84051  0.19144  0.66010  Biso   1.000  C
  H69      1.0000 0.74544  0.12749  0.67318  Biso   1.000  H
  H70      1.0000 0.78494  0.12375  0.78617  Biso   1.000  H
  H71      1.0000 0.83186  0.20389  0.57998  Biso   1.000  H
  H72      1.0000 0.86292  0.16805  0.64729  Biso   1.000  H
  C67      1.0000 0.29871  0.47749  0.42629  Biso   1.000  C
  C68      1.0000 0.29670  0.49948  0.30956  Biso   1.000  C
  C69      1.0000 0.24989  0.45999  0.50768  Biso   1.000  C
  H73      1.0000 0.33421  0.47459  0.44981  Biso   1.000  H
  C70      1.0000 0.34639  0.51969  0.22118  Biso   1.000  C
  C71      1.0000 0.24460  0.50299  0.27932  Biso   1.000  C
  C72      1.0000 0.19880  0.46429  0.47316  Biso   1.000  C
  C73      1.0000 0.25602  0.43781  0.62576  Biso   1.000  C
  N13      1.0000 0.39110  0.50790  0.22627  Biso   1.000  N
  H74      1.0000 0.34570  0.54359  0.15424  Biso   1.000  H
  C74      1.0000 0.19489  0.48539  0.35807  Biso   1.000  C
  H75      1.0000 0.24260  0.51819  0.20111  Biso   1.000  H
  H76      1.0000 0.16550  0.45279  0.52902  Biso   1.000  H
  N14      1.0000 0.21172  0.41671  0.70588  Biso   1.000  N
  H77      1.0000 0.29400  0.43889  0.64529  Biso   1.000  H
  C75      1.0000 0.43719  0.53241  0.12998  Biso   1.000  C
  C76      1.0000 0.13840  0.48619  0.31956  Biso   1.000  C
  C77      1.0000 0.22409  0.39599  0.82124  Biso   1.000  C
  H78      1.0000 0.42499  0.55510  0.07058  Biso   1.000  H
  C78      1.0000 0.50281  0.57761  0.17722  Biso   1.000  C
  C79      1.0000 0.44732  0.48582  0.06268  Biso   1.000  C
  N15      1.0000 0.12950  0.49279  0.20937  Biso   1.000  N
  H79      1.0000 0.10819  0.48160  0.37842  Biso   1.000  H
  C80      1.0000 0.21379  0.42911  0.92851  Biso   1.000  C
  H80      1.0000 0.26768  0.40319  0.82260  Biso   1.000  H
  C81      1.0000 0.17750  0.32801  0.85049  Biso   1.000  C
  N16      1.0000 0.50720  0.63670  0.20937  Biso   1.000  N
  H81      1.0000 0.51182  0.55931  0.25016  Biso   1.000  H
  C82      1.0000 0.54670  0.58378  0.07476  Biso   1.000  C
  H82      1.0000 0.41211  0.46079  0.00654  Biso   1.000  H
  H83      1.0000 0.45159  0.45709  0.11954  Biso   1.000  H
  C83      1.0000 0.50720  0.52479  0.99337  Biso   1.000  C
  C84      1.0000 0.07477  0.49718  0.17722  Biso   1.000  C
  N17      1.0000 0.26280  0.49391  0.93596  Biso   1.000  N
  H84      1.0000 0.17202  0.42621  0.92197  Biso   1.000  H
  C85      1.0000 0.21460  0.38981  0.03670  Biso   1.000  C
  H85      1.0000 0.18780  0.29952  0.80598  Biso   1.000  H
  H86      1.0000 0.13430  0.31762  0.82941  Biso   1.000  H
  C86      1.0000 0.18450  0.32338  0.98928  Biso   1.000  C
  C87      1.0000 0.51381  0.65218  0.31956  Biso   1.000  C
  H87      1.0000 0.58430  0.58402  0.10673  Biso   1.000  H
  H88      1.0000 0.55989  0.62271  0.02816  Biso   1.000  H
  H89      1.0000 0.49849  0.53719  0.91334  Biso   1.000  H
  H90      1.0000 0.52962  0.50139  0.98056  Biso   1.000  H
  C88      1.0000 0.09517  0.56278  0.12998  Biso   1.000  C
  H91      1.0000 0.04751  0.48820  0.25016  Biso   1.000  H
  C89      1.0000 0.03711  0.45330  0.07476  Biso   1.000  C
  C90      1.0000 0.24638  0.53489  0.93378  Biso   1.000  C
  H92      1.0000 0.25812  0.40441  0.06358  Biso   1.000  H
  H93      1.0000 0.19052  0.39262  0.10600  Biso   1.000  H
  H94      1.0000 0.14307  0.29708  0.02752  Biso   1.000  H
  H95      1.0000 0.21129  0.30499  0.00681  Biso   1.000  H
  C91      1.0000 0.51459  0.70949  0.35807  Biso   1.000  C
  H96      1.0000 0.51839  0.62659  0.37842  Biso   1.000  H
  N18      1.0000 0.11682  0.60891  0.22627  Biso   1.000  N
  H97      1.0000 0.13009  0.57499  0.07058  Biso   1.000  H
  C92      1.0000 0.03852  0.55272  0.06268  Biso   1.000  C
  H98      1.0000 0.06281  0.44011  0.02816  Biso   1.000  H
  H99      1.0000 0.99971  0.41568  0.10673  Biso   1.000  H
  C93      1.0000 0.01759  0.49279  0.99337  Biso   1.000  C
  C94      1.0000 0.29111  0.60240  0.93850  Biso   1.000  C
  H100     1.0000 0.20301  0.52142  0.92888  Biso   1.000  H
  C95      1.0000 0.53571  0.73448  0.47316  Biso   1.000  C
  C96      1.0000 0.49700  0.74159  0.27932  Biso   1.000  C
  C97      1.0000 0.17327  0.65359  0.22118  Biso   1.000  C
  H101     1.0000 0.04870  0.58790  0.00654  Biso   1.000  H
  H102     1.0000 0.00550  0.54841  0.11954  Biso   1.000  H
  H103     1.0000 0.97181  0.47042  0.98056  Biso   1.000  H
  H104     1.0000 0.03868  0.50149  0.91334  Biso   1.000  H
  C98      1.0000 0.35530  0.62519  0.93841  Biso   1.000  C
  C99      1.0000 0.26988  0.64470  0.93841  Biso   1.000  C
  C100     1.0000 0.54001  0.78992  0.50768  Biso   1.000  C
  H105     1.0000 0.54720  0.71272  0.52902  Biso   1.000  H
  H106     1.0000 0.48182  0.72442  0.20111  Biso   1.000  H
  C101     1.0000 0.50051  0.79722  0.30956  Biso   1.000  C
  C102     1.0000 0.20280  0.70332  0.30956  Biso   1.000  C
  H107     1.0000 0.19789  0.65429  0.15424  Biso   1.000  H
  C103     1.0000 0.39760  0.68872  0.93850  Biso   1.000  C
  H108     1.0000 0.37042  0.59660  0.93832  Biso   1.000  H
  C104     1.0000 0.31129  0.70889  0.93850  Biso   1.000  C
  H109     1.0000 0.22618  0.62959  0.93832  Biso   1.000  H
  C105     1.0000 0.52252  0.82122  0.42629  Biso   1.000  C
  C106     1.0000 0.56223  0.81822  0.62576  Biso   1.000  C
  C107     1.0000 0.48028  0.82669  0.22118  Biso   1.000  C
  C108     1.0000 0.25841  0.75539  0.27932  Biso   1.000  C
  C109     1.0000 0.17882  0.70131  0.42629  Biso   1.000  C
  C110     1.0000 0.46511  0.71151  0.93378  Biso   1.000  C
  C111     1.0000 0.37480  0.73008  0.93841  Biso   1.000  C
  C112     1.0000 0.28852  0.75361  0.93378  Biso   1.000  C
  H110     1.0000 0.52541  0.85958  0.44981  Biso   1.000  H
  N19      1.0000 0.58332  0.79502  0.70588  Biso   1.000  N
  H111     1.0000 0.56109  0.85509  0.64529  Biso   1.000  H
  N20      1.0000 0.49209  0.88321  0.22627  Biso   1.000  N
  H112     1.0000 0.45639  0.80208  0.15424  Biso   1.000  H
  C113     1.0000 0.29049  0.80512  0.35807  Biso   1.000  C
  H113     1.0000 0.27559  0.75740  0.20111  Biso   1.000  H
  C114     1.0000 0.21011  0.75010  0.50768  Biso   1.000  C
  H114     1.0000 0.14040  0.66580  0.44981  Biso   1.000  H
  N21      1.0000 0.50609  0.76891  0.93596  Biso   1.000  N
  H115     1.0000 0.47860  0.68161  0.92888  Biso   1.000  H
  H116     1.0000 0.40338  0.77378  0.93832  Biso   1.000  H
  N22      1.0000 0.23108  0.73719  0.93596  Biso   1.000  N
  H117     1.0000 0.31839  0.79698  0.92888  Biso   1.000  H
  C115     1.0000 0.60399  0.82809  0.82124  Biso   1.000  C
  C116     1.0000 0.46760  0.90482  0.12998  Biso   1.000  C
  C117     1.0000 0.34778  0.86159  0.31956  Biso   1.000  C
  C118     1.0000 0.26551  0.80119  0.47316  Biso   1.000  C
  C119     1.0000 0.18182  0.74402  0.62576  Biso   1.000  C
  C120     1.0000 0.57090  0.78468  0.92851  Biso   1.000  C
  C121     1.0000 0.21532  0.78622  0.92851  Biso   1.000  C
  H118     1.0000 0.59679  0.86449  0.82260  Biso   1.000  H
  C122     1.0000 0.67200  0.84952  0.85049  Biso   1.000  C
  H119     1.0000 0.44493  0.86992  0.07058  Biso   1.000  H
  C123     1.0000 0.42242  0.92522  0.17722  Biso   1.000  C
  C124     1.0000 0.51421  0.96148  0.06268  Biso   1.000  C
  N23      1.0000 0.36328  0.87048  0.20937  Biso   1.000  N
  H120     1.0000 0.37342  0.89182  0.37842  Biso   1.000  H
  H121     1.0000 0.28731  0.83450  0.52902  Biso   1.000  H
  N24      1.0000 0.20501  0.78828  0.70588  Biso   1.000  N
  H122     1.0000 0.14490  0.70599  0.64529  Biso   1.000  H
  H123     1.0000 0.57378  0.74580  0.92197  Biso   1.000  H
  C125     1.0000 0.61021  0.82482  0.03670  Biso   1.000  C
  C126     1.0000 0.17190  0.77588  0.82124  Biso   1.000  C
  H124     1.0000 0.25420  0.82800  0.92197  Biso   1.000  H
  C127     1.0000 0.17519  0.78538  0.03670  Biso   1.000  C
  H125     1.0000 0.70050  0.88831  0.80598  Biso   1.000  H
  H126     1.0000 0.68240  0.81668  0.82941  Biso   1.000  H
  C128     1.0000 0.67660  0.86108  0.98928  Biso   1.000  C
  H127     1.0000 0.44071  0.95250  0.25016  Biso   1.000  H
  C129     1.0000 0.41621  0.96288  0.07476  Biso   1.000  C
  H128     1.0000 0.53917  0.95128  0.00654  Biso   1.000  H
  H129     1.0000 0.54292  0.99451  0.11954  Biso   1.000  H
  C130     1.0000 0.47519  0.98239  0.99337  Biso   1.000  C
  H130     1.0000 0.59560  0.85369  0.06358  Biso   1.000  H
  H131     1.0000 0.60742  0.79792  0.10600  Biso   1.000  H
  H132     1.0000 0.13548  0.73228  0.82260  Biso   1.000  H
  C131     1.0000 0.15047  0.82248  0.85049  Biso   1.000  C
  C132     1.0000 0.13892  0.81551  0.98928  Biso   1.000  C
  H133     1.0000 0.14629  0.74192  0.06358  Biso   1.000  H
  H134     1.0000 0.20209  0.80952  0.10600  Biso   1.000  H
  H135     1.0000 0.70290  0.84601  0.02752  Biso   1.000  H
  H136     1.0000 0.69501  0.90632  0.00681  Biso   1.000  H
  H137     1.0000 0.37731  0.93720  0.02816  Biso   1.000  H
  H138     1.0000 0.41602  0.00026  0.10673  Biso   1.000  H
  H139     1.0000 0.46278  0.96129  0.91334  Biso   1.000  H
  H140     1.0000 0.49858  0.02819  0.98056  Biso   1.000  H
  H141     1.0000 0.11170  0.81219  0.80598  Biso   1.000  H
  H142     1.0000 0.18331  0.86571  0.82941  Biso   1.000  H
  H143     1.0000 0.15399  0.85691  0.02752  Biso   1.000  H
  H144     1.0000 0.09371  0.78870  0.00681  Biso   1.000  H
  C133     1.0000 0.18089  0.29484  0.39604  Biso   1.000  C
  C134     1.0000 0.13426  0.23814  0.46335  Biso   1.000  C
  C135     1.0000 0.14187  0.31575  0.32673  Biso   1.000  C
  H145     1.0000 0.20585  0.28464  0.33981  Biso   1.000  H
  H146     1.0000 0.20957  0.32782  0.45281  Biso   1.000  H
  N25      1.0000 0.15874  0.21652  0.55963  Biso   1.000  N
  H147     1.0000 0.11158  0.20323  0.40394  Biso   1.000  H
  C136     1.0000 0.08907  0.25853  0.51049  Biso   1.000  C
  C137     1.0000 0.08289  0.29624  0.40812  Biso   1.000  C
  H148     1.0000 0.12946  0.29465  0.24662  Biso   1.000  H
  H149     1.0000 0.16526  0.36155  0.31392  Biso   1.000  H
  C138     1.0000 0.14696  0.16005  0.55455  Biso   1.000  C
  N26      1.0000 0.02996  0.20384  0.54274  Biso   1.000  N
  H150     1.0000 0.10739  0.28586  0.58352  Biso   1.000  H
  H151     1.0000 0.08266  0.33362  0.44000  Biso   1.000  H
  H152     1.0000 0.04397  0.27051  0.36152  Biso   1.000  H
  C139     1.0000 0.16717  0.13053  0.64293  Biso   1.000  C
  H153     1.0000 0.12307  0.13544  0.48751  Biso   1.000  H
  C140     1.0000 0.01446  0.19495  0.65292  Biso   1.000  C
  C141     1.0000 0.16369  0.07495  0.61259  Biso   1.000  C
  C142     1.0000 0.18917  0.15453  0.75965  Biso   1.000  C
  H154     1.0000 0.04008  0.22513  0.71169  Biso   1.000  H
  C143     1.0000 0.95715  0.13844  0.69143  Biso   1.000  C
  C144     1.0000 0.18127  0.04286  0.69143  Biso   1.000  C
  H155     1.0000 0.14847  0.05773  0.53447  Biso   1.000  H
  C145     1.0000 0.20667  0.12323  0.84104  Biso   1.000  C
  H156     1.0000 0.19209  0.19294  0.78318  Biso   1.000  H
  C146     1.0000 0.93219  0.13455  0.80652  Biso   1.000  C
  C147     1.0000 0.92509  0.08875  0.61259  Biso   1.000  C
  C148     1.0000 0.20239  0.06784  0.80652  Biso   1.000  C
  C149     1.0000 0.18049  0.98554  0.65292  Biso   1.000  C
  C150     1.0000 0.22888  0.15154  0.95912  Biso   1.000  C
  C151     1.0000 0.87676  0.08342  0.84104  Biso   1.000  C
  H157     1.0000 0.95397  0.16782  0.86229  Biso   1.000  H
  H158     1.0000 0.94224  0.09072  0.53447  Biso   1.000  H
  C152     1.0000 0.86946  0.03663  0.64293  Biso   1.000  C
  H159     1.0000 0.21385  0.04604  0.86229  Biso   1.000  H
  N27      1.0000 0.17392  0.97006  0.54274  Biso   1.000  N
  H160     1.0000 0.18507  0.95995  0.71169  Biso   1.000  H
  H161     1.0000 0.22777  0.18845  0.97865  Biso   1.000  H
  N28      1.0000 0.24998  0.12833  0.03924  Biso   1.000  N
  C153     1.0000 0.84548  0.03462  0.75965  Biso   1.000  C
  C154     1.0000 0.84848  0.07734  0.95912  Biso   1.000  C
  C155     1.0000 0.84000  0.98695  0.55455  Biso   1.000  C
  C156     1.0000 0.16949  0.91097  0.51049  Biso   1.000  C
  C157     1.0000 0.27067  0.16146  0.15451  Biso   1.000  C
  H162     1.0000 0.80704  0.99916  0.78318  Biso   1.000  H
  H163     1.0000 0.81158  0.03935  0.97865  Biso   1.000  H
  N29      1.0000 0.87169  0.12164  0.03924  Biso   1.000  N
  N30      1.0000 0.78350  0.94227  0.55963  Biso   1.000  N
  H164     1.0000 0.86453  0.98765  0.48751  Biso   1.000  H
  C158     1.0000 0.10391  0.86577  0.46335  Biso   1.000  C
  H165     1.0000 0.17844  0.89263  0.58352  Biso   1.000  H
  C159     1.0000 0.21334  0.91714  0.40812  Biso   1.000  C
  C160     1.0000 0.23758  0.11804  0.26188  Biso   1.000  C
  H166     1.0000 0.26347  0.19785  0.15596  Biso   1.000  H
  C161     1.0000 0.33865  0.18284  0.18385  Biso   1.000  C
  C162     1.0000 0.83858  0.10924  0.15451  Biso   1.000  C
  C163     1.0000 0.76185  0.89614  0.46335  Biso   1.000  C
  N31      1.0000 0.05778  0.84126  0.55963  Biso   1.000  N
  H167     1.0000 0.09167  0.88846  0.40394  Biso   1.000  H
  C164     1.0000 0.11397  0.81913  0.39604  Biso   1.000  C
  H168     1.0000 0.25100  0.91733  0.44000  Biso   1.000  H
  H169     1.0000 0.22661  0.95607  0.36152  Biso   1.000  H
  C165     1.0000 0.17388  0.85815  0.32673  Biso   1.000  C
  N32      1.0000 0.17274  0.10223  0.26933  Biso   1.000  N
  H170     1.0000 0.24044  0.07911  0.25534  Biso   1.000  H
  C166     1.0000 0.27687  0.15813  0.37006  Biso   1.000  C
  H171     1.0000 0.36716  0.22162  0.13934  Biso   1.000  H
  H172     1.0000 0.34908  0.15004  0.16278  Biso   1.000  H
  C167     1.0000 0.34328  0.19444  0.32265  Biso   1.000  C
  C168     1.0000 0.88198  0.11954  0.26188  Biso   1.000  C
  H173     1.0000 0.80216  0.06564  0.15596  Biso   1.000  H
  C169     1.0000 0.81715  0.15584  0.18385  Biso   1.000  C
  H174     1.0000 0.79677  0.90835  0.40394  Biso   1.000  H
  C170     1.0000 0.74145  0.83054  0.51049  Biso   1.000  C
  C171     1.0000 0.70518  0.88603  0.39604  Biso   1.000  C
  C172     1.0000 0.01307  0.85305  0.55455  Biso   1.000  C
  H175     1.0000 0.07875  0.79415  0.33981  Biso   1.000  H
  H176     1.0000 0.11827  0.79045  0.45281  Biso   1.000  H
  H177     1.0000 0.16521  0.87055  0.24662  Biso   1.000  H
  H178     1.0000 0.19626  0.83476  0.31392  Biso   1.000  H
  C173     1.0000 0.13177  0.04482  0.26715  Biso   1.000  C
  H179     1.0000 0.26228  0.18705  0.39695  Biso   1.000  H
  H180     1.0000 0.27408  0.13123  0.43937  Biso   1.000  H
  H181     1.0000 0.36955  0.17933  0.36080  Biso   1.000  H
  H182     1.0000 0.36166  0.23963  0.34018  Biso   1.000  H
  N33      1.0000 0.89776  0.07055  0.26933  Biso   1.000  N
  H183     1.0000 0.92086  0.16131  0.25534  Biso   1.000  H
  C174     1.0000 0.84187  0.11874  0.37006  Biso   1.000  C
  H184     1.0000 0.77838  0.14555  0.13934  Biso   1.000  H
  H185     1.0000 0.84997  0.19902  0.16278  Biso   1.000  H
  C175     1.0000 0.80558  0.14882  0.32265  Biso   1.000  C
  N34      1.0000 0.79618  0.82615  0.54274  Biso   1.000  N
  H186     1.0000 0.71415  0.82156  0.58352  Biso   1.000  H
  C176     1.0000 0.70379  0.78666  0.40812  Biso   1.000  C
  C177     1.0000 0.68427  0.82615  0.32673  Biso   1.000  C
  H187     1.0000 0.71538  0.92126  0.33981  Biso   1.000  H
  H188     1.0000 0.67220  0.88173  0.45281  Biso   1.000  H
  C178     1.0000 0.96338  0.83284  0.64293  Biso   1.000  C
  H189     1.0000 0.01234  0.87696  0.48751  Biso   1.000  H
  C179     1.0000 0.06426  0.02204  0.27187  Biso   1.000  C
  H190     1.0000 0.14526  0.01492  0.26224  Biso   1.000  H
  C180     1.0000 0.95518  0.08693  0.26715  Biso   1.000  C
  H191     1.0000 0.81295  0.07523  0.39695  Biso   1.000  H
  H192     1.0000 0.86875  0.14283  0.43937  Biso   1.000  H
  H193     1.0000 0.82065  0.19023  0.36080  Biso   1.000  H
  H194     1.0000 0.76037  0.12202  0.34018  Biso   1.000  H
  C181     1.0000 0.80508  0.81955  0.65292  Biso   1.000  C
  H195     1.0000 0.66635  0.74905  0.44000  Biso   1.000  H
  H196     1.0000 0.72949  0.77347  0.36152  Biso   1.000  H
  H197     1.0000 0.70536  0.83485  0.24662  Biso   1.000  H
  H198     1.0000 0.63851  0.80374  0.31392  Biso   1.000  H
  C182     1.0000 0.91124  0.83635  0.61259  Biso   1.000  C
  C183     1.0000 0.96539  0.81085  0.75965  Biso   1.000  C
  C184     1.0000 0.02198  0.95855  0.27178  Biso   1.000  C
  C185     1.0000 0.04148  0.06344  0.27178  Biso   1.000  C
  C186     1.0000 0.97797  0.04225  0.27187  Biso   1.000  C
  H199     1.0000 0.98507  0.13034  0.26224  Biso   1.000  H
  C187     1.0000 0.86161  0.81875  0.69143  Biso   1.000  C
  H200     1.0000 0.77491  0.81497  0.71169  Biso   1.000  H
  H201     1.0000 0.90929  0.85155  0.53447  Biso   1.000  H
  C188     1.0000 0.91657  0.79335  0.84104  Biso   1.000  C
  H202     1.0000 0.00089  0.80795  0.78318  Biso   1.000  H
  C189     1.0000 0.95779  0.93576  0.27187  Biso   1.000  C
  H203     1.0000 0.03710  0.92996  0.27160  Biso   1.000  H
  H204     1.0000 0.07006  0.10714  0.27160  Biso   1.000  H
  C190     1.0000 0.93660  0.97806  0.27178  Biso   1.000  C
  C191     1.0000 0.86544  0.79765  0.80652  Biso   1.000  C
  C192     1.0000 0.92264  0.77113  0.95912  Biso   1.000  C
  C193     1.0000 0.91310  0.86825  0.26715  Biso   1.000  C
  H205     1.0000 0.89286  0.96295  0.27160  Biso   1.000  H
  H206     1.0000 0.83214  0.78615  0.86229  Biso   1.000  H
  H207     1.0000 0.96064  0.77225  0.97865  Biso   1.000  H
  N35      1.0000 0.87838  0.75003  0.03924  Biso   1.000  N
  N36      1.0000 0.92952  0.82727  0.26933  Biso   1.000  N
  H208     1.0000 0.86963  0.85473  0.26224  Biso   1.000  H
  C194     1.0000 0.89077  0.72935  0.15451  Biso   1.000  C
  C195     1.0000 0.88051  0.76247  0.26188  Biso   1.000  C
  H209     1.0000 0.93436  0.73655  0.15596  Biso   1.000  H
  C196     1.0000 0.84422  0.66137  0.18385  Biso   1.000  C
  H210     1.0000 0.83870  0.75957  0.25534  Biso   1.000  H
  C197     1.0000 0.88128  0.72317  0.37006  Biso   1.000  C
  H211     1.0000 0.85450  0.63283  0.13934  Biso   1.000  H
  H212     1.0000 0.80096  0.65094  0.16278  Biso   1.000  H
  C198     1.0000 0.85114  0.65674  0.32265  Biso   1.000  C
  H213     1.0000 0.92476  0.73777  0.39695  Biso   1.000  H
  H214     1.0000 0.85717  0.72593  0.43937  Biso   1.000  H
  H215     1.0000 0.80975  0.63045  0.36080  Biso   1.000  H
  H216     1.0000 0.87801  0.63835  0.34018  Biso   1.000  H
