data_image0
_cell_length_a       19.68
_cell_length_b       24.18
_cell_length_c       17.794
_cell_angle_alpha    90
_cell_angle_beta     115.38
_cell_angle_gamma    90

_symmetry_space_group_name_H-M    "P 1"
_symmetry_int_tables_number       1

loop_
  _symmetry_equiv_pos_as_xyz
  'x, y, z'

loop_
  _atom_site_label
  _atom_site_occupancy
  _atom_site_fract_x
  _atom_site_fract_y
  _atom_site_fract_z
  _atom_site_thermal_displace_type
  _atom_site_B_iso_or_equiv
  _atom_site_type_symbol
  O1       1.0000 0.50809  0.61092  0.57668  Biso   1.000  O
  C1       1.0000 0.51270  0.65571  0.64429  Biso   1.000  C
  H1       1.0000 0.49319  0.62568  0.53090  Biso   1.000  H
  C2       1.0000 0.55611  0.63420  0.72969  Biso   1.000  C
  O2       1.0000 0.53839  0.71791  0.64871  Biso   1.000  O
  O3       1.0000 0.63371  0.63470  0.74388  Biso   1.000  O
  C3       1.0000 0.54636  0.66708  0.79737  Biso   1.000  C
  H2       1.0000 0.54092  0.59591  0.73181  Biso   1.000  H
  H3       1.0000 0.53412  0.72771  0.60280  Biso   1.000  H
  C4       1.0000 0.68442  0.61311  0.82200  Biso   1.000  C
  C5       1.0000 0.59813  0.64632  0.88072  Biso   1.000  C
  O4       1.0000 0.46941  0.65720  0.78642  Biso   1.000  O
  H4       1.0000 0.55480  0.70662  0.79239  Biso   1.000  H
  O5       1.0000 0.66930  0.55819  0.83401  Biso   1.000  O
  H5       1.0000 0.73557  0.61538  0.82617  Biso   1.000  H
  C6       1.0000 0.67953  0.64839  0.88912  Biso   1.000  C
  O6       1.0000 0.59332  0.67990  0.94423  Biso   1.000  O
  H6       1.0000 0.58501  0.60798  0.88713  Biso   1.000  H
  C7       1.0000 0.42007  0.70310  0.76807  Biso   1.000  C
  C8       1.0000 0.72320  0.51671  0.83488  Biso   1.000  C
  O7       1.0000 0.73091  0.62891  0.96768  Biso   1.000  O
  H7       1.0000 0.69220  0.68668  0.88209  Biso   1.000  H
  H8       1.0000 0.57030  0.70840  0.92352  Biso   1.000  H
  C9       1.0000 0.39063  0.70389  0.83463  Biso   1.000  C
  O8       1.0000 0.36268  0.70021  0.69131  Biso   1.000  O
  H9       1.0000 0.44869  0.73710  0.77243  Biso   1.000  H
  C10      1.0000 0.68910  0.47870  0.76092  Biso   1.000  C
  C11      1.0000 0.74493  0.48329  0.91313  Biso   1.000  C
  H10      1.0000 0.76780  0.53490  0.83513  Biso   1.000  H
  H11      1.0000 0.74498  0.65471  0.00071  Biso   1.000  H
  C12      1.0000 0.34869  0.64950  0.82723  Biso   1.000  C
  O9       1.0000 0.44659  0.71092  0.91400  Biso   1.000  O
  H12      1.0000 0.35458  0.73449  0.82250  Biso   1.000  H
  C13      1.0000 0.31309  0.65149  0.67402  Biso   1.000  C
  O10      1.0000 0.74039  0.43710  0.76571  Biso   1.000  O
  H13      1.0000 0.64391  0.46150  0.76061  Biso   1.000  H
  C14      1.0000 0.66773  0.50951  0.67813  Biso   1.000  C
  C15      1.0000 0.79720  0.43879  0.91387  Biso   1.000  C
  O11      1.0000 0.77880  0.51919  0.98373  Biso   1.000  O
  H14      1.0000 0.69971  0.46650  0.91338  Biso   1.000  H
  C16      1.0000 0.28559  0.64400  0.74033  Biso   1.000  C
  O12      1.0000 0.31557  0.64938  0.88507  Biso   1.000  O
  H15      1.0000 0.38361  0.61840  0.83867  Biso   1.000  H
  H16      1.0000 0.47980  0.68788  0.92258  Biso   1.000  H
  H17      1.0000 0.34261  0.61869  0.67440  Biso   1.000  H
  C17      1.0000 0.25589  0.65889  0.59092  Biso   1.000  C
  C18      1.0000 0.76519  0.40389  0.83600  Biso   1.000  C
  O13      1.0000 0.72728  0.54098  0.67968  Biso   1.000  O
  H18      1.0000 0.65297  0.48292  0.63309  Biso   1.000  H
  H19      1.0000 0.62501  0.53342  0.66768  Biso   1.000  H
  O14      1.0000 0.82339  0.40670  0.98709  Biso   1.000  O
  H20      1.0000 0.84151  0.45749  0.91400  Biso   1.000  H
  H21      1.0000 0.80461  0.54239  0.97427  Biso   1.000  H
  O15      1.0000 0.25918  0.58780  0.73461  Biso   1.000  O
  H22      1.0000 0.24498  0.67018  0.73218  Biso   1.000  H
  H23      1.0000 0.33529  0.62519  0.92009  Biso   1.000  H
  O16      1.0000 0.20561  0.70269  0.59061  Biso   1.000  O
  H24      1.0000 0.22782  0.62481  0.57120  Biso   1.000  H
  H25      1.0000 0.27881  0.66840  0.55397  Biso   1.000  H
  O17      1.0000 0.70280  0.37378  0.84072  Biso   1.000  O
  H26      1.0000 0.80338  0.37792  0.83581  Biso   1.000  H
  H27      1.0000 0.76708  0.52808  0.71408  Biso   1.000  H
  H28      1.0000 0.80832  0.37481  0.97533  Biso   1.000  H
  C19      1.0000 0.18139  0.57870  0.69579  Biso   1.000  C
  H29      1.0000 0.16873  0.70318  0.54551  Biso   1.000  H
  C20      1.0000 0.70259  0.31551  0.83270  Biso   1.000  C
  C21      1.0000 0.15681  0.55509  0.76048  Biso   1.000  C
  O18      1.0000 0.16133  0.54669  0.62712  Biso   1.000  O
  H30      1.0000 0.15681  0.61468  0.67800  Biso   1.000  H
  C22      1.0000 0.64591  0.29739  0.74873  Biso   1.000  C
  C23      1.0000 0.68591  0.29111  0.90112  Biso   1.000  C
  H31      1.0000 0.75258  0.30339  0.84029  Biso   1.000  H
  C24      1.0000 0.18687  0.49520  0.77877  Biso   1.000  C
  O19      1.0000 0.18001  0.58689  0.83202  Biso   1.000  O
  H32      1.0000 0.10170  0.55352  0.73511  Biso   1.000  H
  C25      1.0000 0.19248  0.48950  0.64547  Biso   1.000  C
  O20      1.0000 0.63848  0.23801  0.74400  Biso   1.000  O
  H33      1.0000 0.59712  0.31419  0.73691  Biso   1.000  H
  C26      1.0000 0.66899  0.31241  0.68018  Biso   1.000  C
  C27      1.0000 0.67648  0.23040  0.89161  Biso   1.000  C
  O21      1.0000 0.74650  0.30352  0.97931  Biso   1.000  O
  H34      1.0000 0.63962  0.30761  0.89888  Biso   1.000  H
  C28      1.0000 0.16261  0.46038  0.69977  Biso   1.000  C
  O22      1.0000 0.16299  0.47080  0.83699  Biso   1.000  O
  H35      1.0000 0.24191  0.49690  0.80502  Biso   1.000  H
  H36      1.0000 0.17697  0.61969  0.81958  Biso   1.000  H
  H37      1.0000 0.24761  0.48970  0.67079  Biso   1.000  H
  C29      1.0000 0.61762  0.21551  0.80502  Biso   1.000  C
  O23      1.0000 0.74220  0.29239  0.69498  Biso   1.000  O
  H38      1.0000 0.63240  0.29731  0.62799  Biso   1.000  H
  H39      1.0000 0.66829  0.35232  0.67458  Biso   1.000  H
  O24      1.0000 0.65591  0.20649  0.95101  Biso   1.000  O
  H40      1.0000 0.72460  0.21431  0.89882  Biso   1.000  H
  H41      1.0000 0.73049  0.30670  0.01470  Biso   1.000  H
  O25      1.0000 0.19519  0.40790  0.72092  Biso   1.000  O
  H42      1.0000 0.10768  0.45761  0.67147  Biso   1.000  H
  H43      1.0000 0.15830  0.49512  0.86672  Biso   1.000  H
  O26      1.0000 0.54661  0.23668  0.79513  Biso   1.000  O
  H44      1.0000 0.61429  0.17519  0.79930  Biso   1.000  H
  H45      1.0000 0.76651  0.31749  0.68702  Biso   1.000  H
  H46      1.0000 0.69378  0.20021  0.99380  Biso   1.000  H
  C30      1.0000 0.14872  0.36290  0.70419  Biso   1.000  C
  C31      1.0000 0.48273  0.20079  0.76652  Biso   1.000  C
  C32      1.0000 0.16827  0.32721  0.77628  Biso   1.000  C
  O27      1.0000 0.14662  0.33259  0.63440  Biso   1.000  O
  H47      1.0000 0.09773  0.37680  0.68932  Biso   1.000  H
  C33      1.0000 0.42198  0.22581  0.68908  Biso   1.000  C
  C34      1.0000 0.45922  0.19669  0.83631  Biso   1.000  C
  H48      1.0000 0.49648  0.16419  0.75401  Biso   1.000  H
  C35      1.0000 0.24119  0.30000  0.79818  Biso   1.000  C
  O28      1.0000 0.16761  0.35798  0.84222  Biso   1.000  O
  H49      1.0000 0.12969  0.29851  0.76223  Biso   1.000  H
  C36      1.0000 0.21588  0.30471  0.65001  Biso   1.000  C
  C37      1.0000 0.44130  0.22779  0.61661  Biso   1.000  C
  O29      1.0000 0.35361  0.19351  0.66712  Biso   1.000  O
  H50      1.0000 0.41241  0.26361  0.70189  Biso   1.000  H
  C38      1.0000 0.38278  0.16960  0.80427  Biso   1.000  C
  O30      1.0000 0.50983  0.16621  0.90081  Biso   1.000  O
  H51      1.0000 0.45601  0.23400  0.85621  Biso   1.000  H
  C39      1.0000 0.24110  0.26840  0.72453  Biso   1.000  C
  O31      1.0000 0.25967  0.26510  0.86828  Biso   1.000  O
  H52      1.0000 0.27982  0.32878  0.81329  Biso   1.000  H
  H53      1.0000 0.18398  0.38908  0.84147  Biso   1.000  H
  H54      1.0000 0.25499  0.33230  0.65822  Biso   1.000  H
  C40      1.0000 0.19833  0.27448  0.57182  Biso   1.000  C
  O32      1.0000 0.38981  0.25550  0.55049  Biso   1.000  O
  H55      1.0000 0.48990  0.24549  0.63372  Biso   1.000  H
  H56      1.0000 0.44562  0.19028  0.59969  Biso   1.000  H
  C41      1.0000 0.32512  0.19491  0.72839  Biso   1.000  C
  O33      1.0000 0.35559  0.16981  0.86641  Biso   1.000  O
  H57      1.0000 0.38861  0.13089  0.79152  Biso   1.000  H
  H58      1.0000 0.55128  0.18102  0.91848  Biso   1.000  H
  O34      1.0000 0.31571  0.24901  0.74699  Biso   1.000  O
  H59      1.0000 0.20688  0.23681  0.71240  Biso   1.000  H
  H60      1.0000 0.26440  0.23321  0.85559  Biso   1.000  H
  O35      1.0000 0.14330  0.23131  0.55739  Biso   1.000  O
  H61      1.0000 0.17928  0.30029  0.52567  Biso   1.000  H
  H62      1.0000 0.24418  0.25831  0.57369  Biso   1.000  H
  H63      1.0000 0.34763  0.24380  0.54010  Biso   1.000  H
  H64      1.0000 0.27762  0.17448  0.70942  Biso   1.000  H
  H65      1.0000 0.32829  0.19669  0.85982  Biso   1.000  H
  H66      1.0000 0.10258  0.24520  0.54869  Biso   1.000  H
  O36      1.0000 0.64330  0.73131  0.55739  Biso   1.000  O
  H67      1.0000 0.60258  0.74520  0.54869  Biso   1.000  H
  C42      1.0000 0.69833  0.77448  0.57182  Biso   1.000  C
  C43      1.0000 0.71588  0.80471  0.65001  Biso   1.000  C
  H68      1.0000 0.67928  0.80029  0.52567  Biso   1.000  H
  H69      1.0000 0.74418  0.75831  0.57369  Biso   1.000  H
  O37      1.0000 0.64662  0.83259  0.63440  Biso   1.000  O
  C44      1.0000 0.74110  0.76840  0.72453  Biso   1.000  C
  H70      1.0000 0.75499  0.83230  0.65822  Biso   1.000  H
  C45      1.0000 0.64872  0.86290  0.70419  Biso   1.000  C
  O38      1.0000 0.81571  0.74901  0.74699  Biso   1.000  O
  C46      1.0000 0.74119  0.80000  0.79818  Biso   1.000  C
  H71      1.0000 0.70688  0.73681  0.71240  Biso   1.000  H
  O39      1.0000 0.69519  0.90790  0.72092  Biso   1.000  O
  H72      1.0000 0.59773  0.87680  0.68932  Biso   1.000  H
  C47      1.0000 0.66827  0.82721  0.77628  Biso   1.000  C
  C48      1.0000 0.82512  0.69491  0.72839  Biso   1.000  C
  O40      1.0000 0.75967  0.76510  0.86828  Biso   1.000  O
  H73      1.0000 0.77982  0.82878  0.81329  Biso   1.000  H
  C49      1.0000 0.66261  0.96038  0.69977  Biso   1.000  C
  O41      1.0000 0.66761  0.85798  0.84222  Biso   1.000  O
  H74      1.0000 0.62969  0.79851  0.76223  Biso   1.000  H
  O42      1.0000 0.85361  0.69351  0.66712  Biso   1.000  O
  H75      1.0000 0.77762  0.67448  0.70942  Biso   1.000  H
  C50      1.0000 0.88278  0.66960  0.80427  Biso   1.000  C
  H76      1.0000 0.76440  0.73321  0.85559  Biso   1.000  H
  C51      1.0000 0.68687  0.99520  0.77877  Biso   1.000  C
  H77      1.0000 0.60768  0.95761  0.67147  Biso   1.000  H
  C52      1.0000 0.69248  0.98950  0.64547  Biso   1.000  C
  H78      1.0000 0.68398  0.88908  0.84147  Biso   1.000  H
  C53      1.0000 0.92198  0.72581  0.68908  Biso   1.000  C
  O43      1.0000 0.85559  0.66981  0.86641  Biso   1.000  O
  H79      1.0000 0.88861  0.63089  0.79152  Biso   1.000  H
  C54      1.0000 0.95922  0.69669  0.83631  Biso   1.000  C
  O44      1.0000 0.66299  0.97080  0.83699  Biso   1.000  O
  H80      1.0000 0.74191  0.99690  0.80502  Biso   1.000  H
  C55      1.0000 0.65681  0.05509  0.76048  Biso   1.000  C
  H81      1.0000 0.74761  0.98970  0.67079  Biso   1.000  H
  O45      1.0000 0.66133  0.04669  0.62712  Biso   1.000  O
  C56      1.0000 0.98273  0.70079  0.76652  Biso   1.000  C
  H82      1.0000 0.91241  0.76361  0.70189  Biso   1.000  H
  C57      1.0000 0.94130  0.72779  0.61661  Biso   1.000  C
  H83      1.0000 0.82829  0.69669  0.85982  Biso   1.000  H
  H84      1.0000 0.95601  0.73400  0.85621  Biso   1.000  H
  O46      1.0000 0.00983  0.66621  0.90081  Biso   1.000  O
  H85      1.0000 0.65830  0.99512  0.86672  Biso   1.000  H
  O47      1.0000 0.68001  0.08689  0.83202  Biso   1.000  O
  C58      1.0000 0.68139  0.07870  0.69579  Biso   1.000  C
  H86      1.0000 0.60170  0.05352  0.73511  Biso   1.000  H
  H87      1.0000 0.99648  0.66419  0.75401  Biso   1.000  H
  O48      1.0000 0.04661  0.73668  0.79513  Biso   1.000  O
  O49      1.0000 0.88981  0.75550  0.55049  Biso   1.000  O
  H88      1.0000 0.98990  0.74549  0.63372  Biso   1.000  H
  H89      1.0000 0.94562  0.69028  0.59969  Biso   1.000  H
  H90      1.0000 0.05128  0.68102  0.91848  Biso   1.000  H
  H91      1.0000 0.67697  0.11969  0.81958  Biso   1.000  H
  O50      1.0000 0.75918  0.08780  0.73461  Biso   1.000  O
  H92      1.0000 0.65681  0.11468  0.67800  Biso   1.000  H
  C59      1.0000 0.11762  0.71551  0.80502  Biso   1.000  C
  H93      1.0000 0.84763  0.74380  0.54010  Biso   1.000  H
  C60      1.0000 0.78559  0.14400  0.74033  Biso   1.000  C
  O51      1.0000 0.13848  0.73801  0.74400  Biso   1.000  O
  H94      1.0000 0.11429  0.67519  0.79930  Biso   1.000  H
  C61      1.0000 0.17648  0.73040  0.89161  Biso   1.000  C
  C62      1.0000 0.84869  0.14950  0.82723  Biso   1.000  C
  H95      1.0000 0.74498  0.17018  0.73218  Biso   1.000  H
  C63      1.0000 0.81309  0.15149  0.67402  Biso   1.000  C
  C64      1.0000 0.14591  0.79739  0.74873  Biso   1.000  C
  O52      1.0000 0.15591  0.70649  0.95101  Biso   1.000  O
  H96      1.0000 0.22460  0.71431  0.89882  Biso   1.000  H
  C65      1.0000 0.18591  0.79111  0.90112  Biso   1.000  C
  O53      1.0000 0.81557  0.14938  0.88507  Biso   1.000  O
  C66      1.0000 0.89063  0.20389  0.83463  Biso   1.000  C
  H97      1.0000 0.88361  0.11840  0.83867  Biso   1.000  H
  O54      1.0000 0.86268  0.20021  0.69131  Biso   1.000  O
  H98      1.0000 0.84261  0.11869  0.67440  Biso   1.000  H
  C67      1.0000 0.75589  0.15889  0.59092  Biso   1.000  C
  C68      1.0000 0.20259  0.81551  0.83270  Biso   1.000  C
  H99      1.0000 0.09712  0.81419  0.73691  Biso   1.000  H
  C69      1.0000 0.16899  0.81241  0.68018  Biso   1.000  C
  H100     1.0000 0.19378  0.70021  0.99380  Biso   1.000  H
  O55      1.0000 0.24650  0.80352  0.97931  Biso   1.000  O
  H101     1.0000 0.13962  0.80761  0.89888  Biso   1.000  H
  H102     1.0000 0.83529  0.12519  0.92009  Biso   1.000  H
  O56      1.0000 0.94659  0.21092  0.91400  Biso   1.000  O
  C70      1.0000 0.92007  0.20310  0.76807  Biso   1.000  C
  H103     1.0000 0.85458  0.23449  0.82250  Biso   1.000  H
  O57      1.0000 0.70561  0.20269  0.59061  Biso   1.000  O
  H104     1.0000 0.72782  0.12481  0.57120  Biso   1.000  H
  H105     1.0000 0.77881  0.16840  0.55397  Biso   1.000  H
  O58      1.0000 0.20280  0.87378  0.84072  Biso   1.000  O
  H106     1.0000 0.25258  0.80339  0.84029  Biso   1.000  H
  O59      1.0000 0.24220  0.79239  0.69498  Biso   1.000  O
  H107     1.0000 0.13240  0.79731  0.62799  Biso   1.000  H
  H108     1.0000 0.16829  0.85232  0.67458  Biso   1.000  H
  H109     1.0000 0.23049  0.80670  0.01470  Biso   1.000  H
  H110     1.0000 0.97980  0.18788  0.92258  Biso   1.000  H
  O60      1.0000 0.96941  0.15720  0.78642  Biso   1.000  O
  H111     1.0000 0.94869  0.23710  0.77243  Biso   1.000  H
  H112     1.0000 0.66873  0.20318  0.54551  Biso   1.000  H
  C71      1.0000 0.26519  0.90389  0.83600  Biso   1.000  C
  H113     1.0000 0.26651  0.81749  0.68702  Biso   1.000  H
  C72      1.0000 0.04636  0.16708  0.79737  Biso   1.000  C
  O61      1.0000 0.24039  0.93710  0.76571  Biso   1.000  O
  H114     1.0000 0.30338  0.87792  0.83581  Biso   1.000  H
  C73      1.0000 0.29720  0.93879  0.91387  Biso   1.000  C
  C74      1.0000 0.09813  0.14632  0.88072  Biso   1.000  C
  H115     1.0000 0.05480  0.20662  0.79239  Biso   1.000  H
  C75      1.0000 0.05611  0.13420  0.72969  Biso   1.000  C
  C76      1.0000 0.18910  0.97870  0.76092  Biso   1.000  C
  O62      1.0000 0.32339  0.90670  0.98709  Biso   1.000  O
  H116     1.0000 0.34151  0.95749  0.91400  Biso   1.000  H
  C77      1.0000 0.24493  0.98329  0.91313  Biso   1.000  C
  O63      1.0000 0.09332  0.17990  0.94423  Biso   1.000  O
  C78      1.0000 0.17953  0.14839  0.88912  Biso   1.000  C
  H117     1.0000 0.08501  0.10798  0.88713  Biso   1.000  H
  O64      1.0000 0.13371  0.13470  0.74388  Biso   1.000  O
  H118     1.0000 0.04092  0.09591  0.73181  Biso   1.000  H
  C79      1.0000 0.01270  0.15571  0.64429  Biso   1.000  C
  H119     1.0000 0.14391  0.96150  0.76061  Biso   1.000  H
  C80      1.0000 0.22320  0.01671  0.83488  Biso   1.000  C
  C81      1.0000 0.16773  0.00951  0.67813  Biso   1.000  C
  H120     1.0000 0.30832  0.87481  0.97533  Biso   1.000  H
  H121     1.0000 0.19971  0.96650  0.91338  Biso   1.000  H
  O65      1.0000 0.27880  0.01919  0.98373  Biso   1.000  O
  H122     1.0000 0.07030  0.20840  0.92352  Biso   1.000  H
  O66      1.0000 0.23091  0.12891  0.96768  Biso   1.000  O
  C82      1.0000 0.18442  0.11311  0.82200  Biso   1.000  C
  H123     1.0000 0.19220  0.18668  0.88209  Biso   1.000  H
  O67      1.0000 0.03839  0.21791  0.64871  Biso   1.000  O
  O68      1.0000 0.00809  0.11092  0.57668  Biso   1.000  O
  O69      1.0000 0.16930  0.05819  0.83401  Biso   1.000  O
  H124     1.0000 0.26780  0.03490  0.83513  Biso   1.000  H
  H125     1.0000 0.15297  0.98292  0.63309  Biso   1.000  H
  O70      1.0000 0.22728  0.04098  0.67968  Biso   1.000  O
  H126     1.0000 0.12501  0.03342  0.66768  Biso   1.000  H
  H127     1.0000 0.30461  0.04239  0.97427  Biso   1.000  H
  H128     1.0000 0.24498  0.15471  0.00071  Biso   1.000  H
  H129     1.0000 0.23557  0.11538  0.82617  Biso   1.000  H
  H130     1.0000 0.03412  0.22771  0.60280  Biso   1.000  H
  H131     1.0000 0.99319  0.12568  0.53090  Biso   1.000  H
  H132     1.0000 0.26708  0.02808  0.71408  Biso   1.000  H
  O71      1.0000 0.49189  0.61092  0.42329  Biso   1.000  O
  C83      1.0000 0.48728  0.65571  0.35567  Biso   1.000  C
  H133     1.0000 0.50681  0.62568  0.46913  Biso   1.000  H
  C84      1.0000 0.44389  0.63420  0.27033  Biso   1.000  C
  O72      1.0000 0.46161  0.71791  0.35132  Biso   1.000  O
  O73      1.0000 0.36632  0.63470  0.25609  Biso   1.000  O
  C85      1.0000 0.45362  0.66708  0.20259  Biso   1.000  C
  H134     1.0000 0.45913  0.59591  0.26822  Biso   1.000  H
  H135     1.0000 0.46593  0.72771  0.39722  Biso   1.000  H
  C86      1.0000 0.31559  0.61311  0.17802  Biso   1.000  C
  C87      1.0000 0.40193  0.64632  0.11930  Biso   1.000  C
  O74      1.0000 0.53060  0.65720  0.21360  Biso   1.000  O
  H136     1.0000 0.44520  0.70662  0.20763  Biso   1.000  H
  O75      1.0000 0.33070  0.55819  0.16602  Biso   1.000  O
  H137     1.0000 0.26441  0.61538  0.17379  Biso   1.000  H
  C88      1.0000 0.32052  0.64839  0.11091  Biso   1.000  C
  O76      1.0000 0.40668  0.67990  0.05580  Biso   1.000  O
  H138     1.0000 0.41499  0.60798  0.11290  Biso   1.000  H
  C89      1.0000 0.57991  0.70310  0.23189  Biso   1.000  C
  C90      1.0000 0.27678  0.51671  0.16508  Biso   1.000  C
  O77      1.0000 0.26912  0.62891  0.03228  Biso   1.000  O
  H139     1.0000 0.30777  0.68668  0.11787  Biso   1.000  H
  H140     1.0000 0.42970  0.70840  0.07651  Biso   1.000  H
  O78      1.0000 0.63732  0.70021  0.30871  Biso   1.000  O
  H141     1.0000 0.55131  0.73710  0.22760  Biso   1.000  H
  C91      1.0000 0.60942  0.70389  0.16540  Biso   1.000  C
  C92      1.0000 0.31091  0.47870  0.23911  Biso   1.000  C
  C93      1.0000 0.25512  0.48329  0.08690  Biso   1.000  C
  H142     1.0000 0.23220  0.53490  0.16490  Biso   1.000  H
  H143     1.0000 0.25500  0.65471  0.99925  Biso   1.000  H
  C94      1.0000 0.68691  0.65149  0.32600  Biso   1.000  C
  O79      1.0000 0.55341  0.71092  0.08603  Biso   1.000  O
  H144     1.0000 0.64542  0.73449  0.17752  Biso   1.000  H
  C95      1.0000 0.65132  0.64950  0.17280  Biso   1.000  C
  O80      1.0000 0.25961  0.43710  0.23432  Biso   1.000  O
  H145     1.0000 0.35610  0.46150  0.23942  Biso   1.000  H
  C96      1.0000 0.33232  0.50951  0.32190  Biso   1.000  C
  C97      1.0000 0.20277  0.43879  0.08609  Biso   1.000  C
  O81      1.0000 0.22120  0.51919  0.01630  Biso   1.000  O
  H146     1.0000 0.30027  0.46650  0.08659  Biso   1.000  H
  C98      1.0000 0.71441  0.64400  0.25969  Biso   1.000  C
  H147     1.0000 0.65739  0.61869  0.32563  Biso   1.000  H
  C99      1.0000 0.74411  0.65889  0.40910  Biso   1.000  C
  H148     1.0000 0.52018  0.68788  0.07738  Biso   1.000  H
  O82      1.0000 0.68441  0.64938  0.11489  Biso   1.000  O
  H149     1.0000 0.61642  0.61840  0.16129  Biso   1.000  H
  C100     1.0000 0.23481  0.40389  0.16403  Biso   1.000  C
  O83      1.0000 0.27270  0.54098  0.32028  Biso   1.000  O
  H150     1.0000 0.34703  0.48292  0.36693  Biso   1.000  H
  H151     1.0000 0.37501  0.53342  0.33228  Biso   1.000  H
  O84      1.0000 0.17659  0.40670  0.01288  Biso   1.000  O
  H152     1.0000 0.15849  0.45749  0.08603  Biso   1.000  H
  H153     1.0000 0.19537  0.54239  0.02569  Biso   1.000  H
  O85      1.0000 0.74082  0.58780  0.26542  Biso   1.000  O
  H154     1.0000 0.75500  0.67018  0.26778  Biso   1.000  H
  O86      1.0000 0.79439  0.70269  0.40941  Biso   1.000  O
  H155     1.0000 0.77218  0.62481  0.42882  Biso   1.000  H
  H156     1.0000 0.72121  0.66840  0.44599  Biso   1.000  H
  H157     1.0000 0.66472  0.62519  0.07993  Biso   1.000  H
  O87      1.0000 0.29720  0.37378  0.15930  Biso   1.000  O
  H158     1.0000 0.19662  0.37792  0.16421  Biso   1.000  H
  H159     1.0000 0.23290  0.52808  0.28588  Biso   1.000  H
  H160     1.0000 0.19168  0.37481  0.02469  Biso   1.000  H
  C101     1.0000 0.81861  0.57870  0.30423  Biso   1.000  C
  H161     1.0000 0.83133  0.70318  0.45451  Biso   1.000  H
  C102     1.0000 0.29742  0.31551  0.16732  Biso   1.000  C
  C103     1.0000 0.84321  0.55509  0.23948  Biso   1.000  C
  O88      1.0000 0.83872  0.54669  0.37290  Biso   1.000  O
  H162     1.0000 0.84319  0.61468  0.32202  Biso   1.000  H
  C104     1.0000 0.35410  0.29739  0.25130  Biso   1.000  C
  C105     1.0000 0.31409  0.29111  0.09890  Biso   1.000  C
  H163     1.0000 0.24740  0.30339  0.15967  Biso   1.000  H
  C106     1.0000 0.81311  0.49520  0.22119  Biso   1.000  C
  O89      1.0000 0.81999  0.58689  0.16801  Biso   1.000  O
  H164     1.0000 0.89830  0.55352  0.26492  Biso   1.000  H
  C107     1.0000 0.80750  0.48950  0.35449  Biso   1.000  C
  C108     1.0000 0.33099  0.31241  0.31978  Biso   1.000  C
  O90      1.0000 0.36152  0.23801  0.25602  Biso   1.000  O
  H165     1.0000 0.40288  0.31419  0.26312  Biso   1.000  H
  C109     1.0000 0.32352  0.23040  0.10842  Biso   1.000  C
  O91      1.0000 0.25350  0.30352  0.02071  Biso   1.000  O
  H166     1.0000 0.36041  0.30761  0.10108  Biso   1.000  H
  C110     1.0000 0.83737  0.46038  0.30019  Biso   1.000  C
  O92      1.0000 0.83699  0.47080  0.16297  Biso   1.000  O
  H167     1.0000 0.75809  0.49690  0.19500  Biso   1.000  H
  H168     1.0000 0.82301  0.61969  0.18039  Biso   1.000  H
  H169     1.0000 0.75237  0.48970  0.32917  Biso   1.000  H
  O93      1.0000 0.25778  0.29239  0.30498  Biso   1.000  O
  H170     1.0000 0.36758  0.29731  0.37197  Biso   1.000  H
  H171     1.0000 0.33169  0.35232  0.32538  Biso   1.000  H
  C111     1.0000 0.38238  0.21551  0.19500  Biso   1.000  C
  O94      1.0000 0.34410  0.20649  0.04902  Biso   1.000  O
  H172     1.0000 0.27540  0.21431  0.10120  Biso   1.000  H
  H173     1.0000 0.26949  0.30670  0.98526  Biso   1.000  H
  O95      1.0000 0.80481  0.40790  0.27910  Biso   1.000  O
  H174     1.0000 0.89229  0.45761  0.32849  Biso   1.000  H
  H175     1.0000 0.84170  0.49512  0.13330  Biso   1.000  H
  H176     1.0000 0.23350  0.31749  0.31300  Biso   1.000  H
  O96      1.0000 0.45339  0.23668  0.20489  Biso   1.000  O
  H177     1.0000 0.38572  0.17519  0.20073  Biso   1.000  H
  H178     1.0000 0.30622  0.20021  0.00622  Biso   1.000  H
  C112     1.0000 0.85131  0.36290  0.29577  Biso   1.000  C
  C113     1.0000 0.51732  0.20079  0.23351  Biso   1.000  C
  C114     1.0000 0.83171  0.32721  0.22368  Biso   1.000  C
  O97      1.0000 0.85343  0.33259  0.36562  Biso   1.000  O
  H179     1.0000 0.90232  0.37680  0.31070  Biso   1.000  H
  C115     1.0000 0.54078  0.19669  0.16372  Biso   1.000  C
  H180     1.0000 0.50352  0.16419  0.24601  Biso   1.000  H
  C116     1.0000 0.57800  0.22581  0.31089  Biso   1.000  C
  C117     1.0000 0.75879  0.30000  0.20178  Biso   1.000  C
  O98      1.0000 0.83240  0.35798  0.15781  Biso   1.000  O
  H181     1.0000 0.87031  0.29851  0.23780  Biso   1.000  H
  C118     1.0000 0.78412  0.30471  0.35001  Biso   1.000  C
  O99      1.0000 0.49023  0.16621  0.09921  Biso   1.000  O
  C119     1.0000 0.61720  0.16960  0.19569  Biso   1.000  C
  H182     1.0000 0.54400  0.23400  0.14381  Biso   1.000  H
  O100     1.0000 0.64639  0.19351  0.33291  Biso   1.000  O
  H183     1.0000 0.58757  0.26361  0.29807  Biso   1.000  H
  C120     1.0000 0.55870  0.22779  0.38341  Biso   1.000  C
  C121     1.0000 0.75890  0.26840  0.27549  Biso   1.000  C
  O101     1.0000 0.74031  0.26510  0.13168  Biso   1.000  O
  H184     1.0000 0.72023  0.32878  0.18673  Biso   1.000  H
  H185     1.0000 0.81600  0.38908  0.15849  Biso   1.000  H
  H186     1.0000 0.74501  0.33230  0.34180  Biso   1.000  H
  C122     1.0000 0.80172  0.27448  0.42820  Biso   1.000  C
  H187     1.0000 0.44870  0.18102  0.08148  Biso   1.000  H
  O102     1.0000 0.64441  0.16981  0.13361  Biso   1.000  O
  C123     1.0000 0.67491  0.19491  0.27157  Biso   1.000  C
  H188     1.0000 0.61139  0.13089  0.20850  Biso   1.000  H
  O103     1.0000 0.61017  0.25550  0.44947  Biso   1.000  O
  H189     1.0000 0.51010  0.24549  0.36631  Biso   1.000  H
  H190     1.0000 0.55441  0.19028  0.40027  Biso   1.000  H
  O104     1.0000 0.68427  0.24901  0.25298  Biso   1.000  O
  H191     1.0000 0.79312  0.23681  0.28762  Biso   1.000  H
  H192     1.0000 0.73557  0.23321  0.14437  Biso   1.000  H
  O105     1.0000 0.85670  0.23131  0.44263  Biso   1.000  O
  H193     1.0000 0.82070  0.30029  0.47429  Biso   1.000  H
  H194     1.0000 0.75580  0.25831  0.42627  Biso   1.000  H
  H195     1.0000 0.67171  0.19669  0.14020  Biso   1.000  H
  H196     1.0000 0.72238  0.17448  0.29061  Biso   1.000  H
  H197     1.0000 0.65243  0.24380  0.45992  Biso   1.000  H
  H198     1.0000 0.89740  0.24520  0.45128  Biso   1.000  H
  O106     1.0000 0.35670  0.73131  0.44263  Biso   1.000  O
  C124     1.0000 0.30172  0.77448  0.42820  Biso   1.000  C
  H199     1.0000 0.39740  0.74520  0.45128  Biso   1.000  H
  C125     1.0000 0.28412  0.80471  0.35001  Biso   1.000  C
  H200     1.0000 0.32070  0.80029  0.47429  Biso   1.000  H
  H201     1.0000 0.25580  0.75831  0.42627  Biso   1.000  H
  C126     1.0000 0.25890  0.76840  0.27549  Biso   1.000  C
  O107     1.0000 0.35343  0.83259  0.36562  Biso   1.000  O
  H202     1.0000 0.24501  0.83230  0.34180  Biso   1.000  H
  O108     1.0000 0.18427  0.74901  0.25298  Biso   1.000  O
  C127     1.0000 0.25879  0.80000  0.20178  Biso   1.000  C
  H203     1.0000 0.29312  0.73681  0.28762  Biso   1.000  H
  C128     1.0000 0.35131  0.86290  0.29577  Biso   1.000  C
  C129     1.0000 0.17491  0.69491  0.27157  Biso   1.000  C
  O109     1.0000 0.24031  0.76510  0.13168  Biso   1.000  O
  C130     1.0000 0.33171  0.82721  0.22368  Biso   1.000  C
  H204     1.0000 0.22023  0.82878  0.18673  Biso   1.000  H
  O110     1.0000 0.30481  0.90790  0.27910  Biso   1.000  O
  H205     1.0000 0.40232  0.87680  0.31070  Biso   1.000  H
  C131     1.0000 0.11720  0.66960  0.19569  Biso   1.000  C
  O111     1.0000 0.14639  0.69351  0.33291  Biso   1.000  O
  H206     1.0000 0.22238  0.67448  0.29061  Biso   1.000  H
  H207     1.0000 0.23557  0.73321  0.14437  Biso   1.000  H
  O112     1.0000 0.33240  0.85798  0.15781  Biso   1.000  O
  H208     1.0000 0.37031  0.79851  0.23780  Biso   1.000  H
  C132     1.0000 0.33737  0.96038  0.30019  Biso   1.000  C
  O113     1.0000 0.14441  0.66981  0.13361  Biso   1.000  O
  H209     1.0000 0.11139  0.63089  0.20850  Biso   1.000  H
  C133     1.0000 0.04078  0.69669  0.16372  Biso   1.000  C
  C134     1.0000 0.07800  0.72581  0.31089  Biso   1.000  C
  H210     1.0000 0.31600  0.88908  0.15849  Biso   1.000  H
  C135     1.0000 0.31311  0.99520  0.22119  Biso   1.000  C
  H211     1.0000 0.39229  0.95761  0.32849  Biso   1.000  H
  C136     1.0000 0.30750  0.98950  0.35449  Biso   1.000  C
  H212     1.0000 0.17171  0.69669  0.14020  Biso   1.000  H
  H213     1.0000 0.04400  0.73400  0.14381  Biso   1.000  H
  C137     1.0000 0.01732  0.70079  0.23351  Biso   1.000  C
  O114     1.0000 0.99023  0.66621  0.09921  Biso   1.000  O
  H214     1.0000 0.08757  0.76361  0.29807  Biso   1.000  H
  C138     1.0000 0.05870  0.72779  0.38341  Biso   1.000  C
  O115     1.0000 0.33699  0.97080  0.16297  Biso   1.000  O
  H215     1.0000 0.25809  0.99690  0.19500  Biso   1.000  H
  C139     1.0000 0.34321  0.05509  0.23948  Biso   1.000  C
  H216     1.0000 0.25237  0.98970  0.32917  Biso   1.000  H
  O116     1.0000 0.33872  0.04669  0.37290  Biso   1.000  O
  H217     1.0000 0.00352  0.66419  0.24601  Biso   1.000  H
  O117     1.0000 0.95339  0.73668  0.20489  Biso   1.000  O
  H218     1.0000 0.94870  0.68102  0.08148  Biso   1.000  H
  O118     1.0000 0.11017  0.75550  0.44947  Biso   1.000  O
  H219     1.0000 0.01010  0.74549  0.36631  Biso   1.000  H
  H220     1.0000 0.05441  0.69028  0.40027  Biso   1.000  H
  H221     1.0000 0.34170  0.99512  0.13330  Biso   1.000  H
  O119     1.0000 0.31999  0.08689  0.16801  Biso   1.000  O
  C140     1.0000 0.31861  0.07870  0.30423  Biso   1.000  C
  H222     1.0000 0.39830  0.05352  0.26492  Biso   1.000  H
  C141     1.0000 0.88238  0.71551  0.19500  Biso   1.000  C
  H223     1.0000 0.15243  0.74380  0.45992  Biso   1.000  H
  H224     1.0000 0.32301  0.11969  0.18039  Biso   1.000  H
  O120     1.0000 0.24082  0.08780  0.26542  Biso   1.000  O
  H225     1.0000 0.34319  0.11468  0.32202  Biso   1.000  H
  O121     1.0000 0.86152  0.73801  0.25602  Biso   1.000  O
  H226     1.0000 0.88572  0.67519  0.20073  Biso   1.000  H
  C142     1.0000 0.82352  0.73040  0.10842  Biso   1.000  C
  C143     1.0000 0.21441  0.14400  0.25969  Biso   1.000  C
  C144     1.0000 0.85410  0.79739  0.25130  Biso   1.000  C
  O122     1.0000 0.84410  0.70649  0.04902  Biso   1.000  O
  H227     1.0000 0.77540  0.71431  0.10120  Biso   1.000  H
  C145     1.0000 0.81409  0.79111  0.09890  Biso   1.000  C
  C146     1.0000 0.15132  0.14950  0.17280  Biso   1.000  C
  H228     1.0000 0.25500  0.17018  0.26778  Biso   1.000  H
  C147     1.0000 0.18691  0.15149  0.32600  Biso   1.000  C
  C148     1.0000 0.79742  0.81551  0.16732  Biso   1.000  C
  H229     1.0000 0.90288  0.81419  0.26312  Biso   1.000  H
  C149     1.0000 0.83099  0.81241  0.31978  Biso   1.000  C
  H230     1.0000 0.80622  0.70021  0.00622  Biso   1.000  H
  O123     1.0000 0.75350  0.80352  0.02071  Biso   1.000  O
  H231     1.0000 0.86041  0.80761  0.10108  Biso   1.000  H
  O124     1.0000 0.18441  0.14938  0.11489  Biso   1.000  O
  C150     1.0000 0.10942  0.20389  0.16540  Biso   1.000  C
  H232     1.0000 0.11642  0.11840  0.16129  Biso   1.000  H
  O125     1.0000 0.13732  0.20021  0.30871  Biso   1.000  O
  H233     1.0000 0.15739  0.11869  0.32563  Biso   1.000  H
  C151     1.0000 0.24411  0.15889  0.40910  Biso   1.000  C
  O126     1.0000 0.79720  0.87378  0.15930  Biso   1.000  O
  H234     1.0000 0.74740  0.80339  0.15967  Biso   1.000  H
  O127     1.0000 0.75778  0.79239  0.30498  Biso   1.000  O
  H235     1.0000 0.86758  0.79731  0.37197  Biso   1.000  H
  H236     1.0000 0.83169  0.85232  0.32538  Biso   1.000  H
  H237     1.0000 0.76949  0.80670  0.98526  Biso   1.000  H
  H238     1.0000 0.16472  0.12519  0.07993  Biso   1.000  H
  O128     1.0000 0.05341  0.21092  0.08603  Biso   1.000  O
  C152     1.0000 0.07991  0.20310  0.23189  Biso   1.000  C
  H239     1.0000 0.14542  0.23449  0.17752  Biso   1.000  H
  O129     1.0000 0.29439  0.20269  0.40941  Biso   1.000  O
  H240     1.0000 0.27218  0.12481  0.42882  Biso   1.000  H
  H241     1.0000 0.22121  0.16840  0.44599  Biso   1.000  H
  C153     1.0000 0.73481  0.90389  0.16403  Biso   1.000  C
  H242     1.0000 0.73350  0.81749  0.31300  Biso   1.000  H
  H243     1.0000 0.02018  0.18788  0.07738  Biso   1.000  H
  O130     1.0000 0.03060  0.15720  0.21360  Biso   1.000  O
  H244     1.0000 0.05131  0.23710  0.22760  Biso   1.000  H
  H245     1.0000 0.33133  0.20318  0.45451  Biso   1.000  H
  O131     1.0000 0.75961  0.93710  0.23432  Biso   1.000  O
  H246     1.0000 0.69662  0.87792  0.16421  Biso   1.000  H
  C154     1.0000 0.70277  0.93879  0.08609  Biso   1.000  C
  C155     1.0000 0.95362  0.16708  0.20259  Biso   1.000  C
  C156     1.0000 0.81091  0.97870  0.23911  Biso   1.000  C
  O132     1.0000 0.67659  0.90670  0.01288  Biso   1.000  O
  H247     1.0000 0.65849  0.95749  0.08603  Biso   1.000  H
  C157     1.0000 0.75512  0.98329  0.08690  Biso   1.000  C
  C158     1.0000 0.94389  0.13420  0.27033  Biso   1.000  C
  C159     1.0000 0.90193  0.14632  0.11930  Biso   1.000  C
  H248     1.0000 0.94520  0.20662  0.20763  Biso   1.000  H
  H249     1.0000 0.85610  0.96150  0.23942  Biso   1.000  H
  C160     1.0000 0.77678  0.01671  0.16508  Biso   1.000  C
  C161     1.0000 0.83232  0.00951  0.32190  Biso   1.000  C
  H250     1.0000 0.69168  0.87481  0.02469  Biso   1.000  H
  H251     1.0000 0.80027  0.96650  0.08659  Biso   1.000  H
  O133     1.0000 0.72120  0.01919  0.01630  Biso   1.000  O
  O134     1.0000 0.86632  0.13470  0.25609  Biso   1.000  O
  H252     1.0000 0.95913  0.09591  0.26822  Biso   1.000  H
  C162     1.0000 0.98728  0.15571  0.35567  Biso   1.000  C
  C163     1.0000 0.82052  0.14839  0.11091  Biso   1.000  C
  O135     1.0000 0.90668  0.17990  0.05580  Biso   1.000  O
  H253     1.0000 0.91499  0.10798  0.11290  Biso   1.000  H
  O136     1.0000 0.83070  0.05819  0.16602  Biso   1.000  O
  H254     1.0000 0.73220  0.03490  0.16490  Biso   1.000  H
  H255     1.0000 0.84703  0.98292  0.36693  Biso   1.000  H
  O137     1.0000 0.77270  0.04098  0.32028  Biso   1.000  O
  H256     1.0000 0.87501  0.03342  0.33228  Biso   1.000  H
  H257     1.0000 0.69537  0.04239  0.02569  Biso   1.000  H
  C164     1.0000 0.81559  0.11311  0.17802  Biso   1.000  C
  O138     1.0000 0.96161  0.21791  0.35132  Biso   1.000  O
  O139     1.0000 0.99189  0.11092  0.42329  Biso   1.000  O
  O140     1.0000 0.76912  0.12891  0.03228  Biso   1.000  O
  H258     1.0000 0.80777  0.18668  0.11787  Biso   1.000  H
  H259     1.0000 0.92970  0.20840  0.07651  Biso   1.000  H
  H260     1.0000 0.73290  0.02808  0.28588  Biso   1.000  H
  H261     1.0000 0.76441  0.11538  0.17379  Biso   1.000  H
  H262     1.0000 0.96593  0.22771  0.39722  Biso   1.000  H
  H263     1.0000 0.00681  0.12568  0.46913  Biso   1.000  H
  H264     1.0000 0.75500  0.15471  0.99925  Biso   1.000  H
  Ne1      1.0000 0.54196  0.44271  0.22752  Biso   1.000  Ne
  He1      1.0000 0.56228  0.42245  0.29238  Biso   1.000  He
  He2      1.0000 0.53405  0.43429  0.15459  Biso   1.000  He
  Ar1      1.0000 0.53383  0.43013  0.16426  Biso   1.000  Ar
  Ne2      1.0000 0.45804  0.44271  0.77249  Biso   1.000  Ne
  He3      1.0000 0.46666  0.43935  0.86165  Biso   1.000  He
  He4      1.0000 0.43845  0.42241  0.71100  Biso   1.000  He
  Ar2      1.0000 0.46615  0.42977  0.83435  Biso   1.000  Ar
  Ne3      1.0000 0.04196  0.94271  0.22752  Biso   1.000  Ne
  He5      1.0000 0.06229  0.92245  0.29238  Biso   1.000  He
  He6      1.0000 0.03405  0.93429  0.15459  Biso   1.000  He
  Ar3      1.0000 0.03383  0.93013  0.16426  Biso   1.000  Ar
  Ne4      1.0000 0.95804  0.94271  0.77249  Biso   1.000  Ne
  He7      1.0000 0.96666  0.93934  0.86165  Biso   1.000  He
  He8      1.0000 0.93845  0.92240  0.71100  Biso   1.000  He
  Ar4      1.0000 0.96620  0.92984  0.83447  Biso   1.000  Ar
