data_image0
_cell_length_a       13.762
_cell_length_b       18.03
_cell_length_c       18.811
_cell_angle_alpha    93.84
_cell_angle_beta     103.06
_cell_angle_gamma    95.82

_symmetry_space_group_name_H-M    "P 1"
_symmetry_int_tables_number       1

loop_
  _symmetry_equiv_pos_as_xyz
  'x, y, z'

loop_
  _atom_site_label
  _atom_site_occupancy
  _atom_site_fract_x
  _atom_site_fract_y
  _atom_site_fract_z
  _atom_site_thermal_displace_type
  _atom_site_B_iso_or_equiv
  _atom_site_type_symbol
  C1       1.0000 0.47198  0.32990  0.49689  Biso   1.000  C
  C2       1.0000 0.38431  0.32303  0.52139  Biso   1.000  C
  C3       1.0000 0.55987  0.31282  0.54249  Biso   1.000  C
  O1       1.0000 0.29270  0.33639  0.48182  Biso   1.000  O
  C4       1.0000 0.38630  0.30157  0.58859  Biso   1.000  C
  C5       1.0000 0.56330  0.29037  0.61100  Biso   1.000  C
  C6       1.0000 0.28993  0.36977  0.41402  Biso   1.000  C
  C7       1.0000 0.47401  0.28449  0.63358  Biso   1.000  C
  C8       1.0000 0.65937  0.27350  0.65710  Biso   1.000  C
  C9       1.0000 0.29128  0.31462  0.34968  Biso   1.000  C
  C10      1.0000 0.66858  0.25250  0.72961  Biso   1.000  C
  N1       1.0000 0.73710  0.27908  0.62712  Biso   1.000  N
  C11      1.0000 0.29461  0.23898  0.35510  Biso   1.000  C
  C12      1.0000 0.29393  0.34102  0.28292  Biso   1.000  C
  C13      1.0000 0.75889  0.23521  0.76781  Biso   1.000  C
  C14      1.0000 0.82898  0.26238  0.66570  Biso   1.000  C
  C15      1.0000 0.30153  0.19112  0.29481  Biso   1.000  C
  C16      1.0000 0.30012  0.29460  0.22318  Biso   1.000  C
  C17      1.0000 0.84242  0.23832  0.73531  Biso   1.000  C
  C18      1.0000 0.91069  0.26627  0.62909  Biso   1.000  C
  C19      1.0000 0.30512  0.21942  0.23052  Biso   1.000  C
  C20      1.0000 0.30997  0.10539  0.30210  Biso   1.000  C
  C21      1.0000 0.30629  0.32608  0.15291  Biso   1.000  C
  C22      1.0000 0.92633  0.21951  0.77159  Biso   1.000  C
  N2       1.0000 0.89590  0.28908  0.56151  Biso   1.000  N
  C23      1.0000 0.00429  0.24501  0.66767  Biso   1.000  C
  O2       1.0000 0.22290  0.06170  0.27519  Biso   1.000  O
  O3       1.0000 0.20471  0.31920  0.10742  Biso   1.000  O
  C24      1.0000 0.01522  0.22323  0.74018  Biso   1.000  C
  C25      1.0000 0.97092  0.29129  0.52890  Biso   1.000  C
  C26      1.0000 0.08231  0.25121  0.63128  Biso   1.000  C
  C27      1.0000 0.19801  0.02748  0.20531  Biso   1.000  C
  C28      1.0000 0.19177  0.34282  0.03891  Biso   1.000  C
  C29      1.0000 0.94984  0.31368  0.45102  Biso   1.000  C
  C30      1.0000 0.06701  0.27268  0.56310  Biso   1.000  C
  C31      1.0000 0.25959  0.02702  0.15812  Biso   1.000  C
  C32      1.0000 0.10099  0.99269  0.18470  Biso   1.000  C
  C33      1.0000 0.26731  0.37509  0.01058  Biso   1.000  C
  C34      1.0000 0.09345  0.33251  0.99720  Biso   1.000  C
  C35      1.0000 0.84991  0.31000  0.41161  Biso   1.000  C
  C36      1.0000 0.02339  0.33642  0.41682  Biso   1.000  C
  C37      1.0000 0.22259  0.99078  0.08802  Biso   1.000  C
  C38      1.0000 0.06540  0.95589  0.11521  Biso   1.000  C
  C39      1.0000 0.24360  0.39721  0.93982  Biso   1.000  C
  C40      1.0000 0.07173  0.35513  0.92820  Biso   1.000  C
  C41      1.0000 0.82640  0.32540  0.34113  Biso   1.000  C
  C42      1.0000 0.00169  0.35308  0.34551  Biso   1.000  C
  C43      1.0000 0.12735  0.95530  0.06429  Biso   1.000  C
  C44      1.0000 0.14549  0.38834  0.89630  Biso   1.000  C
  C45      1.0000 0.90269  0.34670  0.30698  Biso   1.000  C
  C46      1.0000 0.08880  0.91836  0.98855  Biso   1.000  C
  C47      1.0000 0.12460  0.41195  0.82182  Biso   1.000  C
  O4       1.0000 0.87103  0.35939  0.23502  Biso   1.000  O
  C48      1.0000 0.99669  0.87101  0.96783  Biso   1.000  C
  N3       1.0000 0.14629  0.93122  0.94190  Biso   1.000  N
  C49      1.0000 0.02394  0.41911  0.78384  Biso   1.000  C
  N4       1.0000 0.20133  0.42561  0.79124  Biso   1.000  N
  C50      1.0000 0.94324  0.36349  0.19062  Biso   1.000  C
  C51      1.0000 0.96270  0.84161  0.89702  Biso   1.000  C
  C52      1.0000 0.11643  0.89953  0.87224  Biso   1.000  C
  C53      1.0000 0.00786  0.43834  0.71434  Biso   1.000  C
  C54      1.0000 0.18541  0.44614  0.72190  Biso   1.000  C
  C55      1.0000 0.88606  0.35158  0.11318  Biso   1.000  C
  C56      1.0000 0.02274  0.85625  0.84561  Biso   1.000  C
  C57      1.0000 0.17916  0.91241  0.82281  Biso   1.000  C
  C58      1.0000 0.08726  0.45211  0.67965  Biso   1.000  C
  C59      1.0000 0.26934  0.46330  0.68891  Biso   1.000  C
  C60      1.0000 0.82160  0.28659  0.08747  Biso   1.000  C
  C61      1.0000 0.89330  0.40419  0.06413  Biso   1.000  C
  C62      1.0000 0.99161  0.82543  0.77101  Biso   1.000  C
  C63      1.0000 0.14803  0.87962  0.74975  Biso   1.000  C
  N5       1.0000 0.26990  0.95484  0.84873  Biso   1.000  N
  C64      1.0000 0.07293  0.47225  0.60741  Biso   1.000  C
  C65      1.0000 0.25152  0.48540  0.61793  Biso   1.000  C
  N6       1.0000 0.36273  0.45705  0.72881  Biso   1.000  N
  C66      1.0000 0.76691  0.27203  0.01551  Biso   1.000  C
  C67      1.0000 0.84113  0.39195  0.99085  Biso   1.000  C
  C68      1.0000 0.05238  0.83653  0.72634  Biso   1.000  C
  C69      1.0000 0.21403  0.89353  0.70480  Biso   1.000  C
  C70      1.0000 0.32978  0.96643  0.80280  Biso   1.000  C
  C71      1.0000 0.15096  0.48774  0.57672  Biso   1.000  C
  C72      1.0000 0.33513  0.50501  0.59014  Biso   1.000  C
  C73      1.0000 0.44051  0.47513  0.70020  Biso   1.000  C
  C74      1.0000 0.68993  0.20262  0.99490  Biso   1.000  C
  C75      1.0000 0.77709  0.32581  0.96651  Biso   1.000  C
  C76      1.0000 0.85505  0.45321  0.94251  Biso   1.000  C
  C77      1.0000 0.30601  0.93265  0.73051  Biso   1.000  C
  C78      1.0000 0.42560  0.01630  0.83492  Biso   1.000  C
  C79      1.0000 0.42935  0.50052  0.63103  Biso   1.000  C
  C80      1.0000 0.54269  0.46453  0.74481  Biso   1.000  C
  O5       1.0000 0.67010  0.17845  0.91993  Biso   1.000  O
  O6       1.0000 0.82431  0.43064  0.86610  Biso   1.000  O
  C81      1.0000 0.45733  0.03511  0.90863  Biso   1.000  C
  C82      1.0000 0.48337  0.05035  0.79063  Biso   1.000  C
  C83      1.0000 0.62289  0.45692  0.71390  Biso   1.000  C
  C84      1.0000 0.55871  0.46261  0.81985  Biso   1.000  C
  C85      1.0000 0.59155  0.12195  0.89554  Biso   1.000  C
  C86      1.0000 0.72945  0.44413  0.82960  Biso   1.000  C
  C87      1.0000 0.53960  0.08710  0.93900  Biso   1.000  C
  C88      1.0000 0.56493  0.10344  0.82083  Biso   1.000  C
  C89      1.0000 0.71529  0.44614  0.75490  Biso   1.000  C
  C90      1.0000 0.65110  0.45250  0.86265  Biso   1.000  C
  C91      1.0000 0.52802  0.67012  0.50308  Biso   1.000  C
  C92      1.0000 0.44013  0.68721  0.45748  Biso   1.000  C
  C93      1.0000 0.61569  0.67700  0.47859  Biso   1.000  C
  C94      1.0000 0.43669  0.70960  0.38897  Biso   1.000  C
  C95      1.0000 0.61369  0.69840  0.41139  Biso   1.000  C
  O7       1.0000 0.70731  0.66358  0.51821  Biso   1.000  O
  C96      1.0000 0.34055  0.72647  0.34288  Biso   1.000  C
  C97      1.0000 0.52598  0.71549  0.36639  Biso   1.000  C
  C98      1.0000 0.71008  0.63020  0.58601  Biso   1.000  C
  C99      1.0000 0.33143  0.74748  0.27042  Biso   1.000  C
  N7       1.0000 0.26291  0.72090  0.37291  Biso   1.000  N
  C100     1.0000 0.70872  0.68541  0.65030  Biso   1.000  C
  C101     1.0000 0.24113  0.76482  0.23222  Biso   1.000  C
  C102     1.0000 0.17101  0.73759  0.33428  Biso   1.000  C
  C103     1.0000 0.70539  0.76100  0.64487  Biso   1.000  C
  C104     1.0000 0.70608  0.65901  0.71711  Biso   1.000  C
  C105     1.0000 0.15760  0.76171  0.26472  Biso   1.000  C
  C106     1.0000 0.08930  0.73370  0.37089  Biso   1.000  C
  C107     1.0000 0.69849  0.80892  0.70522  Biso   1.000  C
  C108     1.0000 0.69988  0.70542  0.77680  Biso   1.000  C
  C109     1.0000 0.07367  0.78052  0.22839  Biso   1.000  C
  N8       1.0000 0.10411  0.71089  0.43852  Biso   1.000  N
  C110     1.0000 0.99571  0.75502  0.33230  Biso   1.000  C
  C111     1.0000 0.69490  0.78061  0.76951  Biso   1.000  C
  C112     1.0000 0.69002  0.89458  0.69787  Biso   1.000  C
  C113     1.0000 0.69372  0.67390  0.84712  Biso   1.000  C
  C114     1.0000 0.98478  0.77680  0.25979  Biso   1.000  C
  C115     1.0000 0.02907  0.70868  0.47108  Biso   1.000  C
  C116     1.0000 0.91769  0.74882  0.36869  Biso   1.000  C
  O8       1.0000 0.77709  0.93827  0.72478  Biso   1.000  O
  O9       1.0000 0.79531  0.68083  0.89261  Biso   1.000  O
  C117     1.0000 0.05017  0.68629  0.54901  Biso   1.000  C
  C118     1.0000 0.93299  0.72729  0.43688  Biso   1.000  C
  C119     1.0000 0.80200  0.97249  0.79472  Biso   1.000  C
  C120     1.0000 0.80817  0.65721  0.96112  Biso   1.000  C
  C121     1.0000 0.15011  0.69003  0.58842  Biso   1.000  C
  C122     1.0000 0.97663  0.66361  0.58321  Biso   1.000  C
  C123     1.0000 0.74042  0.97301  0.84191  Biso   1.000  C
  C124     1.0000 0.89902  0.00728  0.81533  Biso   1.000  C
  C125     1.0000 0.73268  0.62488  0.98940  Biso   1.000  C
  C126     1.0000 0.90654  0.66746  0.00277  Biso   1.000  C
  C127     1.0000 0.17361  0.67457  0.65890  Biso   1.000  C
  C128     1.0000 0.99832  0.64690  0.65452  Biso   1.000  C
  C129     1.0000 0.77742  0.00920  0.91201  Biso   1.000  C
  C130     1.0000 0.93461  0.04409  0.88482  Biso   1.000  C
  C131     1.0000 0.75639  0.60276  0.06015  Biso   1.000  C
  C132     1.0000 0.92827  0.64490  0.07177  Biso   1.000  C
  C133     1.0000 0.09731  0.65327  0.69299  Biso   1.000  C
  C134     1.0000 0.87264  0.04467  0.93569  Biso   1.000  C
  C135     1.0000 0.85444  0.61168  0.10367  Biso   1.000  C
  O10      1.0000 0.12898  0.64058  0.76501  Biso   1.000  O
  C136     1.0000 0.91122  0.08168  0.01149  Biso   1.000  C
  C137     1.0000 0.87540  0.58808  0.17816  Biso   1.000  C
  C138     1.0000 0.05677  0.63648  0.80941  Biso   1.000  C
  N9       1.0000 0.85370  0.06875  0.05807  Biso   1.000  N
  C139     1.0000 0.00332  0.12896  0.03220  Biso   1.000  C
  C140     1.0000 0.97607  0.58087  0.21619  Biso   1.000  C
  N10      1.0000 0.79868  0.57437  0.20879  Biso   1.000  N
  C141     1.0000 0.11386  0.64839  0.88680  Biso   1.000  C
  C142     1.0000 0.88358  0.10045  0.12779  Biso   1.000  C
  C143     1.0000 0.03729  0.15836  0.10296  Biso   1.000  C
  C144     1.0000 0.99216  0.56169  0.28569  Biso   1.000  C
  C145     1.0000 0.81459  0.55389  0.27807  Biso   1.000  C
  C146     1.0000 0.17840  0.71338  0.91250  Biso   1.000  C
  C147     1.0000 0.10671  0.59579  0.93590  Biso   1.000  C
  C148     1.0000 0.82076  0.08756  0.17717  Biso   1.000  C
  C149     1.0000 0.97726  0.14377  0.15437  Biso   1.000  C
  C150     1.0000 0.91275  0.54787  0.32038  Biso   1.000  C
  C151     1.0000 0.73065  0.53667  0.31107  Biso   1.000  C
  C152     1.0000 0.23310  0.72801  0.98452  Biso   1.000  C
  C153     1.0000 0.15888  0.60808  0.00918  Biso   1.000  C
  C154     1.0000 0.85198  0.12036  0.25028  Biso   1.000  C
  N11      1.0000 0.73011  0.04520  0.15130  Biso   1.000  N
  C155     1.0000 0.00839  0.17459  0.22896  Biso   1.000  C
  C156     1.0000 0.92707  0.52778  0.39257  Biso   1.000  C
  C157     1.0000 0.74849  0.51458  0.38210  Biso   1.000  C
  N12      1.0000 0.63727  0.54298  0.27117  Biso   1.000  N
  C158     1.0000 0.22290  0.67416  0.03346  Biso   1.000  C
  C159     1.0000 0.31007  0.79735  0.00507  Biso   1.000  C
  C160     1.0000 0.14494  0.54676  0.05747  Biso   1.000  C
  C161     1.0000 0.78597  0.10649  0.29517  Biso   1.000  C
  C162     1.0000 0.94764  0.16350  0.27369  Biso   1.000  C
  C163     1.0000 0.67022  0.03360  0.19718  Biso   1.000  C
  C164     1.0000 0.84904  0.51229  0.42326  Biso   1.000  C
  C165     1.0000 0.66488  0.49497  0.40989  Biso   1.000  C
  C166     1.0000 0.55949  0.52490  0.29978  Biso   1.000  C
  O11      1.0000 0.32983  0.82157  0.08005  Biso   1.000  O
  O12      1.0000 0.17569  0.56939  0.13387  Biso   1.000  O
  C167     1.0000 0.69399  0.06737  0.26947  Biso   1.000  C
  C168     1.0000 0.57439  0.98367  0.16506  Biso   1.000  C
  C169     1.0000 0.57066  0.49945  0.36900  Biso   1.000  C
  C170     1.0000 0.45730  0.53550  0.25516  Biso   1.000  C
  C171     1.0000 0.40847  0.87808  0.10449  Biso   1.000  C
  C172     1.0000 0.27055  0.55590  0.17037  Biso   1.000  C
  C173     1.0000 0.54268  0.96487  0.09140  Biso   1.000  C
  C174     1.0000 0.51665  0.94968  0.20940  Biso   1.000  C
  C175     1.0000 0.37710  0.54305  0.28607  Biso   1.000  C
  C176     1.0000 0.44130  0.53737  0.18018  Biso   1.000  C
  C177     1.0000 0.46039  0.91287  0.06098  Biso   1.000  C
  C178     1.0000 0.43509  0.89659  0.17920  Biso   1.000  C
  C179     1.0000 0.28464  0.55389  0.24508  Biso   1.000  C
  C180     1.0000 0.34891  0.54747  0.13738  Biso   1.000  C
  Ne1      1.0000 0.46777  0.24371  0.10517  Biso   1.000  Ne
  He1      1.0000 0.57614  0.25209  0.16920  Biso   1.000  He
  He2      1.0000 0.58099  0.41122  0.10485  Biso   1.000  He
  He3      1.0000 0.16156  0.16258  0.79673  Biso   1.000  He
  Ar1      1.0000 0.51640  0.17063  0.13205  Biso   1.000  Ar
  Ne2      1.0000 0.53223  0.75628  0.89483  Biso   1.000  Ne
  He4      1.0000 0.68778  0.83465  0.99629  Biso   1.000  He
  He5      1.0000 0.42086  0.75553  0.82223  Biso   1.000  He
  He6      1.0000 0.40982  0.81254  0.80860  Biso   1.000  He
  Ar2      1.0000 0.48422  0.82942  0.86847  Biso   1.000  Ar
