data_image0
_cell_length_a       14.471
_cell_length_b       22.919
_cell_length_c       16.135
_cell_angle_alpha    90
_cell_angle_beta     105.02
_cell_angle_gamma    90

_symmetry_space_group_name_H-M    "P 1"
_symmetry_int_tables_number       1

loop_
  _symmetry_equiv_pos_as_xyz
  'x, y, z'

loop_
  _atom_site_label
  _atom_site_occupancy
  _atom_site_fract_x
  _atom_site_fract_y
  _atom_site_fract_z
  _atom_site_thermal_displace_type
  _atom_site_B_iso_or_equiv
  _atom_site_type_symbol
  O1       1.0000 0.46805  0.25206  0.55628  Biso   1.000  O
  C1       1.0000 0.49251  0.24242  0.49051  Biso   1.000  C
  N1       1.0000 0.43374  0.24098  0.40959  Biso   1.000  N
  N2       1.0000 0.58378  0.22920  0.48570  Biso   1.000  N
  C2       1.0000 0.33199  0.23561  0.39560  Biso   1.000  C
  C3       1.0000 0.48310  0.22488  0.34459  Biso   1.000  C
  C4       1.0000 0.58967  0.22038  0.39798  Biso   1.000  C
  C5       1.0000 0.66139  0.21912  0.55936  Biso   1.000  C
  N3       1.0000 0.27825  0.28592  0.35479  Biso   1.000  N
  H1       1.0000 0.31061  0.20149  0.36012  Biso   1.000  H
  H2       1.0000 0.31776  0.22898  0.45040  Biso   1.000  H
  N4       1.0000 0.48685  0.27109  0.28440  Biso   1.000  N
  H3       1.0000 0.45929  0.18810  0.31578  Biso   1.000  H
  N5       1.0000 0.63638  0.26711  0.36423  Biso   1.000  N
  H4       1.0000 0.61734  0.18229  0.39066  Biso   1.000  H
  H5       1.0000 0.63559  0.21140  0.60807  Biso   1.000  H
  H6       1.0000 0.69530  0.18439  0.54948  Biso   1.000  H
  N6       1.0000 0.72859  0.26646  0.58099  Biso   1.000  N
  C6       1.0000 0.25705  0.29569  0.26348  Biso   1.000  C
  C7       1.0000 0.22395  0.31899  0.39310  Biso   1.000  C
  C8       1.0000 0.40675  0.28570  0.21240  Biso   1.000  C
  C9       1.0000 0.57679  0.29508  0.29601  Biso   1.000  C
  C10      1.0000 0.73905  0.27279  0.38187  Biso   1.000  C
  C11      1.0000 0.80737  0.27488  0.54082  Biso   1.000  C
  C12      1.0000 0.74185  0.29678  0.65511  Biso   1.000  C
  C13      1.0000 0.18138  0.34408  0.24840  Biso   1.000  C
  H7       1.0000 0.23267  0.26040  0.23101  Biso   1.000  H
  N7       1.0000 0.33395  0.32148  0.23499  Biso   1.000  N
  N8       1.0000 0.17126  0.35630  0.33439  Biso   1.000  N
  O2       1.0000 0.22189  0.31546  0.46921  Biso   1.000  O
  H8       1.0000 0.43091  0.30621  0.16973  Biso   1.000  H
  H9       1.0000 0.37741  0.24979  0.18641  Biso   1.000  H
  O3       1.0000 0.59738  0.33374  0.25270  Biso   1.000  O
  H10      1.0000 0.75451  0.29338  0.33471  Biso   1.000  H
  H11      1.0000 0.76699  0.23409  0.38457  Biso   1.000  H
  N9       1.0000 0.78159  0.30259  0.45900  Biso   1.000  N
  H12      1.0000 0.84158  0.23819  0.53870  Biso   1.000  H
  C14      1.0000 0.87208  0.31978  0.60120  Biso   1.000  C
  N10      1.0000 0.82068  0.33278  0.66486  Biso   1.000  N
  O4       1.0000 0.69198  0.29299  0.70708  Biso   1.000  O
  H13      1.0000 0.12087  0.33152  0.20951  Biso   1.000  H
  N11      1.0000 0.22467  0.39081  0.21240  Biso   1.000  N
  C15      1.0000 0.31041  0.37489  0.19918  Biso   1.000  C
  C16      1.0000 0.08774  0.38741  0.34838  Biso   1.000  C
  C17      1.0000 0.83005  0.35499  0.46029  Biso   1.000  C
  N12      1.0000 0.87568  0.36764  0.54428  Biso   1.000  N
  H14      1.0000 0.93583  0.30390  0.62738  Biso   1.000  H
  C18      1.0000 0.86303  0.36149  0.74469  Biso   1.000  C
  C19      1.0000 0.16947  0.43911  0.16581  Biso   1.000  C
  O5       1.0000 0.35876  0.40586  0.16350  Biso   1.000  O
  H15      1.0000 0.03098  0.37458  0.30570  Biso   1.000  H
  H16      1.0000 0.07988  0.37698  0.40440  Biso   1.000  H
  N13      1.0000 0.09566  0.44989  0.34350  Biso   1.000  N
  O6       1.0000 0.82994  0.38431  0.39747  Biso   1.000  O
  C20      1.0000 0.94658  0.41271  0.56629  Biso   1.000  C
  H17      1.0000 0.82777  0.35102  0.78601  Biso   1.000  H
  H18      1.0000 0.92814  0.34762  0.76650  Biso   1.000  H
  N14      1.0000 0.86455  0.42406  0.73750  Biso   1.000  N
  H19      1.0000 0.20416  0.45600  0.12757  Biso   1.000  H
  H20      1.0000 0.10922  0.42432  0.13071  Biso   1.000  H
  N15      1.0000 0.15029  0.48431  0.22190  Biso   1.000  N
  C21      1.0000 0.07241  0.48148  0.26399  Biso   1.000  C
  C22      1.0000 0.09459  0.48580  0.41152  Biso   1.000  C
  H21      1.0000 0.95628  0.42938  0.51400  Biso   1.000  H
  N16      1.0000 0.92116  0.45870  0.61750  Biso   1.000  N
  H22      1.0000 0.00668  0.39548  0.59780  Biso   1.000  H
  C23      1.0000 0.93822  0.45491  0.70907  Biso   1.000  C
  C24      1.0000 0.81595  0.46019  0.77857  Biso   1.000  C
  C25      1.0000 0.18400  0.53981  0.22138  Biso   1.000  C
  C26      1.0000 0.06166  0.54509  0.29088  Biso   1.000  C
  H23      1.0000 0.01318  0.46699  0.22498  Biso   1.000  H
  N17      1.0000 0.07881  0.54130  0.38251  Biso   1.000  N
  O7       1.0000 0.10764  0.46948  0.48660  Biso   1.000  O
  C27      1.0000 0.90538  0.51420  0.58850  Biso   1.000  C
  C28      1.0000 0.92754  0.51852  0.73596  Biso   1.000  C
  H24      1.0000 0.00203  0.43942  0.73596  Biso   1.000  H
  N18      1.0000 0.84968  0.51569  0.77812  Biso   1.000  N
  O8       1.0000 0.75175  0.44531  0.81181  Biso   1.000  O
  N19      1.0000 0.13542  0.57594  0.26252  Biso   1.000  N
  O9       1.0000 0.24822  0.55469  0.18821  Biso   1.000  O
  H25      1.0000 0.99785  0.56058  0.26399  Biso   1.000  H
  C29      1.0000 0.05339  0.58729  0.43372  Biso   1.000  C
  N20      1.0000 0.90424  0.55011  0.65652  Biso   1.000  N
  O10      1.0000 0.89226  0.53052  0.51342  Biso   1.000  O
  H26      1.0000 0.98677  0.53301  0.77497  Biso   1.000  H
  C30      1.0000 0.83043  0.56089  0.83420  Biso   1.000  C
  C31      1.0000 0.13685  0.63851  0.25527  Biso   1.000  C
  H27      1.0000 0.04369  0.57062  0.48602  Biso   1.000  H
  N21      1.0000 0.12427  0.63236  0.45567  Biso   1.000  N
  H28      1.0000 0.99329  0.60452  0.40221  Biso   1.000  H
  C32      1.0000 0.91214  0.61259  0.65158  Biso   1.000  C
  H29      1.0000 0.79572  0.54400  0.87238  Biso   1.000  H
  H30      1.0000 0.89075  0.57568  0.86930  Biso   1.000  H
  N22      1.0000 0.77523  0.60919  0.78762  Biso   1.000  N
  H31      1.0000 0.17220  0.64898  0.21400  Biso   1.000  H
  H32      1.0000 0.07176  0.65238  0.23351  Biso   1.000  H
  N23      1.0000 0.17927  0.66722  0.33509  Biso   1.000  N
  C33      1.0000 0.12789  0.68022  0.39881  Biso   1.000  C
  C34      1.0000 0.16983  0.64501  0.53966  Biso   1.000  C
  H33      1.0000 0.96899  0.62542  0.69431  Biso   1.000  H
  H34      1.0000 0.92009  0.62302  0.59562  Biso   1.000  H
  N24      1.0000 0.82863  0.64370  0.66556  Biso   1.000  N
  C35      1.0000 0.81859  0.65592  0.75162  Biso   1.000  C
  C36      1.0000 0.68955  0.62511  0.80077  Biso   1.000  C
  C37      1.0000 0.25805  0.70322  0.34491  Biso   1.000  C
  C38      1.0000 0.19260  0.72512  0.45920  Biso   1.000  C
  H35      1.0000 0.06405  0.69610  0.37257  Biso   1.000  H
  N25      1.0000 0.21838  0.69741  0.54101  Biso   1.000  N
  O11      1.0000 0.16995  0.61569  0.60249  Biso   1.000  O
  C39      1.0000 0.77595  0.68101  0.60691  Biso   1.000  C
  C40      1.0000 0.74283  0.70431  0.73647  Biso   1.000  C
  H36      1.0000 0.87903  0.66848  0.79050  Biso   1.000  H
  N26      1.0000 0.66593  0.67852  0.76496  Biso   1.000  N
  O12      1.0000 0.64113  0.59414  0.83651  Biso   1.000  O
  N27      1.0000 0.27138  0.73354  0.41903  Biso   1.000  N
  O13      1.0000 0.30797  0.70701  0.29287  Biso   1.000  O
  H37      1.0000 0.15838  0.76181  0.46131  Biso   1.000  H
  C41      1.0000 0.26083  0.72721  0.61808  Biso   1.000  C
  N28      1.0000 0.72163  0.71408  0.64516  Biso   1.000  N
  O14      1.0000 0.77808  0.68454  0.53081  Biso   1.000  O
  H38      1.0000 0.76723  0.73960  0.76901  Biso   1.000  H
  C42      1.0000 0.59314  0.71430  0.78762  Biso   1.000  C
  C43      1.0000 0.33856  0.78088  0.44059  Biso   1.000  C
  H39      1.0000 0.24545  0.70662  0.66531  Biso   1.000  H
  H40      1.0000 0.23296  0.76591  0.61538  Biso   1.000  H
  N29      1.0000 0.36359  0.73289  0.63579  Biso   1.000  N
  C44      1.0000 0.66798  0.76439  0.60441  Biso   1.000  C
  N30      1.0000 0.51305  0.72891  0.71562  Biso   1.000  N
  H41      1.0000 0.56906  0.69379  0.83029  Biso   1.000  H
  H42      1.0000 0.62256  0.75021  0.81360  Biso   1.000  H
  H43      1.0000 0.36436  0.78860  0.39188  Biso   1.000  H
  H44      1.0000 0.30465  0.81561  0.45047  Biso   1.000  H
  N31      1.0000 0.41618  0.77080  0.51432  Biso   1.000  N
  C45      1.0000 0.41028  0.77962  0.60197  Biso   1.000  C
  C46      1.0000 0.42318  0.70492  0.70400  Biso   1.000  C
  N32      1.0000 0.56616  0.75902  0.59042  Biso   1.000  N
  H45      1.0000 0.68936  0.79851  0.63990  Biso   1.000  H
  H46      1.0000 0.68221  0.77102  0.54961  Biso   1.000  H
  C47      1.0000 0.51685  0.77512  0.65536  Biso   1.000  C
  C48      1.0000 0.50746  0.75758  0.50950  Biso   1.000  C
  H47      1.0000 0.38254  0.81771  0.60929  Biso   1.000  H
  O15      1.0000 0.40259  0.66626  0.74732  Biso   1.000  O
  H48      1.0000 0.54066  0.81190  0.68417  Biso   1.000  H
  O16      1.0000 0.53184  0.74794  0.44367  Biso   1.000  O
  N33      1.0000 0.48683  0.22889  0.78441  Biso   1.000  N
  C49      1.0000 0.40674  0.21432  0.71241  Biso   1.000  C
  C50      1.0000 0.57676  0.20490  0.79596  Biso   1.000  C
  C51      1.0000 0.48308  0.27510  0.84460  Biso   1.000  C
  H49      1.0000 0.43088  0.19381  0.66967  Biso   1.000  H
  H50      1.0000 0.37739  0.25019  0.68642  Biso   1.000  H
  N34      1.0000 0.33394  0.17850  0.73500  Biso   1.000  N
  N35      1.0000 0.63634  0.23291  0.86417  Biso   1.000  N
  O17      1.0000 0.59736  0.16624  0.75271  Biso   1.000  O
  H51      1.0000 0.45928  0.31188  0.81579  Biso   1.000  H
  C52      1.0000 0.58966  0.27959  0.89799  Biso   1.000  C
  N36      1.0000 0.43373  0.25900  0.90960  Biso   1.000  N
  C53      1.0000 0.31039  0.12509  0.69919  Biso   1.000  C
  C54      1.0000 0.25703  0.20428  0.76349  Biso   1.000  C
  C55      1.0000 0.73903  0.22719  0.88188  Biso   1.000  C
  H52      1.0000 0.61733  0.31768  0.89067  Biso   1.000  H
  N37      1.0000 0.58377  0.27082  0.98571  Biso   1.000  N
  C56      1.0000 0.33197  0.26441  0.89561  Biso   1.000  C
  C57      1.0000 0.49240  0.25760  0.99045  Biso   1.000  C
  N38      1.0000 0.22465  0.10921  0.71241  Biso   1.000  N
  O18      1.0000 0.35875  0.09411  0.66351  Biso   1.000  O
  C58      1.0000 0.18136  0.15590  0.74841  Biso   1.000  C
  H53      1.0000 0.23265  0.23958  0.73102  Biso   1.000  H
  N39      1.0000 0.27823  0.21410  0.85480  Biso   1.000  N
  H54      1.0000 0.75443  0.20660  0.83472  Biso   1.000  H
  H55      1.0000 0.76697  0.26589  0.88458  Biso   1.000  H
  N40      1.0000 0.78157  0.19739  0.95901  Biso   1.000  N
  C59      1.0000 0.66146  0.28090  0.05944  Biso   1.000  C
  H56      1.0000 0.31051  0.29849  0.86006  Biso   1.000  H
  H57      1.0000 0.31775  0.27100  0.95041  Biso   1.000  H
  O19      1.0000 0.46810  0.24796  0.05629  Biso   1.000  O
  C60      1.0000 0.16945  0.06091  0.66582  Biso   1.000  C
  H58      1.0000 0.12085  0.16851  0.70952  Biso   1.000  H
  N41      1.0000 0.17124  0.14368  0.83439  Biso   1.000  N
  C61      1.0000 0.22393  0.18099  0.89311  Biso   1.000  C
  C62      1.0000 0.83004  0.14499  0.96029  Biso   1.000  C
  C63      1.0000 0.80742  0.22510  0.04083  Biso   1.000  C
  H59      1.0000 0.63566  0.28858  0.10814  Biso   1.000  H
  H60      1.0000 0.69535  0.31559  0.04949  Biso   1.000  H
  N42      1.0000 0.72864  0.23356  0.08100  Biso   1.000  N
  H61      1.0000 0.20415  0.04398  0.62758  Biso   1.000  H
  H62      1.0000 0.10914  0.07570  0.63072  Biso   1.000  H
  N43      1.0000 0.15028  0.01571  0.72191  Biso   1.000  N
  C64      1.0000 0.08773  0.11261  0.84838  Biso   1.000  C
  O20      1.0000 0.22188  0.18452  0.96921  Biso   1.000  O
  O21      1.0000 0.82992  0.11571  0.89747  Biso   1.000  O
  N44      1.0000 0.87573  0.13238  0.04429  Biso   1.000  N
  H63      1.0000 0.84164  0.26179  0.03871  Biso   1.000  H
  C65      1.0000 0.87214  0.18020  0.10121  Biso   1.000  C
  C66      1.0000 0.74190  0.20319  0.15511  Biso   1.000  C
  C67      1.0000 0.07233  0.01850  0.76400  Biso   1.000  C
  C68      1.0000 0.18399  0.96021  0.72139  Biso   1.000  C
  H64      1.0000 0.03096  0.12540  0.80571  Biso   1.000  H
  H65      1.0000 0.07987  0.12300  0.90440  Biso   1.000  H
  N45      1.0000 0.09565  0.05013  0.84351  Biso   1.000  N
  C69      1.0000 0.94663  0.08731  0.06630  Biso   1.000  C
  H66      1.0000 0.93595  0.19608  0.12739  Biso   1.000  H
  N46      1.0000 0.82075  0.16720  0.16493  Biso   1.000  N
  O22      1.0000 0.69203  0.20699  0.20709  Biso   1.000  O
  H67      1.0000 0.01317  0.03299  0.72499  Biso   1.000  H
  C70      1.0000 0.06165  0.95488  0.79089  Biso   1.000  C
  N47      1.0000 0.13532  0.92408  0.76246  Biso   1.000  N
  O23      1.0000 0.24814  0.94529  0.68822  Biso   1.000  O
  C71      1.0000 0.09455  0.01418  0.91146  Biso   1.000  C
  H68      1.0000 0.95633  0.07060  0.01400  Biso   1.000  H
  N48      1.0000 0.92121  0.04132  0.11751  Biso   1.000  N
  H69      1.0000 0.00674  0.10450  0.09781  Biso   1.000  H
  C72      1.0000 0.86315  0.13849  0.24469  Biso   1.000  C
  H70      1.0000 0.99783  0.93940  0.76400  Biso   1.000  H
  N49      1.0000 0.07871  0.95868  0.88246  Biso   1.000  N
  C73      1.0000 0.13684  0.86151  0.75527  Biso   1.000  C
  O24      1.0000 0.10763  0.03054  0.98660  Biso   1.000  O
  C74      1.0000 0.90544  0.98582  0.08851  Biso   1.000  C
  C75      1.0000 0.93836  0.04512  0.20914  Biso   1.000  C
  H71      1.0000 0.82783  0.14900  0.28602  Biso   1.000  H
  H72      1.0000 0.92819  0.15241  0.26651  Biso   1.000  H
  N50      1.0000 0.86460  0.07592  0.23751  Biso   1.000  N
  C76      1.0000 0.05336  0.91269  0.93366  Biso   1.000  C
  H73      1.0000 0.17218  0.85100  0.71401  Biso   1.000  H
  H74      1.0000 0.07174  0.84759  0.73352  Biso   1.000  H
  N51      1.0000 0.17925  0.83280  0.83510  Biso   1.000  N
  N52      1.0000 0.90436  0.94987  0.15652  Biso   1.000  N
  O25      1.0000 0.89231  0.96946  0.01343  Biso   1.000  O
  C77      1.0000 0.92761  0.98150  0.23603  Biso   1.000  C
  H75      1.0000 0.00210  0.06060  0.23603  Biso   1.000  H
  C78      1.0000 0.81602  0.03979  0.27864  Biso   1.000  C
  H76      1.0000 0.99325  0.89550  0.90216  Biso   1.000  H
  H77      1.0000 0.04366  0.92940  0.98596  Biso   1.000  H
  N53      1.0000 0.12426  0.86762  0.95567  Biso   1.000  N
  C79      1.0000 0.12785  0.81980  0.89876  Biso   1.000  C
  C80      1.0000 0.25803  0.79681  0.84492  Biso   1.000  C
  C81      1.0000 0.91219  0.88739  0.15158  Biso   1.000  C
  H78      1.0000 0.98682  0.96701  0.27498  Biso   1.000  H
  N54      1.0000 0.84973  0.98429  0.27813  Biso   1.000  N
  O26      1.0000 0.75180  0.05471  0.31181  Biso   1.000  O
  C82      1.0000 0.16997  0.85501  0.03974  Biso   1.000  C
  C83      1.0000 0.19252  0.77490  0.95920  Biso   1.000  C
  H79      1.0000 0.06404  0.80392  0.87258  Biso   1.000  H
  N55      1.0000 0.27135  0.76644  0.91897  Biso   1.000  N
  O27      1.0000 0.30795  0.79301  0.79288  Biso   1.000  O
  H80      1.0000 0.96904  0.87460  0.19432  Biso   1.000  H
  H81      1.0000 0.92014  0.87700  0.09563  Biso   1.000  H
  N56      1.0000 0.82877  0.85632  0.16564  Biso   1.000  N
  C84      1.0000 0.83049  0.93909  0.33421  Biso   1.000  C
  N57      1.0000 0.21844  0.80261  0.04102  Biso   1.000  N
  O28      1.0000 0.17000  0.88429  0.10249  Biso   1.000  O
  H82      1.0000 0.15835  0.73821  0.96126  Biso   1.000  H
  C85      1.0000 0.33854  0.71910  0.94059  Biso   1.000  C
  C86      1.0000 0.81865  0.84410  0.25162  Biso   1.000  C
  C87      1.0000 0.77601  0.81901  0.10692  Biso   1.000  C
  H83      1.0000 0.79584  0.95602  0.37239  Biso   1.000  H
  H84      1.0000 0.89080  0.92430  0.36931  Biso   1.000  H
  N58      1.0000 0.77536  0.89079  0.28762  Biso   1.000  N
  C88      1.0000 0.26095  0.77281  0.11809  Biso   1.000  C
  H85      1.0000 0.36434  0.71142  0.89189  Biso   1.000  H
  H86      1.0000 0.30464  0.68441  0.95048  Biso   1.000  H
  N59      1.0000 0.41624  0.72918  0.01433  Biso   1.000  N
  H87      1.0000 0.87909  0.83149  0.29051  Biso   1.000  H
  C89      1.0000 0.74291  0.79572  0.23654  Biso   1.000  C
  N60      1.0000 0.72170  0.78590  0.14523  Biso   1.000  N
  O29      1.0000 0.77813  0.81548  0.03082  Biso   1.000  O
  C90      1.0000 0.68962  0.87491  0.30084  Biso   1.000  C
  H88      1.0000 0.24551  0.79340  0.16532  Biso   1.000  H
  H89      1.0000 0.23302  0.73411  0.11539  Biso   1.000  H
  N61      1.0000 0.36365  0.76709  0.13580  Biso   1.000  N
  C91      1.0000 0.41035  0.72041  0.10205  Biso   1.000  C
  C92      1.0000 0.50752  0.74240  0.00951  Biso   1.000  C
  H90      1.0000 0.76735  0.76042  0.26901  Biso   1.000  H
  N62      1.0000 0.66600  0.82150  0.26504  Biso   1.000  N
  C93      1.0000 0.66803  0.73559  0.10442  Biso   1.000  C
  O30      1.0000 0.64119  0.90589  0.33652  Biso   1.000  O
  C94      1.0000 0.42323  0.79510  0.20401  Biso   1.000  C
  C95      1.0000 0.51693  0.72490  0.15543  Biso   1.000  C
  H91      1.0000 0.38259  0.68232  0.10930  Biso   1.000  H
  O31      1.0000 0.53182  0.75204  0.94368  Biso   1.000  O
  N63      1.0000 0.56621  0.74100  0.09043  Biso   1.000  N
  C96      1.0000 0.59320  0.78568  0.28762  Biso   1.000  C
  H92      1.0000 0.68941  0.70151  0.13991  Biso   1.000  H
  H93      1.0000 0.68226  0.72900  0.04962  Biso   1.000  H
  N64      1.0000 0.51310  0.77111  0.21562  Biso   1.000  N
  O32      1.0000 0.40264  0.83376  0.24732  Biso   1.000  O
  H94      1.0000 0.54071  0.68812  0.18418  Biso   1.000  H
  H95      1.0000 0.56911  0.80619  0.33030  Biso   1.000  H
  H96      1.0000 0.62261  0.74981  0.31361  Biso   1.000  H
  Ne1      1.0000 0.49997  0.50000  0.49999  Biso   1.000  Ne
  He1      1.0000 0.42418  0.44678  0.66016  Biso   1.000  He
  He2      1.0000 0.56990  0.53511  0.34959  Biso   1.000  He
  Ar1      1.0000 0.49996  0.50000  0.49999  Biso   1.000  Ar
  Ne2      1.0000 0.49999  0.00000  0.00000  Biso   1.000  Ne
  He3      1.0000 0.42940  0.04986  0.14800  Biso   1.000  He
  He4      1.0000 0.56951  0.95078  0.85446  Biso   1.000  He
  Ar2      1.0000 0.50000  0.00000  0.00002  Biso   1.000  Ar
