data_image0
_cell_length_a       12.9
_cell_length_b       12.999
_cell_length_c       17.197
_cell_angle_alpha    87.08
_cell_angle_beta     68.59
_cell_angle_gamma    82.37

_symmetry_space_group_name_H-M    "P 1"
_symmetry_int_tables_number       1

loop_
  _symmetry_equiv_pos_as_xyz
  'x, y, z'

loop_
  _atom_site_label
  _atom_site_occupancy
  _atom_site_fract_x
  _atom_site_fract_y
  _atom_site_fract_z
  _atom_site_thermal_displace_type
  _atom_site_B_iso_or_equiv
  _atom_site_type_symbol
  C1       1.0000 0.50409  0.72824  0.56939  Biso   1.000  C
  C2       1.0000 0.41108  0.76524  0.55121  Biso   1.000  C
  H1       1.0000 0.57329  0.70051  0.52848  Biso   1.000  H
  C3       1.0000 0.48691  0.73533  0.65483  Biso   1.000  C
  C4       1.0000 0.41118  0.76987  0.46658  Biso   1.000  C
  S1       1.0000 0.29707  0.80826  0.64034  Biso   1.000  S
  C5       1.0000 0.37791  0.77670  0.70130  Biso   1.000  C
  C6       1.0000 0.55260  0.71436  0.70561  Biso   1.000  C
  N1       1.0000 0.32760  0.79936  0.44465  Biso   1.000  N
  H2       1.0000 0.48069  0.74891  0.42317  Biso   1.000  H
  S2       1.0000 0.35474  0.78939  0.80580  Biso   1.000  S
  C7       1.0000 0.49444  0.73892  0.78700  Biso   1.000  C
  H3       1.0000 0.62942  0.68610  0.68488  Biso   1.000  H
  C8       1.0000 0.34811  0.79850  0.35384  Biso   1.000  C
  C9       1.0000 0.54290  0.72924  0.85127  Biso   1.000  C
  C10      1.0000 0.47047  0.76997  0.29694  Biso   1.000  C
  H4       1.0000 0.30245  0.74863  0.34397  Biso   1.000  H
  H5       1.0000 0.32118  0.86818  0.33760  Biso   1.000  H
  N2       1.0000 0.48836  0.74955  0.92909  Biso   1.000  N
  H6       1.0000 0.62091  0.70617  0.83478  Biso   1.000  H
  C11      1.0000 0.51503  0.66461  0.28419  Biso   1.000  C
  C12      1.0000 0.54110  0.84831  0.26820  Biso   1.000  C
  C13      1.0000 0.55200  0.73648  0.98606  Biso   1.000  C
  C14      1.0000 0.43798  0.58060  0.31605  Biso   1.000  C
  C15      1.0000 0.63060  0.63805  0.24166  Biso   1.000  C
  C16      1.0000 0.65724  0.82082  0.22523  Biso   1.000  C
  C17      1.0000 0.49181  0.96196  0.28488  Biso   1.000  C
  C18      1.0000 0.67906  0.71729  0.94259  Biso   1.000  C
  H7       1.0000 0.53301  0.79962  0.02079  Biso   1.000  H
  H8       1.0000 0.52714  0.67736  0.02410  Biso   1.000  H
  C19      1.0000 0.39366  0.55180  0.24922  Biso   1.000  C
  H9       1.0000 0.47945  0.51823  0.33129  Biso   1.000  H
  H10      1.0000 0.37399  0.60550  0.36677  Biso   1.000  H
  C20      1.0000 0.68105  0.52522  0.23622  Biso   1.000  C
  C21      1.0000 0.70184  0.71538  0.21211  Biso   1.000  C
  C22      1.0000 0.73574  0.90409  0.20431  Biso   1.000  C
  H11      1.0000 0.43143  0.96759  0.34066  Biso   1.000  H
  H12      1.0000 0.41787  0.96990  0.27870  Biso   1.000  H
  H13      1.0000 0.55102  0.00239  0.28607  Biso   1.000  H
  C23      1.0000 0.44701  0.00726  0.22398  Biso   1.000  C
  H14      1.0000 0.54060  0.00363  0.23991  Biso   1.000  H
  C24      1.0000 0.47728  0.00464  0.35621  Biso   1.000  C
  C25      1.0000 0.73911  0.80231  0.91273  Biso   1.000  C
  C26      1.0000 0.73271  0.61537  0.92360  Biso   1.000  C
  H15      1.0000 0.34406  0.49778  0.27120  Biso   1.000  H
  H16      1.0000 0.35167  0.61340  0.23460  Biso   1.000  H
  H17      1.0000 0.45682  0.52596  0.19931  Biso   1.000  H
  N3       1.0000 0.72438  0.48828  0.30262  Biso   1.000  N
  H18      1.0000 0.74323  0.51422  0.18157  Biso   1.000  H
  H19      1.0000 0.62319  0.48159  0.23729  Biso   1.000  H
  C27      1.0000 0.82721  0.68533  0.16920  Biso   1.000  C
  N4       1.0000 0.75757  0.91843  0.28038  Biso   1.000  N
  H20      1.0000 0.70001  0.96958  0.18819  Biso   1.000  H
  H21      1.0000 0.80647  0.88151  0.15771  Biso   1.000  H
  H22      1.0000 0.39115  0.96551  0.22011  Biso   1.000  H
  H23      1.0000 0.41154  0.07799  0.24078  Biso   1.000  H
  H24      1.0000 0.50780  0.00883  0.16952  Biso   1.000  H
  H25      1.0000 0.42910  0.96529  0.40231  Biso   1.000  H
  H26      1.0000 0.55023  0.00400  0.36196  Biso   1.000  H
  H27      1.0000 0.44198  0.07643  0.35771  Biso   1.000  H
  C28      1.0000 0.85528  0.78515  0.86670  Biso   1.000  C
  C29      1.0000 0.67920  0.91216  0.92791  Biso   1.000  C
  C30      1.0000 0.84928  0.59883  0.87944  Biso   1.000  C
  C31      1.0000 0.66642  0.52315  0.94946  Biso   1.000  C
  C32      1.0000 0.73968  0.55543  0.34734  Biso   1.000  C
  H28      1.0000 0.86756  0.73667  0.18351  Biso   1.000  H
  H29      1.0000 0.84877  0.61680  0.19057  Biso   1.000  H
  C33      1.0000 0.86335  0.67967  0.07451  Biso   1.000  C
  C34      1.0000 0.85656  0.89778  0.28082  Biso   1.000  C
  C35      1.0000 0.91684  0.87634  0.82297  Biso   1.000  C
  C36      1.0000 0.91097  0.68321  0.85102  Biso   1.000  C
  H30      1.0000 0.71684  0.95664  0.88006  Biso   1.000  H
  H31      1.0000 0.60095  0.91215  0.93147  Biso   1.000  H
  C37      1.0000 0.67886  0.95768  0.00848  Biso   1.000  C
  C38      1.0000 0.90569  0.48909  0.85327  Biso   1.000  C
  H32      1.0000 0.58827  0.54526  0.95295  Biso   1.000  H
  H33      1.0000 0.69981  0.46866  0.90617  Biso   1.000  H
  C39      1.0000 0.66479  0.47770  0.03347  Biso   1.000  C
  C40      1.0000 0.78484  0.53037  0.41292  Biso   1.000  C
  H34      1.0000 0.72030  0.62664  0.33716  Biso   1.000  H
  H35      1.0000 0.82335  0.62919  0.06002  Biso   1.000  H
  H36      1.0000 0.84570  0.74820  0.05259  Biso   1.000  H
  H37      1.0000 0.94438  0.65810  0.04997  Biso   1.000  H
  C41      1.0000 0.87414  0.89768  0.35958  Biso   1.000  C
  H38      1.0000 0.91846  0.88266  0.23010  Biso   1.000  H
  N5       1.0000 0.89294  0.89328  0.74652  Biso   1.000  N
  H39      1.0000 0.99849  0.85970  0.80998  Biso   1.000  H
  H40      1.0000 0.88917  0.93893  0.85864  Biso   1.000  H
  C42      1.0000 0.03646  0.66482  0.80449  Biso   1.000  C
  H41      1.0000 0.64142  0.91398  0.05601  Biso   1.000  H
  H42      1.0000 0.75628  0.96010  0.00436  Biso   1.000  H
  H43      1.0000 0.63849  0.02813  0.01648  Biso   1.000  H
  N6       1.0000 0.90477  0.45583  0.77207  Biso   1.000  N
  H44      1.0000 0.86759  0.44012  0.89724  Biso   1.000  H
  H45      1.0000 0.98449  0.48413  0.84977  Biso   1.000  H
  H46      1.0000 0.62879  0.53049  0.07700  Biso   1.000  H
  H47      1.0000 0.62256  0.41774  0.04689  Biso   1.000  H
  H48      1.0000 0.74190  0.45590  0.03028  Biso   1.000  H
  S3       1.0000 0.81309  0.40205  0.44384  Biso   1.000  S
  C43      1.0000 0.80447  0.60147  0.45977  Biso   1.000  C
  S4       1.0000 0.75322  0.92221  0.44934  Biso   1.000  S
  C44      1.0000 0.96970  0.87589  0.37645  Biso   1.000  C
  C45      1.0000 0.97169  0.87505  0.67526  Biso   1.000  C
  H49      1.0000 0.05645  0.59614  0.77688  Biso   1.000  H
  H50      1.0000 0.05902  0.71837  0.76045  Biso   1.000  H
  C46      1.0000 0.09992  0.66850  0.86326  Biso   1.000  C
  C47      1.0000 0.89743  0.52679  0.71954  Biso   1.000  C
  C48      1.0000 0.84839  0.44696  0.52254  Biso   1.000  C
  C49      1.0000 0.84035  0.55538  0.52392  Biso   1.000  C
  H51      1.0000 0.79906  0.68097  0.45190  Biso   1.000  H
  C50      1.0000 0.83453  0.90253  0.50924  Biso   1.000  C
  C51      1.0000 0.94860  0.87862  0.46445  Biso   1.000  C
  H52      1.0000 0.04219  0.86058  0.33491  Biso   1.000  H
  C52      1.0000 0.94461  0.88096  0.60055  Biso   1.000  C
  H53      1.0000 0.04712  0.85799  0.66988  Biso   1.000  H
  H54      1.0000 0.08220  0.61217  0.90417  Biso   1.000  H
  H55      1.0000 0.18080  0.66077  0.83109  Biso   1.000  H
  H56      1.0000 0.07760  0.73531  0.89237  Biso   1.000  H
  C53      1.0000 0.88700  0.51130  0.64009  Biso   1.000  C
  H57      1.0000 0.89903  0.59605  0.73384  Biso   1.000  H
  S5       1.0000 0.88479  0.38856  0.60255  Biso   1.000  S
  C54      1.0000 0.86425  0.59040  0.59150  Biso   1.000  C
  S6       1.0000 0.80253  0.91033  0.61554  Biso   1.000  S
  C55      1.0000 0.01172  0.86556  0.51817  Biso   1.000  C
  H58      1.0000 0.86609  0.66199  0.60499  Biso   1.000  H
  H59      1.0000 0.08206  0.85202  0.50399  Biso   1.000  H
  C56      1.0000 0.49602  0.27185  0.43060  Biso   1.000  C
  C57      1.0000 0.51321  0.26469  0.34515  Biso   1.000  C
  C58      1.0000 0.58906  0.23485  0.44871  Biso   1.000  C
  H60      1.0000 0.42683  0.29950  0.47151  Biso   1.000  H
  C59      1.0000 0.44754  0.28573  0.29431  Biso   1.000  C
  C60      1.0000 0.62223  0.22339  0.29862  Biso   1.000  C
  S7       1.0000 0.70304  0.19183  0.35965  Biso   1.000  S
  C61      1.0000 0.58897  0.23014  0.53335  Biso   1.000  C
  C62      1.0000 0.50576  0.26109  0.21299  Biso   1.000  C
  H61      1.0000 0.37070  0.31392  0.31511  Biso   1.000  H
  S8       1.0000 0.64549  0.21062  0.19413  Biso   1.000  S
  N7       1.0000 0.67251  0.20073  0.55533  Biso   1.000  N
  H62      1.0000 0.51945  0.25111  0.57676  Biso   1.000  H
  C63      1.0000 0.45725  0.27077  0.14866  Biso   1.000  C
  C64      1.0000 0.65204  0.20151  0.64609  Biso   1.000  C
  N8       1.0000 0.51179  0.25046  0.07083  Biso   1.000  N
  H63      1.0000 0.37919  0.29393  0.16521  Biso   1.000  H
  C65      1.0000 0.52968  0.23004  0.70299  Biso   1.000  C
  H64      1.0000 0.69769  0.25146  0.65596  Biso   1.000  H
  H65      1.0000 0.67893  0.13184  0.66239  Biso   1.000  H
  C66      1.0000 0.44811  0.26362  0.01393  Biso   1.000  C
  C67      1.0000 0.45902  0.15171  0.73178  Biso   1.000  C
  C68      1.0000 0.48509  0.33540  0.71579  Biso   1.000  C
  C69      1.0000 0.32106  0.28272  0.05740  Biso   1.000  C
  H66      1.0000 0.46710  0.20047  0.97920  Biso   1.000  H
  H67      1.0000 0.47306  0.32265  0.97589  Biso   1.000  H
  C70      1.0000 0.34288  0.17920  0.77476  Biso   1.000  C
  C71      1.0000 0.50834  0.03806  0.71504  Biso   1.000  C
  C72      1.0000 0.36960  0.36196  0.75833  Biso   1.000  C
  C73      1.0000 0.56213  0.41949  0.68394  Biso   1.000  C
  C74      1.0000 0.26101  0.19771  0.08726  Biso   1.000  C
  C75      1.0000 0.26744  0.38464  0.07633  Biso   1.000  C
  C76      1.0000 0.26449  0.09592  0.79562  Biso   1.000  C
  C77      1.0000 0.29828  0.28463  0.78787  Biso   1.000  C
  H68      1.0000 0.56872  0.03242  0.65927  Biso   1.000  H
  H69      1.0000 0.58225  0.03012  0.72129  Biso   1.000  H
  H70      1.0000 0.44913  0.99762  0.71386  Biso   1.000  H
  C78      1.0000 0.55313  0.99284  0.77594  Biso   1.000  C
  H71      1.0000 0.45952  0.99638  0.76008  Biso   1.000  H
  C79      1.0000 0.52284  0.99537  0.64378  Biso   1.000  C
  C80      1.0000 0.31907  0.47480  0.76376  Biso   1.000  C
  H72      1.0000 0.52066  0.48186  0.66870  Biso   1.000  H
  H73      1.0000 0.62615  0.39451  0.63316  Biso   1.000  H
  C81      1.0000 0.60646  0.44822  0.75077  Biso   1.000  C
  C82      1.0000 0.32095  0.08785  0.07202  Biso   1.000  C
  C83      1.0000 0.14484  0.21486  0.13329  Biso   1.000  C
  C84      1.0000 0.33373  0.47686  0.05047  Biso   1.000  C
  C85      1.0000 0.15083  0.40126  0.12055  Biso   1.000  C
  N9       1.0000 0.24257  0.08158  0.71954  Biso   1.000  N
  H74      1.0000 0.30011  0.03044  0.81179  Biso   1.000  H
  H75      1.0000 0.19363  0.11859  0.84227  Biso   1.000  H
  C86      1.0000 0.17293  0.31476  0.83072  Biso   1.000  C
  H76      1.0000 0.60896  0.03458  0.77988  Biso   1.000  H
  H77      1.0000 0.58858  0.92203  0.75920  Biso   1.000  H
  H78      1.0000 0.49231  0.99126  0.83047  Biso   1.000  H
  H79      1.0000 0.57101  0.03472  0.59768  Biso   1.000  H
  H80      1.0000 0.44992  0.99601  0.63797  Biso   1.000  H
  H81      1.0000 0.55814  0.92358  0.64228  Biso   1.000  H
  N10      1.0000 0.27574  0.51173  0.69737  Biso   1.000  N
  H82      1.0000 0.25691  0.48587  0.81835  Biso   1.000  H
  H83      1.0000 0.37700  0.51842  0.76270  Biso   1.000  H
  H84      1.0000 0.65606  0.50223  0.72878  Biso   1.000  H
  H85      1.0000 0.64845  0.38662  0.76539  Biso   1.000  H
  H86      1.0000 0.54329  0.47405  0.80068  Biso   1.000  H
  H87      1.0000 0.28328  0.04338  0.11992  Biso   1.000  H
  H88      1.0000 0.39924  0.08787  0.06852  Biso   1.000  H
  C87      1.0000 0.32134  0.04233  0.99151  Biso   1.000  C
  C88      1.0000 0.08328  0.12367  0.17701  Biso   1.000  C
  C89      1.0000 0.08917  0.31688  0.14890  Biso   1.000  C
  H89      1.0000 0.41187  0.45483  0.04697  Biso   1.000  H
  H90      1.0000 0.30039  0.53136  0.09382  Biso   1.000  H
  C90      1.0000 0.33532  0.52231  0.96652  Biso   1.000  C
  C91      1.0000 0.09445  0.51100  0.14666  Biso   1.000  C
  C92      1.0000 0.14356  0.10223  0.71917  Biso   1.000  C
  H91      1.0000 0.13256  0.26335  0.81648  Biso   1.000  H
  H92      1.0000 0.15138  0.38321  0.80936  Biso   1.000  H
  C93      1.0000 0.13677  0.32034  0.92547  Biso   1.000  C
  C94      1.0000 0.26046  0.44466  0.65258  Biso   1.000  C
  H93      1.0000 0.36173  0.97196  0.98345  Biso   1.000  H
  H94      1.0000 0.35870  0.08603  0.94397  Biso   1.000  H
  H95      1.0000 0.24394  0.03999  0.99557  Biso   1.000  H
  N11      1.0000 0.10717  0.10681  0.25346  Biso   1.000  N
  H96      1.0000 0.00163  0.14032  0.19000  Biso   1.000  H
  H97      1.0000 0.11106  0.06108  0.14128  Biso   1.000  H
  C95      1.0000 0.96365  0.33527  0.19550  Biso   1.000  C
  H98      1.0000 0.37132  0.46952  0.92299  Biso   1.000  H
  H99      1.0000 0.37755  0.58236  0.95309  Biso   1.000  H
  H100     1.0000 0.25822  0.54411  0.96971  Biso   1.000  H
  N12      1.0000 0.09535  0.54418  0.22792  Biso   1.000  N
  H101     1.0000 0.13256  0.55989  0.10268  Biso   1.000  H
  H102     1.0000 0.01563  0.51588  0.15022  Biso   1.000  H
  C96      1.0000 0.12605  0.10242  0.64040  Biso   1.000  C
  H103     1.0000 0.08166  0.11735  0.76988  Biso   1.000  H
  H104     1.0000 0.17677  0.37082  0.93996  Biso   1.000  H
  H105     1.0000 0.15441  0.25189  0.94740  Biso   1.000  H
  H106     1.0000 0.05576  0.34200  0.94996  Biso   1.000  H
  C97      1.0000 0.21527  0.46972  0.58706  Biso   1.000  C
  H107     1.0000 0.27984  0.37345  0.66276  Biso   1.000  H
  C98      1.0000 0.02846  0.12497  0.32467  Biso   1.000  C
  H108     1.0000 0.94367  0.40387  0.22311  Biso   1.000  H
  H109     1.0000 0.94112  0.28173  0.23947  Biso   1.000  H
  C99      1.0000 0.90020  0.33151  0.13673  Biso   1.000  C
  C100     1.0000 0.10269  0.47322  0.28045  Biso   1.000  C
  S9       1.0000 0.24689  0.07788  0.55065  Biso   1.000  S
  C101     1.0000 0.03042  0.12413  0.62354  Biso   1.000  C
  S10      1.0000 0.18711  0.59797  0.55614  Biso   1.000  S
  C102     1.0000 0.19565  0.39854  0.54022  Biso   1.000  C
  C103     1.0000 0.05551  0.11905  0.39943  Biso   1.000  C
  H110     1.0000 0.95299  0.14202  0.33010  Biso   1.000  H
  H111     1.0000 0.91791  0.38792  0.09581  Biso   1.000  H
  H112     1.0000 0.81931  0.33932  0.16889  Biso   1.000  H
  H113     1.0000 0.92252  0.26470  0.10762  Biso   1.000  H
  H114     1.0000 0.10119  0.40404  0.26608  Biso   1.000  H
  C104     1.0000 0.11312  0.48871  0.35990  Biso   1.000  C
  C105     1.0000 0.16558  0.09748  0.49075  Biso   1.000  C
  C106     1.0000 0.05155  0.12139  0.53547  Biso   1.000  C
  H115     1.0000 0.95793  0.13943  0.66508  Biso   1.000  H
  C107     1.0000 0.15179  0.55313  0.47745  Biso   1.000  C
  C108     1.0000 0.15976  0.44471  0.47607  Biso   1.000  C
  H116     1.0000 0.20106  0.31904  0.54809  Biso   1.000  H
  S11      1.0000 0.19757  0.08976  0.38444  Biso   1.000  S
  C109     1.0000 0.98846  0.13453  0.48182  Biso   1.000  C
  S12      1.0000 0.11533  0.61146  0.39743  Biso   1.000  S
  C110     1.0000 0.13587  0.40962  0.40849  Biso   1.000  C
  H117     1.0000 0.91806  0.14799  0.49600  Biso   1.000  H
  H118     1.0000 0.13403  0.33802  0.39500  Biso   1.000  H
  Ne1      1.0000 0.30474  0.27669  0.43155  Biso   1.000  Ne
  He1      1.0000 0.06096  0.30126  0.52824  Biso   1.000  He
  He2      1.0000 0.36643  0.14884  0.40813  Biso   1.000  He
  He3      1.0000 0.33107  0.33760  0.42211  Biso   1.000  He
  Ar1      1.0000 0.29653  0.24188  0.44087  Biso   1.000  Ar
  Ne2      1.0000 0.69540  0.72336  0.56842  Biso   1.000  Ne
  He4      1.0000 0.64524  0.83615  0.58747  Biso   1.000  He
  He5      1.0000 0.66696  0.65691  0.57879  Biso   1.000  He
  He6      1.0000 0.93852  0.69904  0.47205  Biso   1.000  He
  Ar2      1.0000 0.70405  0.75733  0.55948  Biso   1.000  Ar
