data_image0
_cell_length_a       13.989
_cell_length_b       15.046
_cell_length_c       16.179
_cell_angle_alpha    117.27
_cell_angle_beta     104.12
_cell_angle_gamma    93.97

_symmetry_space_group_name_H-M    "P 1"
_symmetry_int_tables_number       1

loop_
  _symmetry_equiv_pos_as_xyz
  'x, y, z'

loop_
  _atom_site_label
  _atom_site_occupancy
  _atom_site_fract_x
  _atom_site_fract_y
  _atom_site_fract_z
  _atom_site_thermal_displace_type
  _atom_site_B_iso_or_equiv
  _atom_site_type_symbol
  C1       1.0000 0.50532  0.34098  0.49399  Biso   1.000  C
  C2       1.0000 0.55193  0.28349  0.41417  Biso   1.000  C
  H1       1.0000 0.55344  0.40501  0.54579  Biso   1.000  H
  H2       1.0000 0.44381  0.35949  0.46619  Biso   1.000  H
  C3       1.0000 0.47791  0.27637  0.53906  Biso   1.000  C
  C4       1.0000 0.48962  0.22048  0.31687  Biso   1.000  C
  C5       1.0000 0.65668  0.29011  0.43759  Biso   1.000  C
  H3       1.0000 0.44933  0.31589  0.59101  Biso   1.000  H
  H4       1.0000 0.42830  0.21404  0.48836  Biso   1.000  H
  H5       1.0000 0.53870  0.25785  0.56657  Biso   1.000  H
  C6       1.0000 0.37654  0.21100  0.29126  Biso   1.000  C
  C7       1.0000 0.53256  0.16628  0.24268  Biso   1.000  C
  C8       1.0000 0.69946  0.23557  0.36340  Biso   1.000  C
  C9       1.0000 0.72519  0.35435  0.54235  Biso   1.000  C
  N1       1.0000 0.33365  0.28200  0.26112  Biso   1.000  N
  H6       1.0000 0.35685  0.21967  0.34891  Biso   1.000  H
  H7       1.0000 0.34447  0.14038  0.23778  Biso   1.000  H
  C10      1.0000 0.63705  0.17286  0.26668  Biso   1.000  C
  C11      1.0000 0.46511  0.09968  0.13798  Biso   1.000  C
  C12      1.0000 0.81295  0.24349  0.38857  Biso   1.000  C
  N2       1.0000 0.77615  0.45834  0.57338  Biso   1.000  N
  H8       1.0000 0.77771  0.31657  0.55326  Biso   1.000  H
  H9       1.0000 0.68463  0.35965  0.58618  Biso   1.000  H
  C13      1.0000 0.39045  0.35047  0.26068  Biso   1.000  C
  C14      1.0000 0.68340  0.11097  0.18788  Biso   1.000  C
  H10      1.0000 0.40595  0.12986  0.12657  Biso   1.000  H
  H11      1.0000 0.50272  0.09837  0.09299  Biso   1.000  H
  C15      1.0000 0.42859  0.98979  0.11457  Biso   1.000  C
  H12      1.0000 0.83394  0.23560  0.33179  Biso   1.000  H
  H13      1.0000 0.84698  0.31257  0.44410  Biso   1.000  H
  C16      1.0000 0.84757  0.16309  0.41571  Biso   1.000  C
  C17      1.0000 0.74774  0.50109  0.52297  Biso   1.000  C
  H14      1.0000 0.46140  0.35518  0.27882  Biso   1.000  H
  C18      1.0000 0.34865  0.42370  0.23229  Biso   1.000  C
  N3       1.0000 0.71852  0.15889  0.13652  Biso   1.000  N
  H15      1.0000 0.63296  0.04766  0.13828  Biso   1.000  H
  H16      1.0000 0.74142  0.09021  0.21832  Biso   1.000  H
  H17      1.0000 0.39060  0.99060  0.15832  Biso   1.000  H
  H18      1.0000 0.38511  0.94973  0.04653  Biso   1.000  H
  H19      1.0000 0.48686  0.95892  0.12401  Biso   1.000  H
  H20      1.0000 0.82795  0.17118  0.47248  Biso   1.000  H
  H21      1.0000 0.81576  0.09448  0.36033  Biso   1.000  H
  H22      1.0000 0.92099  0.17217  0.43159  Biso   1.000  H
  H23      1.0000 0.69375  0.46516  0.46349  Biso   1.000  H
  C19      1.0000 0.79806  0.60703  0.55582  Biso   1.000  C
  C20      1.0000 0.41155  0.49630  0.22732  Biso   1.000  C
  C21      1.0000 0.24597  0.42224  0.21283  Biso   1.000  C
  C22      1.0000 0.70876  0.24812  0.15540  Biso   1.000  C
  C23      1.0000 0.77045  0.65198  0.49751  Biso   1.000  C
  C24      1.0000 0.87580  0.66127  0.64500  Biso   1.000  C
  H24      1.0000 0.48170  0.49701  0.24012  Biso   1.000  H
  C25      1.0000 0.37257  0.56743  0.20390  Biso   1.000  C
  C26      1.0000 0.20836  0.49413  0.19052  Biso   1.000  C
  H25      1.0000 0.20220  0.37252  0.21473  Biso   1.000  H
  H26      1.0000 0.67598  0.28440  0.20193  Biso   1.000  H
  C27      1.0000 0.74787  0.29690  0.10557  Biso   1.000  C
  H27      1.0000 0.71875  0.61449  0.43641  Biso   1.000  H
  C28      1.0000 0.81801  0.75172  0.52801  Biso   1.000  C
  C29      1.0000 0.92180  0.76039  0.67471  Biso   1.000  C
  H28      1.0000 0.89669  0.63078  0.68451  Biso   1.000  H
  C30      1.0000 0.26976  0.56643  0.18613  Biso   1.000  C
  C31      1.0000 0.43855  0.64412  0.19783  Biso   1.000  C
  Br1      1.0000 0.07009  0.49649  0.17032  Biso   1.000  Br
  C32      1.0000 0.80521  0.24796  0.04529  Biso   1.000  C
  C33      1.0000 0.73279  0.39337  0.12167  Biso   1.000  C
  C34      1.0000 0.89321  0.80676  0.61837  Biso   1.000  C
  C35      1.0000 0.79191  0.79747  0.46400  Biso   1.000  C
  Br2      1.0000 0.02999  0.83221  0.79294  Biso   1.000  Br
  H29      1.0000 0.24238  0.61522  0.17098  Biso   1.000  H
  N4       1.0000 0.40269  0.71099  0.18078  Biso   1.000  N
  H30      1.0000 0.50805  0.64301  0.20683  Biso   1.000  H
  H31      1.0000 0.81532  0.18159  0.03226  Biso   1.000  H
  C36      1.0000 0.84711  0.29764  0.00461  Biso   1.000  C
  C37      1.0000 0.77373  0.44143  0.07902  Biso   1.000  C
  H32      1.0000 0.69361  0.42690  0.16271  Biso   1.000  H
  H33      1.0000 0.92443  0.87539  0.64098  Biso   1.000  H
  N5       1.0000 0.83782  0.88601  0.48982  Biso   1.000  N
  H34      1.0000 0.74016  0.76018  0.40291  Biso   1.000  H
  C38      1.0000 0.46684  0.78671  0.17332  Biso   1.000  C
  C39      1.0000 0.83237  0.39310  0.01990  Biso   1.000  C
  Br3      1.0000 0.93064  0.23391  0.92757  Biso   1.000  Br
  C40      1.0000 0.75777  0.54469  0.09679  Biso   1.000  C
  C41      1.0000 0.81249  0.93165  0.42676  Biso   1.000  C
  C42      1.0000 0.57967  0.79219  0.20010  Biso   1.000  C
  H35      1.0000 0.44298  0.77328  0.10499  Biso   1.000  H
  H36      1.0000 0.45554  0.85503  0.21532  Biso   1.000  H
  H37      1.0000 0.86163  0.42528  0.99071  Biso   1.000  H
  N6       1.0000 0.79207  0.58649  0.05531  Biso   1.000  N
  H38      1.0000 0.72128  0.57949  0.14018  Biso   1.000  H
  C43      1.0000 0.74552  0.86311  0.32177  Biso   1.000  C
  H39      1.0000 0.77909  0.98839  0.45836  Biso   1.000  H
  H40      1.0000 0.87646  0.96227  0.42500  Biso   1.000  H
  C44      1.0000 0.62288  0.73608  0.12686  Biso   1.000  C
  C45      1.0000 0.64036  0.85360  0.29741  Biso   1.000  C
  C46      1.0000 0.77577  0.68775  0.07243  Biso   1.000  C
  C47      1.0000 0.79008  0.80861  0.24883  Biso   1.000  C
  C48      1.0000 0.72831  0.74614  0.15152  Biso   1.000  C
  C49      1.0000 0.55631  0.66718  0.02210  Biso   1.000  C
  C50      1.0000 0.59215  0.90936  0.37657  Biso   1.000  C
  H41      1.0000 0.84181  0.73071  0.08889  Biso   1.000  H
  H42      1.0000 0.73256  0.67990  0.01002  Biso   1.000  H
  C51      1.0000 0.90338  0.81972  0.27502  Biso   1.000  C
  H43      1.0000 0.49016  0.63911  0.02231  Biso   1.000  H
  H44      1.0000 0.58772  0.60901  0.98990  Biso   1.000  H
  C52      1.0000 0.53927  0.72359  0.96327  Biso   1.000  C
  H45      1.0000 0.52451  0.86806  0.35828  Biso   1.000  H
  H46      1.0000 0.63350  0.91539  0.43868  Biso   1.000  H
  C53      1.0000 0.58097  0.01677  0.39347  Biso   1.000  C
  H47      1.0000 0.93047  0.83119  0.34240  Biso   1.000  H
  H48      1.0000 0.91946  0.75539  0.23017  Biso   1.000  H
  C54      1.0000 0.95481  0.90878  0.26836  Biso   1.000  C
  H49      1.0000 0.50777  0.78108  0.99481  Biso   1.000  H
  H50      1.0000 0.60431  0.74930  0.96078  Biso   1.000  H
  H51      1.0000 0.49510  0.67649  0.89669  Biso   1.000  H
  H52      1.0000 0.54717  0.04730  0.44322  Biso   1.000  H
  H53      1.0000 0.64786  0.05967  0.41578  Biso   1.000  H
  H54      1.0000 0.54083  0.01177  0.33209  Biso   1.000  H
  H55      1.0000 0.94088  0.97298  0.31401  Biso   1.000  H
  H56      1.0000 0.92888  0.89737  0.20149  Biso   1.000  H
  H57      1.0000 0.02779  0.91279  0.28526  Biso   1.000  H
  C55      1.0000 0.49450  0.65900  0.50599  Biso   1.000  C
  C56      1.0000 0.44789  0.71650  0.58581  Biso   1.000  C
  H58      1.0000 0.44645  0.59497  0.45419  Biso   1.000  H
  H59      1.0000 0.55601  0.64049  0.53379  Biso   1.000  H
  C57      1.0000 0.52191  0.72361  0.46092  Biso   1.000  C
  C58      1.0000 0.34321  0.70987  0.56240  Biso   1.000  C
  C59      1.0000 0.51020  0.77950  0.68312  Biso   1.000  C
  H60      1.0000 0.55056  0.68409  0.40898  Biso   1.000  H
  H61      1.0000 0.57152  0.78588  0.51163  Biso   1.000  H
  H62      1.0000 0.46112  0.74207  0.43342  Biso   1.000  H
  C60      1.0000 0.27461  0.64560  0.45756  Biso   1.000  C
  C61      1.0000 0.30043  0.76434  0.63659  Biso   1.000  C
  C62      1.0000 0.46733  0.83371  0.75731  Biso   1.000  C
  C63      1.0000 0.62326  0.78894  0.70865  Biso   1.000  C
  N7       1.0000 0.22375  0.54164  0.42661  Biso   1.000  N
  H63      1.0000 0.22209  0.68337  0.44666  Biso   1.000  H
  H64      1.0000 0.31526  0.64026  0.41381  Biso   1.000  H
  C64      1.0000 0.36278  0.82712  0.73331  Biso   1.000  C
  C65      1.0000 0.18688  0.75649  0.61142  Biso   1.000  C
  C66      1.0000 0.53478  0.90030  0.86200  Biso   1.000  C
  N8       1.0000 0.66617  0.71791  0.73887  Biso   1.000  N
  H65      1.0000 0.64297  0.78024  0.65107  Biso   1.000  H
  H66      1.0000 0.65543  0.85961  0.76221  Biso   1.000  H
  C67      1.0000 0.25216  0.49889  0.47702  Biso   1.000  C
  C68      1.0000 0.31649  0.88895  0.81210  Biso   1.000  C
  H67      1.0000 0.16588  0.76438  0.66819  Biso   1.000  H
  H68      1.0000 0.15291  0.68741  0.55589  Biso   1.000  H
  C69      1.0000 0.15233  0.83689  0.58428  Biso   1.000  C
  H69      1.0000 0.59387  0.87005  0.87342  Biso   1.000  H
  H70      1.0000 0.49718  0.90155  0.90700  Biso   1.000  H
  C70      1.0000 0.57130  0.01019  0.88541  Biso   1.000  C
  C71      1.0000 0.60938  0.64952  0.73931  Biso   1.000  C
  C72      1.0000 0.20183  0.39295  0.44417  Biso   1.000  C
  H71      1.0000 0.30614  0.53475  0.53650  Biso   1.000  H
  N9       1.0000 0.28138  0.84110  0.86347  Biso   1.000  N
  H72      1.0000 0.36686  0.95225  0.86171  Biso   1.000  H
  H73      1.0000 0.25848  0.90977  0.78167  Biso   1.000  H
  H74      1.0000 0.17195  0.82880  0.52750  Biso   1.000  H
  H75      1.0000 0.18407  0.90550  0.63966  Biso   1.000  H
  H76      1.0000 0.07890  0.82781  0.56840  Biso   1.000  H
  H77      1.0000 0.60930  0.00939  0.84166  Biso   1.000  H
  H78      1.0000 0.61479  0.05025  0.95346  Biso   1.000  H
  H79      1.0000 0.51297  0.04106  0.87598  Biso   1.000  H
  H80      1.0000 0.53849  0.64473  0.72116  Biso   1.000  H
  C73      1.0000 0.65118  0.57628  0.76770  Biso   1.000  C
  C74      1.0000 0.12402  0.33871  0.35498  Biso   1.000  C
  C75      1.0000 0.22945  0.34800  0.50248  Biso   1.000  C
  C76      1.0000 0.29107  0.75186  0.84459  Biso   1.000  C
  C77      1.0000 0.58827  0.50368  0.77267  Biso   1.000  C
  C78      1.0000 0.75393  0.57774  0.78716  Biso   1.000  C
  C79      1.0000 0.07802  0.23959  0.32528  Biso   1.000  C
  H81      1.0000 0.10314  0.36920  0.31548  Biso   1.000  H
  H82      1.0000 0.28115  0.38549  0.56357  Biso   1.000  H
  C80      1.0000 0.18182  0.24826  0.47197  Biso   1.000  C
  H83      1.0000 0.32385  0.71558  0.79806  Biso   1.000  H
  C81      1.0000 0.25195  0.70308  0.89441  Biso   1.000  C
  H84      1.0000 0.51820  0.50297  0.75987  Biso   1.000  H
  C82      1.0000 0.62733  0.43255  0.79608  Biso   1.000  C
  C83      1.0000 0.79147  0.50585  0.80947  Biso   1.000  C
  H85      1.0000 0.79770  0.62746  0.78525  Biso   1.000  H
  C84      1.0000 0.10669  0.19322  0.38162  Biso   1.000  C
  Br4      1.0000 0.96990  0.16771  0.20705  Biso   1.000  Br
  C85      1.0000 0.20791  0.20244  0.53599  Biso   1.000  C
  C86      1.0000 0.19468  0.75195  0.95470  Biso   1.000  C
  C87      1.0000 0.26711  0.60661  0.87832  Biso   1.000  C
  C88      1.0000 0.56128  0.35586  0.80215  Biso   1.000  C
  C89      1.0000 0.73006  0.43355  0.81386  Biso   1.000  C
  Br5      1.0000 0.92980  0.50342  0.82966  Biso   1.000  Br
  H86      1.0000 0.07547  0.12459  0.35901  Biso   1.000  H
  N10      1.0000 0.16201  0.11397  0.51016  Biso   1.000  N
  H87      1.0000 0.25973  0.23980  0.59708  Biso   1.000  H
  H88      1.0000 0.18455  0.81836  0.96765  Biso   1.000  H
  C90      1.0000 0.15278  0.70234  0.99538  Biso   1.000  C
  C91      1.0000 0.22617  0.55855  0.92097  Biso   1.000  C
  H89      1.0000 0.30629  0.57309  0.83727  Biso   1.000  H
  N11      1.0000 0.59721  0.28899  0.81920  Biso   1.000  N
  H90      1.0000 0.49177  0.35697  0.79316  Biso   1.000  H
  H91      1.0000 0.75751  0.38476  0.82901  Biso   1.000  H
  C92      1.0000 0.18731  0.06829  0.57316  Biso   1.000  C
  C93      1.0000 0.16745  0.60689  0.98009  Biso   1.000  C
  Br6      1.0000 0.06918  0.76607  0.07242  Biso   1.000  Br
  C94      1.0000 0.24205  0.45529  0.90319  Biso   1.000  C
  C95      1.0000 0.53299  0.21327  0.82666  Biso   1.000  C
  C96      1.0000 0.25430  0.13687  0.67822  Biso   1.000  C
  H92      1.0000 0.22073  0.01160  0.54162  Biso   1.000  H
  H93      1.0000 0.12343  0.03765  0.57498  Biso   1.000  H
  H94      1.0000 0.13827  0.57470  0.00928  Biso   1.000  H
  N12      1.0000 0.20775  0.41342  0.94468  Biso   1.000  N
  H95      1.0000 0.27862  0.42049  0.85981  Biso   1.000  H
  C97      1.0000 0.42023  0.20779  0.79989  Biso   1.000  C
  H96      1.0000 0.55691  0.22670  0.89500  Biso   1.000  H
  H97      1.0000 0.54429  0.14495  0.78467  Biso   1.000  H
  C98      1.0000 0.35953  0.14638  0.70258  Biso   1.000  C
  C99      1.0000 0.20982  0.19137  0.75116  Biso   1.000  C
  C100     1.0000 0.22405  0.31223  0.92756  Biso   1.000  C
  C101     1.0000 0.37699  0.26387  0.87305  Biso   1.000  C
  C102     1.0000 0.40774  0.09056  0.62342  Biso   1.000  C
  C103     1.0000 0.27159  0.25385  0.84847  Biso   1.000  C
  C104     1.0000 0.09652  0.18026  0.72497  Biso   1.000  C
  H98      1.0000 0.15809  0.26927  0.91109  Biso   1.000  H
  H99      1.0000 0.26726  0.32001  0.98996  Biso   1.000  H
  C105     1.0000 0.44358  0.33274  0.97789  Biso   1.000  C
  H100     1.0000 0.47531  0.13186  0.64171  Biso   1.000  H
  H101     1.0000 0.36633  0.08459  0.56130  Biso   1.000  H
  C106     1.0000 0.41893  0.98321  0.60652  Biso   1.000  C
  H102     1.0000 0.06943  0.16879  0.65759  Biso   1.000  H
  H103     1.0000 0.08043  0.24459  0.76982  Biso   1.000  H
  C107     1.0000 0.04499  0.09117  0.73155  Biso   1.000  C
  H104     1.0000 0.50967  0.36087  0.97767  Biso   1.000  H
  H105     1.0000 0.41218  0.39097  0.01008  Biso   1.000  H
  C108     1.0000 0.46056  0.27639  0.03671  Biso   1.000  C
  H106     1.0000 0.45273  0.95268  0.55677  Biso   1.000  H
  H107     1.0000 0.35204  0.94031  0.58420  Biso   1.000  H
  H108     1.0000 0.45899  0.98821  0.66790  Biso   1.000  H
  H109     1.0000 0.05901  0.02693  0.68597  Biso   1.000  H
  H110     1.0000 0.07101  0.10254  0.79850  Biso   1.000  H
  H111     1.0000 0.97201  0.08716  0.71465  Biso   1.000  H
  H112     1.0000 0.49206  0.21890  0.00518  Biso   1.000  H
  H113     1.0000 0.39558  0.25068  0.03920  Biso   1.000  H
  H114     1.0000 0.50480  0.32349  0.10329  Biso   1.000  H
