data_image0
_cell_length_a       9.692
_cell_length_b       17.449
_cell_length_c       19.277
_cell_angle_alpha    103.6
_cell_angle_beta     97.5
_cell_angle_gamma    92.28

_symmetry_space_group_name_H-M    "P 1"
_symmetry_int_tables_number       1

loop_
  _symmetry_equiv_pos_as_xyz
  'x, y, z'

loop_
  _atom_site_label
  _atom_site_occupancy
  _atom_site_fract_x
  _atom_site_fract_y
  _atom_site_fract_z
  _atom_site_thermal_displace_type
  _atom_site_B_iso_or_equiv
  _atom_site_type_symbol
  C1       1.0000 0.68392  0.59950  0.50650  Biso   1.000  C
  C2       1.0000 0.65865  0.59342  0.42710  Biso   1.000  C
  C3       1.0000 0.60094  0.64489  0.54991  Biso   1.000  C
  H1       1.0000 0.67541  0.54633  0.51340  Biso   1.000  H
  H2       1.0000 0.77995  0.61982  0.52381  Biso   1.000  H
  C4       1.0000 0.52876  0.54192  0.38811  Biso   1.000  C
  H3       1.0000 0.73887  0.57224  0.40612  Biso   1.000  H
  H4       1.0000 0.65038  0.64611  0.41928  Biso   1.000  H
  C5       1.0000 0.61997  0.72463  0.57499  Biso   1.000  C
  H5       1.0000 0.50661  0.63409  0.52419  Biso   1.000  H
  H6       1.0000 0.60190  0.62353  0.59209  Biso   1.000  H
  C6       1.0000 0.51224  0.52319  0.30581  Biso   1.000  C
  H7       1.0000 0.44766  0.56789  0.40359  Biso   1.000  H
  H8       1.0000 0.52974  0.49243  0.40278  Biso   1.000  H
  H9       1.0000 0.71695  0.74090  0.57882  Biso   1.000  H
  H10      1.0000 0.59032  0.73960  0.62159  Biso   1.000  H
  H11      1.0000 0.56591  0.74949  0.54231  Biso   1.000  H
  C7       1.0000 0.39635  0.45813  0.27361  Biso   1.000  C
  H12      1.0000 0.59906  0.50111  0.29222  Biso   1.000  H
  C8       1.0000 0.49442  0.59451  0.27312  Biso   1.000  C
  C9       1.0000 0.42502  0.37912  0.25322  Biso   1.000  C
  C10      1.0000 0.25730  0.47432  0.26568  Biso   1.000  C
  C11      1.0000 0.52407  0.58953  0.20349  Biso   1.000  C
  C12      1.0000 0.45300  0.66632  0.30958  Biso   1.000  C
  C13      1.0000 0.31761  0.31960  0.22631  Biso   1.000  C
  O1       1.0000 0.56290  0.36385  0.26072  Biso   1.000  O
  C14      1.0000 0.14664  0.41617  0.23898  Biso   1.000  C
  H13      1.0000 0.23600  0.52670  0.27889  Biso   1.000  H
  C15      1.0000 0.51506  0.65322  0.17189  Biso   1.000  C
  O2       1.0000 0.56703  0.51726  0.16876  Biso   1.000  O
  C16      1.0000 0.44407  0.73380  0.28121  Biso   1.000  C
  H14      1.0000 0.42959  0.67009  0.35548  Biso   1.000  H
  H15      1.0000 0.33825  0.26709  0.21218  Biso   1.000  H
  C17      1.0000 0.18223  0.33893  0.22091  Biso   1.000  C
  C18      1.0000 0.59471  0.28333  0.25209  Biso   1.000  C
  C19      1.0000 0.99669  0.43813  0.23202  Biso   1.000  C
  C20      1.0000 0.47679  0.72487  0.21099  Biso   1.000  C
  H16      1.0000 0.53432  0.64801  0.12513  Biso   1.000  H
  C21      1.0000 0.60456  0.50971  0.09918  Biso   1.000  C
  C22      1.0000 0.40195  0.81239  0.32183  Biso   1.000  C
  O3       1.0000 0.07122  0.28081  0.19368  Biso   1.000  O
  H17      1.0000 0.54636  0.25991  0.28332  Biso   1.000  H
  H18      1.0000 0.69348  0.28092  0.26439  Biso   1.000  H
  H19      1.0000 0.56608  0.25482  0.20290  Biso   1.000  H
  C23      1.0000 0.93946  0.45258  0.30408  Biso   1.000  C
  H20      1.0000 0.94095  0.39251  0.19961  Biso   1.000  H
  C24      1.0000 0.98174  0.50642  0.19573  Biso   1.000  C
  O4       1.0000 0.47130  0.79061  0.18321  Biso   1.000  O
  H21      1.0000 0.68012  0.54870  0.10129  Biso   1.000  H
  H22      1.0000 0.52556  0.51951  0.06682  Biso   1.000  H
  C25      1.0000 0.64932  0.42868  0.07098  Biso   1.000  C
  C26      1.0000 0.26132  0.83130  0.28682  Biso   1.000  C
  C27      1.0000 0.40034  0.81790  0.40273  Biso   1.000  C
  H23      1.0000 0.47130  0.85313  0.31821  Biso   1.000  H
  C28      1.0000 0.10263  0.20200  0.18419  Biso   1.000  C
  C29      1.0000 0.95107  0.38563  0.34302  Biso   1.000  C
  H24      1.0000 0.98829  0.50002  0.33601  Biso   1.000  H
  H25      1.0000 0.84173  0.46278  0.29561  Biso   1.000  H
  C30      1.0000 0.02355  0.50121  0.12890  Biso   1.000  C
  C31      1.0000 0.93591  0.57969  0.22949  Biso   1.000  C
  C32      1.0000 0.51545  0.78460  0.11531  Biso   1.000  C
  N1       1.0000 0.66315  0.38128  0.11510  Biso   1.000  N
  O5       1.0000 0.67681  0.40917  0.00820  Biso   1.000  O
  C33      1.0000 0.23445  0.90378  0.27102  Biso   1.000  C
  C34      1.0000 0.14756  0.77598  0.27442  Biso   1.000  C
  C35      1.0000 0.37289  0.89908  0.44550  Biso   1.000  C
  H26      1.0000 0.32905  0.77982  0.40769  Biso   1.000  H
  H27      1.0000 0.48963  0.80359  0.42311  Biso   1.000  H
  H28      1.0000 0.14836  0.19432  0.22971  Biso   1.000  H
  H29      1.0000 0.16764  0.19063  0.14961  Biso   1.000  H
  C36      1.0000 0.97722  0.14522  0.15873  Biso   1.000  C
  H30      1.0000 0.04879  0.37628  0.35359  Biso   1.000  H
  C37      1.0000 0.88867  0.40390  0.41238  Biso   1.000  C
  H31      1.0000 0.90391  0.33762  0.31131  Biso   1.000  H
  C38      1.0000 0.02066  0.56467  0.09708  Biso   1.000  C
  O6       1.0000 0.06342  0.42854  0.09309  Biso   1.000  O
  C39      1.0000 0.93223  0.64520  0.20042  Biso   1.000  C
  H32      1.0000 0.90618  0.58453  0.27420  Biso   1.000  H
  H33      1.0000 0.61198  0.77339  0.11822  Biso   1.000  H
  H34      1.0000 0.50410  0.83349  0.10140  Biso   1.000  H
  H35      1.0000 0.46026  0.74269  0.07998  Biso   1.000  H
  H36      1.0000 0.63775  0.39621  0.15700  Biso   1.000  H
  N2       1.0000 0.71786  0.30743  0.09622  Biso   1.000  N
  C40      1.0000 0.10397  0.91878  0.24200  Biso   1.000  C
  O7       1.0000 0.35163  0.95712  0.28439  Biso   1.000  O
  C41      1.0000 0.01333  0.78841  0.24718  Biso   1.000  C
  H37      1.0000 0.16303  0.72752  0.28499  Biso   1.000  H
  C42      1.0000 0.38590  0.90522  0.52769  Biso   1.000  C
  H38      1.0000 0.27970  0.91142  0.42851  Biso   1.000  H
  H39      1.0000 0.43860  0.93808  0.43708  Biso   1.000  H
  N3       1.0000 0.85776  0.17331  0.14789  Biso   1.000  N
  O8       1.0000 0.99189  0.07351  0.14681  Biso   1.000  O
  C43      1.0000 0.89686  0.34029  0.45272  Biso   1.000  C
  H40      1.0000 0.93603  0.45212  0.44361  Biso   1.000  H
  H41      1.0000 0.79137  0.41369  0.40132  Biso   1.000  H
  H42      1.0000 0.04841  0.55950  0.05199  Biso   1.000  H
  C44      1.0000 0.97648  0.63562  0.13268  Biso   1.000  C
  C45      1.0000 0.19829  0.42951  0.07022  Biso   1.000  C
  C46      1.0000 0.89450  0.72721  0.24071  Biso   1.000  C
  H43      1.0000 0.74377  0.29158  0.05453  Biso   1.000  H
  H44      1.0000 0.72542  0.27792  0.12631  Biso   1.000  H
  C47      1.0000 0.99301  0.86101  0.23073  Biso   1.000  C
  H45      1.0000 0.08936  0.96683  0.23008  Biso   1.000  H
  C48      1.0000 0.33776  0.03457  0.27280  Biso   1.000  C
  C49      1.0000 0.27432  0.86563  0.54641  Biso   1.000  C
  H46      1.0000 0.47187  0.88320  0.54301  Biso   1.000  H
  H47      1.0000 0.39160  0.96050  0.55309  Biso   1.000  H
  H48      1.0000 0.85231  0.22368  0.15830  Biso   1.000  H
  N4       1.0000 0.73382  0.12278  0.11919  Biso   1.000  N
  C50      1.0000 0.84401  0.36343  0.52613  Biso   1.000  C
  H49      1.0000 0.99313  0.32723  0.46033  Biso   1.000  H
  H50      1.0000 0.84233  0.29332  0.42338  Biso   1.000  H
  O9       1.0000 0.97087  0.70042  0.10113  Biso   1.000  O
  H51      1.0000 0.20288  0.46632  0.04040  Biso   1.000  H
  H52      1.0000 0.21346  0.37759  0.04320  Biso   1.000  H
  H53      1.0000 0.26880  0.44530  0.11170  Biso   1.000  H
  C51      1.0000 0.85615  0.72844  0.31562  Biso   1.000  C
  H54      1.0000 0.81326  0.74181  0.21191  Biso   1.000  H
  O10      1.0000 0.86051  0.87202  0.20139  Biso   1.000  O
  H55      1.0000 0.39942  0.07198  0.31039  Biso   1.000  H
  H56      1.0000 0.24282  0.04859  0.27722  Biso   1.000  H
  C52      1.0000 0.37046  0.04248  0.20182  Biso   1.000  C
  C53      1.0000 0.27771  0.87972  0.63108  Biso   1.000  C
  H57      1.0000 0.27537  0.80941  0.52543  Biso   1.000  H
  H58      1.0000 0.18784  0.88310  0.52602  Biso   1.000  H
  H59      1.0000 0.73808  0.07230  0.10862  Biso   1.000  H
  H60      1.0000 0.65507  0.14282  0.11240  Biso   1.000  H
  H61      1.0000 0.88897  0.41342  0.55320  Biso   1.000  H
  H62      1.0000 0.86509  0.32381  0.55229  Biso   1.000  H
  H63      1.0000 0.74495  0.36730  0.51868  Biso   1.000  H
  C54      1.0000 0.08969  0.71689  0.07141  Biso   1.000  C
  C55      1.0000 0.82327  0.81003  0.35801  Biso   1.000  C
  H64      1.0000 0.93303  0.71001  0.34340  Biso   1.000  H
  H65      1.0000 0.77555  0.69150  0.31023  Biso   1.000  H
  C56      1.0000 0.80934  0.94778  0.21908  Biso   1.000  C
  N5       1.0000 0.38701  0.97653  0.15420  Biso   1.000  N
  O11      1.0000 0.38394  0.10826  0.18909  Biso   1.000  O
  H66      1.0000 0.28141  0.93540  0.65260  Biso   1.000  H
  H67      1.0000 0.35842  0.85791  0.65109  Biso   1.000  H
  H68      1.0000 0.19495  0.85443  0.64079  Biso   1.000  H
  H69      1.0000 0.09641  0.67449  0.02950  Biso   1.000  H
  H70      1.0000 0.17164  0.71820  0.10652  Biso   1.000  H
  C57      1.0000 0.08897  0.79380  0.04940  Biso   1.000  C
  C58      1.0000 0.83758  0.82063  0.43843  Biso   1.000  C
  H71      1.0000 0.88497  0.84982  0.34782  Biso   1.000  H
  H72      1.0000 0.72845  0.81953  0.34070  Biso   1.000  H
  H73      1.0000 0.82777  0.96892  0.27032  Biso   1.000  H
  H74      1.0000 0.71058  0.94390  0.20339  Biso   1.000  H
  H75      1.0000 0.85501  0.98218  0.19551  Biso   1.000  H
  H76      1.0000 0.37965  0.93231  0.16628  Biso   1.000  H
  N6       1.0000 0.41589  0.97591  0.08478  Biso   1.000  N
  O12      1.0000 0.18565  0.81809  0.02362  Biso   1.000  O
  N7       1.0000 0.97369  0.83138  0.05679  Biso   1.000  N
  C59      1.0000 0.82804  0.90004  0.48233  Biso   1.000  C
  H77      1.0000 0.76578  0.78612  0.44841  Biso   1.000  H
  H78      1.0000 0.92693  0.80261  0.45413  Biso   1.000  H
  H79      1.0000 0.42599  0.93178  0.05517  Biso   1.000  H
  H80      1.0000 0.42355  0.01951  0.07168  Biso   1.000  H
  H81      1.0000 0.90546  0.81042  0.07200  Biso   1.000  H
  N8       1.0000 0.96140  0.90530  0.03991  Biso   1.000  N
  C60      1.0000 0.84492  0.90793  0.56183  Biso   1.000  C
  H82      1.0000 0.73799  0.91801  0.46750  Biso   1.000  H
  H83      1.0000 0.89890  0.93503  0.47219  Biso   1.000  H
  H84      1.0000 0.02921  0.92658  0.02459  Biso   1.000  H
  H85      1.0000 0.88597  0.92920  0.04482  Biso   1.000  H
  H86      1.0000 0.77206  0.87592  0.57300  Biso   1.000  H
  H87      1.0000 0.83922  0.96222  0.58610  Biso   1.000  H
  H88      1.0000 0.93388  0.89069  0.57742  Biso   1.000  H
  C61      1.0000 0.31632  0.40052  0.49350  Biso   1.000  C
  C62      1.0000 0.39929  0.35508  0.45008  Biso   1.000  C
  H89      1.0000 0.32483  0.45369  0.48659  Biso   1.000  H
  H90      1.0000 0.22029  0.38020  0.47618  Biso   1.000  H
  C63      1.0000 0.34159  0.40661  0.57289  Biso   1.000  C
  C64      1.0000 0.38027  0.27539  0.42500  Biso   1.000  C
  H91      1.0000 0.49363  0.36593  0.47581  Biso   1.000  H
  H92      1.0000 0.39834  0.37650  0.40790  Biso   1.000  H
  H93      1.0000 0.26128  0.42780  0.59392  Biso   1.000  H
  H94      1.0000 0.34986  0.35391  0.58071  Biso   1.000  H
  C65      1.0000 0.47148  0.45810  0.61188  Biso   1.000  C
  H95      1.0000 0.28330  0.25913  0.42123  Biso   1.000  H
  H96      1.0000 0.40991  0.26042  0.37840  Biso   1.000  H
  H97      1.0000 0.43433  0.25048  0.45769  Biso   1.000  H
  H98      1.0000 0.55258  0.43213  0.59640  Biso   1.000  H
  H99      1.0000 0.47050  0.50760  0.59721  Biso   1.000  H
  C66      1.0000 0.48799  0.47678  0.69419  Biso   1.000  C
  H100     1.0000 0.40119  0.49893  0.70783  Biso   1.000  H
  C67      1.0000 0.60389  0.54189  0.72638  Biso   1.000  C
  C68      1.0000 0.50584  0.40553  0.72692  Biso   1.000  C
  C69      1.0000 0.57523  0.62091  0.74683  Biso   1.000  C
  C70      1.0000 0.74294  0.52570  0.73431  Biso   1.000  C
  C71      1.0000 0.47617  0.41049  0.79650  Biso   1.000  C
  C72      1.0000 0.54724  0.33370  0.69041  Biso   1.000  C
  C73      1.0000 0.68253  0.68042  0.77369  Biso   1.000  C
  O13      1.0000 0.43736  0.63618  0.73933  Biso   1.000  O
  C74      1.0000 0.85360  0.58379  0.76101  Biso   1.000  C
  H101     1.0000 0.76423  0.47332  0.72110  Biso   1.000  H
  C75      1.0000 0.48518  0.34680  0.82810  Biso   1.000  C
  O14      1.0000 0.43322  0.48278  0.83129  Biso   1.000  O
  C76      1.0000 0.55618  0.26624  0.71883  Biso   1.000  C
  H102     1.0000 0.57065  0.32993  0.64451  Biso   1.000  H
  H103     1.0000 0.66199  0.73293  0.78782  Biso   1.000  H
  C77      1.0000 0.81803  0.66111  0.77913  Biso   1.000  C
  C78      1.0000 0.40553  0.71670  0.74790  Biso   1.000  C
  C79      1.0000 0.00356  0.56191  0.76802  Biso   1.000  C
  C80      1.0000 0.52344  0.27509  0.78900  Biso   1.000  C
  H104     1.0000 0.46593  0.35203  0.87492  Biso   1.000  H
  C81      1.0000 0.39568  0.49031  0.90081  Biso   1.000  C
  C82      1.0000 0.59830  0.18759  0.67822  Biso   1.000  C
  O15      1.0000 0.92902  0.71921  0.80632  Biso   1.000  O
  H105     1.0000 0.45390  0.74012  0.71673  Biso   1.000  H
  H106     1.0000 0.30676  0.71910  0.73561  Biso   1.000  H
  H107     1.0000 0.43416  0.74521  0.79709  Biso   1.000  H
  C83      1.0000 0.06078  0.54744  0.69591  Biso   1.000  C
  H108     1.0000 0.05930  0.60752  0.80044  Biso   1.000  H
  C84      1.0000 0.01852  0.49362  0.80432  Biso   1.000  C
  O16      1.0000 0.52896  0.20942  0.81683  Biso   1.000  O
  H109     1.0000 0.32012  0.45133  0.89870  Biso   1.000  H
  H110     1.0000 0.47469  0.48052  0.93322  Biso   1.000  H
  C85      1.0000 0.35092  0.57129  0.92902  Biso   1.000  C
  C86      1.0000 0.73893  0.16874  0.71323  Biso   1.000  C
  C87      1.0000 0.59992  0.18213  0.59732  Biso   1.000  C
  H111     1.0000 0.52895  0.14691  0.68184  Biso   1.000  H
  C88      1.0000 0.89761  0.79802  0.81581  Biso   1.000  C
  C89      1.0000 0.04918  0.61441  0.65703  Biso   1.000  C
  H112     1.0000 0.01195  0.50000  0.66398  Biso   1.000  H
  H113     1.0000 0.15842  0.53720  0.70443  Biso   1.000  H
  C90      1.0000 0.97669  0.49881  0.87109  Biso   1.000  C
  C91      1.0000 0.06433  0.42033  0.77050  Biso   1.000  C
  C92      1.0000 0.48480  0.21544  0.88474  Biso   1.000  C
  N9       1.0000 0.33708  0.61869  0.88490  Biso   1.000  N
  O17      1.0000 0.32342  0.59079  0.99179  Biso   1.000  O
  C93      1.0000 0.76580  0.09620  0.72903  Biso   1.000  C
  C94      1.0000 0.85269  0.22400  0.72563  Biso   1.000  C
  C95      1.0000 0.62735  0.10089  0.55450  Biso   1.000  C
  H114     1.0000 0.67119  0.22020  0.59230  Biso   1.000  H
  H115     1.0000 0.51063  0.19644  0.57693  Biso   1.000  H
  H116     1.0000 0.85188  0.80570  0.77029  Biso   1.000  H
  H117     1.0000 0.83261  0.80940  0.85043  Biso   1.000  H
  C96      1.0000 0.02304  0.85482  0.84132  Biso   1.000  C
  H118     1.0000 0.95144  0.62369  0.64640  Biso   1.000  H
  C97      1.0000 0.11157  0.59612  0.58761  Biso   1.000  C
  H119     1.0000 0.09633  0.66241  0.68869  Biso   1.000  H
  C98      1.0000 0.97957  0.43529  0.90291  Biso   1.000  C
  O18      1.0000 0.93682  0.57149  0.90690  Biso   1.000  O
  C99      1.0000 0.06803  0.35483  0.79963  Biso   1.000  C
  H120     1.0000 0.09406  0.41549  0.72579  Biso   1.000  H
  H121     1.0000 0.38827  0.22659  0.88182  Biso   1.000  H
  H122     1.0000 0.49614  0.16653  0.89860  Biso   1.000  H
  H123     1.0000 0.53998  0.25734  0.92001  Biso   1.000  H
  H124     1.0000 0.36249  0.60381  0.84299  Biso   1.000  H
  N10      1.0000 0.28239  0.69260  0.90383  Biso   1.000  N
  C100     1.0000 0.89626  0.08119  0.75799  Biso   1.000  C
  O19      1.0000 0.64861  0.04290  0.71560  Biso   1.000  O
  C101     1.0000 0.98691  0.21161  0.75281  Biso   1.000  C
  H125     1.0000 0.83721  0.27251  0.71500  Biso   1.000  H
  C102     1.0000 0.61424  0.09480  0.47230  Biso   1.000  C
  H126     1.0000 0.72054  0.08860  0.57149  Biso   1.000  H
  H127     1.0000 0.56163  0.06189  0.56291  Biso   1.000  H
  N11      1.0000 0.14248  0.82671  0.85211  Biso   1.000  N
  O20      1.0000 0.00836  0.92652  0.85324  Biso   1.000  O
  C103     1.0000 0.10329  0.65968  0.54732  Biso   1.000  C
  H128     1.0000 0.06421  0.54790  0.55638  Biso   1.000  H
  H129     1.0000 0.20888  0.58629  0.59872  Biso   1.000  H
  H130     1.0000 0.95183  0.44052  0.94800  Biso   1.000  H
  C104     1.0000 0.02376  0.36440  0.86731  Biso   1.000  C
  C105     1.0000 0.80196  0.57053  0.92982  Biso   1.000  C
  C106     1.0000 0.10574  0.27281  0.75928  Biso   1.000  C
  H131     1.0000 0.25648  0.70840  0.94552  Biso   1.000  H
  H132     1.0000 0.27484  0.72211  0.87373  Biso   1.000  H
  H133     1.0000 0.91088  0.03320  0.76991  Biso   1.000  H
  C107     1.0000 0.00725  0.13903  0.76932  Biso   1.000  C
  C108     1.0000 0.66248  0.96540  0.72719  Biso   1.000  C
  C109     1.0000 0.72592  0.13439  0.45359  Biso   1.000  C
  H134     1.0000 0.52837  0.11682  0.45698  Biso   1.000  H
  H135     1.0000 0.60853  0.03952  0.44690  Biso   1.000  H
  H136     1.0000 0.14793  0.77628  0.84170  Biso   1.000  H
  N12      1.0000 0.26642  0.87719  0.88080  Biso   1.000  N
  C110     1.0000 0.15625  0.63661  0.47392  Biso   1.000  C
  H137     1.0000 0.00713  0.67280  0.53972  Biso   1.000  H
  H138     1.0000 0.15790  0.70670  0.57661  Biso   1.000  H
  O21      1.0000 0.02937  0.29961  0.89887  Biso   1.000  O
  H139     1.0000 0.79736  0.53371  0.95960  Biso   1.000  H
  H140     1.0000 0.78678  0.62243  0.95679  Biso   1.000  H
  H141     1.0000 0.73144  0.55472  0.88830  Biso   1.000  H
  C111     1.0000 0.14410  0.27160  0.68442  Biso   1.000  C
  H142     1.0000 0.18698  0.25822  0.78809  Biso   1.000  H
  O22      1.0000 0.13973  0.12801  0.79860  Biso   1.000  O
  H143     1.0000 0.60082  0.92804  0.68960  Biso   1.000  H
  H144     1.0000 0.75733  0.95145  0.72283  Biso   1.000  H
  C112     1.0000 0.62979  0.95750  0.79823  Biso   1.000  C
  C113     1.0000 0.72253  0.12030  0.36891  Biso   1.000  C
  H145     1.0000 0.72488  0.19063  0.47462  Biso   1.000  H
  H146     1.0000 0.81241  0.11694  0.47403  Biso   1.000  H
  H147     1.0000 0.26217  0.92773  0.89142  Biso   1.000  H
  H148     1.0000 0.34517  0.85720  0.88759  Biso   1.000  H
  H149     1.0000 0.11116  0.58661  0.44679  Biso   1.000  H
  H150     1.0000 0.13515  0.67621  0.44771  Biso   1.000  H
  H151     1.0000 0.25529  0.63272  0.48131  Biso   1.000  H
  C114     1.0000 0.91056  0.28315  0.92864  Biso   1.000  C
  C115     1.0000 0.17699  0.19001  0.64203  Biso   1.000  C
  H152     1.0000 0.06721  0.29001  0.65659  Biso   1.000  H
  H153     1.0000 0.22471  0.30854  0.68982  Biso   1.000  H
  C116     1.0000 0.19079  0.05224  0.78091  Biso   1.000  C
  N13      1.0000 0.61323  0.02349  0.84580  Biso   1.000  N
  O23      1.0000 0.61630  0.89170  0.81090  Biso   1.000  O
  H154     1.0000 0.71883  0.06462  0.34739  Biso   1.000  H
  H155     1.0000 0.64172  0.14211  0.34890  Biso   1.000  H
  H156     1.0000 0.80529  0.14559  0.35920  Biso   1.000  H
  H157     1.0000 0.90382  0.32548  0.97049  Biso   1.000  H
  H158     1.0000 0.82861  0.28184  0.89353  Biso   1.000  H
  C117     1.0000 0.91127  0.20622  0.95059  Biso   1.000  C
  C118     1.0000 0.16268  0.17941  0.56162  Biso   1.000  C
  H159     1.0000 0.11529  0.15022  0.65223  Biso   1.000  H
  H160     1.0000 0.27179  0.18049  0.65929  Biso   1.000  H
  H161     1.0000 0.17248  0.03111  0.72973  Biso   1.000  H
  H162     1.0000 0.28966  0.05613  0.79661  Biso   1.000  H
  H163     1.0000 0.14524  0.01780  0.80454  Biso   1.000  H
  H164     1.0000 0.62059  0.06771  0.83371  Biso   1.000  H
  N14      1.0000 0.58435  0.02412  0.91521  Biso   1.000  N
  O24      1.0000 0.81460  0.18189  0.97642  Biso   1.000  O
  N15      1.0000 0.02654  0.16858  0.94320  Biso   1.000  N
  C119     1.0000 0.17221  0.10000  0.51771  Biso   1.000  C
  H165     1.0000 0.23435  0.21391  0.55158  Biso   1.000  H
  H166     1.0000 0.07333  0.19743  0.54592  Biso   1.000  H
  H167     1.0000 0.57425  0.06824  0.94482  Biso   1.000  H
  H168     1.0000 0.57669  0.98051  0.92831  Biso   1.000  H
  H169     1.0000 0.09478  0.18960  0.92799  Biso   1.000  H
  N16      1.0000 0.03886  0.09474  0.96014  Biso   1.000  N
  C120     1.0000 0.15534  0.09210  0.43821  Biso   1.000  C
  H170     1.0000 0.26225  0.08202  0.53249  Biso   1.000  H
  H171     1.0000 0.10134  0.06499  0.52780  Biso   1.000  H
  H172     1.0000 0.97092  0.07339  0.97540  Biso   1.000  H
  H173     1.0000 0.11429  0.07083  0.95523  Biso   1.000  H
  H174     1.0000 0.22818  0.12411  0.42700  Biso   1.000  H
  H175     1.0000 0.16092  0.03780  0.41389  Biso   1.000  H
  H176     1.0000 0.06637  0.10929  0.42263  Biso   1.000  H
