data_image0
_cell_length_a       19.756
_cell_length_b       14.932
_cell_length_c       12.188
_cell_angle_alpha    90
_cell_angle_beta     106.23
_cell_angle_gamma    90

_symmetry_space_group_name_H-M    "P 1"
_symmetry_int_tables_number       1

loop_
  _symmetry_equiv_pos_as_xyz
  'x, y, z'

loop_
  _atom_site_label
  _atom_site_occupancy
  _atom_site_fract_x
  _atom_site_fract_y
  _atom_site_fract_z
  _atom_site_thermal_displace_type
  _atom_site_B_iso_or_equiv
  _atom_site_type_symbol
  O1       1.0000 0.78789  0.56992  0.62518  Biso   1.000  O
  H1       1.0000 0.76166  0.60260  0.64859  Biso   1.000  H
  C1       1.0000 0.83438  0.62122  0.58741  Biso   1.000  C
  C2       1.0000 0.86609  0.58030  0.51417  Biso   1.000  C
  C3       1.0000 0.84898  0.71062  0.62014  Biso   1.000  C
  C4       1.0000 0.91230  0.62617  0.46777  Biso   1.000  C
  H2       1.0000 0.85641  0.52043  0.49529  Biso   1.000  H
  C5       1.0000 0.89581  0.75522  0.57262  Biso   1.000  C
  C6       1.0000 0.81107  0.75509  0.69850  Biso   1.000  C
  O2       1.0000 0.94609  0.59061  0.39539  Biso   1.000  O
  C7       1.0000 0.92921  0.71631  0.49888  Biso   1.000  C
  H3       1.0000 0.90531  0.81523  0.59159  Biso   1.000  H
  H4       1.0000 0.76227  0.73379  0.67559  Biso   1.000  H
  C8       1.0000 0.84349  0.72629  0.82223  Biso   1.000  C
  C9       1.0000 0.80897  0.85762  0.68841  Biso   1.000  C
  C10      1.0000 0.93091  0.49940  0.36019  Biso   1.000  C
  C11      1.0000 0.98160  0.76601  0.44872  Biso   1.000  C
  C12      1.0000 0.80607  0.68122  0.88615  Biso   1.000  C
  C13      1.0000 0.91350  0.75141  0.88068  Biso   1.000  C
  H5       1.0000 0.78987  0.87443  0.60877  Biso   1.000  H
  H6       1.0000 0.85660  0.88113  0.71482  Biso   1.000  H
  C14      1.0000 0.76399  0.89867  0.75840  Biso   1.000  C
  H7       1.0000 0.88148  0.49337  0.32250  Biso   1.000  H
  H8       1.0000 0.95759  0.48279  0.30857  Biso   1.000  H
  H9       1.0000 0.94331  0.46109  0.42599  Biso   1.000  H
  H10      1.0000 0.97049  0.74692  0.36873  Biso   1.000  H
  C15      1.0000 0.97048  0.86968  0.44496  Biso   1.000  C
  C16      1.0000 0.05490  0.73600  0.50187  Biso   1.000  C
  O3       1.0000 0.73971  0.65129  0.82480  Biso   1.000  O
  C17      1.0000 0.83503  0.66448  0.00245  Biso   1.000  C
  C18      1.0000 0.94508  0.73600  0.99810  Biso   1.000  C
  H11      1.0000 0.94030  0.77980  0.83915  Biso   1.000  H
  H12      1.0000 0.72379  0.86117  0.75361  Biso   1.000  H
  H13      1.0000 0.79137  0.90370  0.83676  Biso   1.000  H
  H14      1.0000 0.74840  0.95707  0.72900  Biso   1.000  H
  H15      1.0000 0.99040  0.89372  0.52118  Biso   1.000  H
  H16      1.0000 0.92027  0.88213  0.42299  Biso   1.000  H
  C19      1.0000 0.00381  0.91843  0.36232  Biso   1.000  C
  C20      1.0000 0.09600  0.69328  0.44137  Biso   1.000  C
  C21      1.0000 0.08648  0.75141  0.61928  Biso   1.000  C
  C22      1.0000 0.69741  0.60883  0.88803  Biso   1.000  C
  H17      1.0000 0.80870  0.63428  0.04322  Biso   1.000  H
  C23      1.0000 0.90403  0.69328  0.05860  Biso   1.000  C
  C24      1.0000 0.01843  0.76601  0.05125  Biso   1.000  C
  H18      1.0000 0.98321  0.89680  0.28601  Biso   1.000  H
  H19      1.0000 0.99529  0.98158  0.36489  Biso   1.000  H
  H20      1.0000 0.05361  0.90751  0.38403  Biso   1.000  H
  O4       1.0000 0.07109  0.67821  0.32831  Biso   1.000  O
  C25      1.0000 0.16500  0.66448  0.49751  Biso   1.000  C
  C26      1.0000 0.15651  0.72629  0.67782  Biso   1.000  C
  H21      1.0000 0.05968  0.77980  0.66081  Biso   1.000  H
  H22      1.0000 0.68749  0.65068  0.94118  Biso   1.000  H
  H23      1.0000 0.65390  0.58880  0.83616  Biso   1.000  H
  H24      1.0000 0.72237  0.55840  0.92888  Biso   1.000  H
  O5       1.0000 0.92889  0.67821  0.17165  Biso   1.000  O
  C27      1.0000 0.07082  0.71631  0.00109  Biso   1.000  C
  H25      1.0000 0.02949  0.74692  0.13123  Biso   1.000  H
  C28      1.0000 0.02950  0.86968  0.05501  Biso   1.000  C
  H26      1.0000 0.10419  0.66937  0.30131  Biso   1.000  H
  C29      1.0000 0.19391  0.68122  0.61381  Biso   1.000  C
  H27      1.0000 0.19129  0.63428  0.45683  Biso   1.000  H
  C30      1.0000 0.18886  0.75509  0.80147  Biso   1.000  C
  H28      1.0000 0.89579  0.66937  0.19866  Biso   1.000  H
  C31      1.0000 0.10418  0.75522  0.92743  Biso   1.000  C
  C32      1.0000 0.08773  0.62617  0.03219  Biso   1.000  C
  C33      1.0000 0.99622  0.91843  0.13764  Biso   1.000  C
  H29      1.0000 0.00958  0.89372  0.97878  Biso   1.000  H
  H30      1.0000 0.07971  0.88213  0.07697  Biso   1.000  H
  O6       1.0000 0.26027  0.65129  0.67517  Biso   1.000  O
  C34      1.0000 0.15096  0.71062  0.87991  Biso   1.000  C
  H31      1.0000 0.23766  0.73379  0.82437  Biso   1.000  H
  C35      1.0000 0.19096  0.85762  0.81155  Biso   1.000  C
  H32      1.0000 0.09467  0.81523  0.90837  Biso   1.000  H
  C36      1.0000 0.13389  0.58030  0.98579  Biso   1.000  C
  O7       1.0000 0.05389  0.59061  0.10457  Biso   1.000  O
  H33      1.0000 0.94642  0.90751  0.11594  Biso   1.000  H
  H34      1.0000 0.01682  0.89680  0.21395  Biso   1.000  H
  H35      1.0000 0.00474  0.98158  0.13508  Biso   1.000  H
  C37      1.0000 0.30258  0.60883  0.61202  Biso   1.000  C
  C38      1.0000 0.16555  0.62122  0.91256  Biso   1.000  C
  H36      1.0000 0.21010  0.87443  0.89119  Biso   1.000  H
  H37      1.0000 0.14339  0.88113  0.78523  Biso   1.000  H
  C39      1.0000 0.23599  0.89867  0.74157  Biso   1.000  C
  H38      1.0000 0.14362  0.52043  0.00468  Biso   1.000  H
  C40      1.0000 0.06912  0.49940  0.13978  Biso   1.000  C
  H39      1.0000 0.31249  0.65068  0.55878  Biso   1.000  H
  H40      1.0000 0.34608  0.58880  0.66380  Biso   1.000  H
  H41      1.0000 0.27761  0.55840  0.57109  Biso   1.000  H
  O8       1.0000 0.21208  0.56992  0.87479  Biso   1.000  O
  H42      1.0000 0.27619  0.86117  0.74635  Biso   1.000  H
  H43      1.0000 0.20860  0.90370  0.66320  Biso   1.000  H
  H44      1.0000 0.25158  0.95707  0.77096  Biso   1.000  H
  H45      1.0000 0.11850  0.49337  0.17746  Biso   1.000  H
  H46      1.0000 0.04244  0.48279  0.19139  Biso   1.000  H
  H47      1.0000 0.05672  0.46109  0.07398  Biso   1.000  H
  H48      1.0000 0.23827  0.60260  0.85137  Biso   1.000  H
  C41      1.0000 0.69739  0.39117  0.38796  Biso   1.000  C
  O9       1.0000 0.73970  0.34871  0.32481  Biso   1.000  O
  H49      1.0000 0.68748  0.34932  0.44120  Biso   1.000  H
  H50      1.0000 0.65389  0.41120  0.33617  Biso   1.000  H
  H51      1.0000 0.72241  0.44160  0.42889  Biso   1.000  H
  C42      1.0000 0.80611  0.31878  0.38616  Biso   1.000  C
  C43      1.0000 0.84346  0.27371  0.32216  Biso   1.000  C
  C44      1.0000 0.83497  0.33552  0.50247  Biso   1.000  C
  C45      1.0000 0.81111  0.24491  0.19851  Biso   1.000  C
  C46      1.0000 0.91349  0.24859  0.38070  Biso   1.000  C
  H52      1.0000 0.80869  0.36572  0.54323  Biso   1.000  H
  C47      1.0000 0.90397  0.30672  0.55861  Biso   1.000  C
  C48      1.0000 0.84901  0.28938  0.12006  Biso   1.000  C
  H53      1.0000 0.76231  0.26621  0.17561  Biso   1.000  H
  C49      1.0000 0.80901  0.14238  0.18842  Biso   1.000  C
  C50      1.0000 0.94507  0.26400  0.49811  Biso   1.000  C
  H54      1.0000 0.94029  0.22020  0.33916  Biso   1.000  H
  O10      1.0000 0.92888  0.32179  0.67166  Biso   1.000  O
  C51      1.0000 0.89580  0.24478  0.07264  Biso   1.000  C
  C52      1.0000 0.83442  0.37878  0.08742  Biso   1.000  C
  H55      1.0000 0.78992  0.12557  0.10878  Biso   1.000  H
  H56      1.0000 0.85659  0.11887  0.21483  Biso   1.000  H
  C53      1.0000 0.76398  0.10133  0.25841  Biso   1.000  C
  C54      1.0000 0.01837  0.23399  0.55126  Biso   1.000  C
  H57      1.0000 0.89578  0.33063  0.69867  Biso   1.000  H
  H58      1.0000 0.90530  0.18477  0.09161  Biso   1.000  H
  C55      1.0000 0.92915  0.28369  0.99889  Biso   1.000  C
  O11      1.0000 0.78788  0.43008  0.12519  Biso   1.000  O
  C56      1.0000 0.86608  0.41970  0.01419  Biso   1.000  C
  H59      1.0000 0.72378  0.13883  0.25363  Biso   1.000  H
  H60      1.0000 0.79136  0.09630  0.33677  Biso   1.000  H
  H61      1.0000 0.74839  0.04293  0.22902  Biso   1.000  H
  C57      1.0000 0.07081  0.28369  0.50110  Biso   1.000  C
  H62      1.0000 0.02949  0.25308  0.63133  Biso   1.000  H
  C58      1.0000 0.02949  0.13032  0.55502  Biso   1.000  C
  C59      1.0000 0.91224  0.37383  0.96778  Biso   1.000  C
  C60      1.0000 0.98154  0.23399  0.94873  Biso   1.000  C
  H63      1.0000 0.76170  0.39740  0.14860  Biso   1.000  H
  H64      1.0000 0.85635  0.47957  0.99530  Biso   1.000  H
  C61      1.0000 0.10417  0.24478  0.42744  Biso   1.000  C
  C62      1.0000 0.08767  0.37383  0.53220  Biso   1.000  C
  C63      1.0000 0.99616  0.08157  0.63765  Biso   1.000  C
  H65      1.0000 0.00957  0.10628  0.47880  Biso   1.000  H
  H66      1.0000 0.07970  0.11787  0.57698  Biso   1.000  H
  O12      1.0000 0.94608  0.40939  0.89540  Biso   1.000  O
  H67      1.0000 0.97048  0.25308  0.86874  Biso   1.000  H
  C64      1.0000 0.97048  0.13032  0.94505  Biso   1.000  C
  C65      1.0000 0.05489  0.26400  0.00188  Biso   1.000  C
  H68      1.0000 0.09471  0.18477  0.40838  Biso   1.000  H
  C66      1.0000 0.15100  0.28938  0.37993  Biso   1.000  C
  O13      1.0000 0.05388  0.40939  0.60458  Biso   1.000  O
  C67      1.0000 0.13388  0.41970  0.48580  Biso   1.000  C
  H69      1.0000 0.94637  0.09249  0.61603  Biso   1.000  H
  H70      1.0000 0.01676  0.10320  0.71396  Biso   1.000  H
  H71      1.0000 0.00468  0.01842  0.63509  Biso   1.000  H
  C68      1.0000 0.93084  0.50060  0.86020  Biso   1.000  C
  H72      1.0000 0.99039  0.10628  0.02119  Biso   1.000  H
  H73      1.0000 0.92026  0.11787  0.92301  Biso   1.000  H
  C69      1.0000 0.00375  0.08157  0.86233  Biso   1.000  C
  C70      1.0000 0.09594  0.30672  0.94138  Biso   1.000  C
  C71      1.0000 0.08647  0.24859  0.11929  Biso   1.000  C
  C72      1.0000 0.16559  0.37878  0.41257  Biso   1.000  C
  C73      1.0000 0.18890  0.24491  0.30148  Biso   1.000  C
  C74      1.0000 0.06906  0.50060  0.63979  Biso   1.000  C
  H74      1.0000 0.14361  0.47957  0.50469  Biso   1.000  H
  H75      1.0000 0.88147  0.50663  0.82251  Biso   1.000  H
  H76      1.0000 0.95758  0.51721  0.80858  Biso   1.000  H
  H77      1.0000 0.94325  0.53891  0.92600  Biso   1.000  H
  H78      1.0000 0.98315  0.10320  0.78602  Biso   1.000  H
  H79      1.0000 0.99528  0.01842  0.86490  Biso   1.000  H
  H80      1.0000 0.05355  0.09249  0.88404  Biso   1.000  H
  O14      1.0000 0.07108  0.32179  0.82832  Biso   1.000  O
  C75      1.0000 0.16494  0.33552  0.99752  Biso   1.000  C
  C76      1.0000 0.15650  0.27371  0.17783  Biso   1.000  C
  H81      1.0000 0.05972  0.22020  0.16082  Biso   1.000  H
  O15      1.0000 0.21207  0.43008  0.37480  Biso   1.000  O
  H82      1.0000 0.23770  0.26621  0.32438  Biso   1.000  H
  C77      1.0000 0.19100  0.14238  0.31156  Biso   1.000  C
  H83      1.0000 0.11849  0.50663  0.67747  Biso   1.000  H
  H84      1.0000 0.04238  0.51721  0.69140  Biso   1.000  H
  H85      1.0000 0.05671  0.53891  0.57399  Biso   1.000  H
  H86      1.0000 0.10418  0.33063  0.80132  Biso   1.000  H
  H87      1.0000 0.19128  0.36572  0.95685  Biso   1.000  H
  C78      1.0000 0.19390  0.31878  0.11382  Biso   1.000  C
  H88      1.0000 0.23831  0.39740  0.35138  Biso   1.000  H
  H89      1.0000 0.21009  0.12557  0.39121  Biso   1.000  H
  H90      1.0000 0.14337  0.11887  0.28516  Biso   1.000  H
  C79      1.0000 0.23598  0.10133  0.24158  Biso   1.000  C
  O16      1.0000 0.26031  0.34871  0.17518  Biso   1.000  O
  H91      1.0000 0.27618  0.13883  0.24636  Biso   1.000  H
  H92      1.0000 0.20859  0.09630  0.16322  Biso   1.000  H
  H93      1.0000 0.25157  0.04293  0.27097  Biso   1.000  H
  C80      1.0000 0.30262  0.39117  0.11203  Biso   1.000  C
  H94      1.0000 0.31248  0.34932  0.05879  Biso   1.000  H
  H95      1.0000 0.34612  0.41120  0.16381  Biso   1.000  H
  H96      1.0000 0.27760  0.44160  0.07110  Biso   1.000  H
  C81      1.0000 0.69100  0.64238  0.31156  Biso   1.000  C
  C82      1.0000 0.68890  0.74491  0.30148  Biso   1.000  C
  H97      1.0000 0.71009  0.62557  0.39121  Biso   1.000  H
  H98      1.0000 0.64337  0.61887  0.28516  Biso   1.000  H
  C83      1.0000 0.73598  0.60133  0.24158  Biso   1.000  C
  C84      1.0000 0.65650  0.77371  0.17783  Biso   1.000  C
  C85      1.0000 0.65100  0.78938  0.37993  Biso   1.000  C
  H99      1.0000 0.73770  0.76621  0.32438  Biso   1.000  H
  H100     1.0000 0.77618  0.63883  0.24636  Biso   1.000  H
  H101     1.0000 0.70859  0.59630  0.16322  Biso   1.000  H
  H102     1.0000 0.75157  0.54293  0.27097  Biso   1.000  H
  C86      1.0000 0.58647  0.74859  0.11929  Biso   1.000  C
  C87      1.0000 0.69390  0.81878  0.11382  Biso   1.000  C
  C88      1.0000 0.60417  0.74478  0.42744  Biso   1.000  C
  C89      1.0000 0.66559  0.87878  0.41257  Biso   1.000  C
  C90      1.0000 0.55489  0.76400  0.00188  Biso   1.000  C
  H103     1.0000 0.55972  0.72020  0.16082  Biso   1.000  H
  C91      1.0000 0.66494  0.83552  0.99752  Biso   1.000  C
  O17      1.0000 0.76031  0.84871  0.17518  Biso   1.000  O
  C92      1.0000 0.57081  0.78369  0.50110  Biso   1.000  C
  H104     1.0000 0.59471  0.68477  0.40838  Biso   1.000  H
  C93      1.0000 0.63388  0.91970  0.48580  Biso   1.000  C
  O18      1.0000 0.71207  0.93008  0.37480  Biso   1.000  O
  C94      1.0000 0.48154  0.73399  0.94873  Biso   1.000  C
  C95      1.0000 0.59594  0.80672  0.94138  Biso   1.000  C
  H105     1.0000 0.69128  0.86572  0.95685  Biso   1.000  H
  C96      1.0000 0.80262  0.89117  0.11203  Biso   1.000  C
  C97      1.0000 0.51837  0.73399  0.55126  Biso   1.000  C
  C98      1.0000 0.58767  0.87383  0.53220  Biso   1.000  C
  H106     1.0000 0.64361  0.97957  0.50469  Biso   1.000  H
  H107     1.0000 0.73831  0.89740  0.35138  Biso   1.000  H
  C99      1.0000 0.42915  0.78369  0.99889  Biso   1.000  C
  H108     1.0000 0.47048  0.75308  0.86874  Biso   1.000  H
  C100     1.0000 0.47048  0.63032  0.94505  Biso   1.000  C
  O19      1.0000 0.57108  0.82179  0.82832  Biso   1.000  O
  H109     1.0000 0.81248  0.84932  0.05879  Biso   1.000  H
  H110     1.0000 0.84612  0.91120  0.16381  Biso   1.000  H
  H111     1.0000 0.77760  0.94160  0.07110  Biso   1.000  H
  C101     1.0000 0.44507  0.76400  0.49811  Biso   1.000  C
  H112     1.0000 0.52949  0.75308  0.63133  Biso   1.000  H
  C102     1.0000 0.52949  0.63032  0.55502  Biso   1.000  C
  O20      1.0000 0.55388  0.90939  0.60458  Biso   1.000  O
  C103     1.0000 0.39580  0.74478  0.07264  Biso   1.000  C
  C104     1.0000 0.41224  0.87383  0.96778  Biso   1.000  C
  H113     1.0000 0.49039  0.60628  0.02119  Biso   1.000  H
  H114     1.0000 0.42026  0.61787  0.92301  Biso   1.000  H
  C105     1.0000 0.50375  0.58157  0.86233  Biso   1.000  C
  H115     1.0000 0.60418  0.83063  0.80132  Biso   1.000  H
  C106     1.0000 0.41349  0.74859  0.38070  Biso   1.000  C
  C107     1.0000 0.40397  0.80672  0.55861  Biso   1.000  C
  H116     1.0000 0.50957  0.60628  0.47880  Biso   1.000  H
  H117     1.0000 0.57970  0.61787  0.57698  Biso   1.000  H
  C108     1.0000 0.49616  0.58157  0.63765  Biso   1.000  C
  C109     1.0000 0.56906  0.00060  0.63979  Biso   1.000  C
  C110     1.0000 0.34901  0.78938  0.12006  Biso   1.000  C
  H118     1.0000 0.40530  0.68477  0.09161  Biso   1.000  H
  C111     1.0000 0.36608  0.91970  0.01419  Biso   1.000  C
  O21      1.0000 0.44608  0.90939  0.89540  Biso   1.000  O
  H119     1.0000 0.48315  0.60320  0.78602  Biso   1.000  H
  H120     1.0000 0.49528  0.51842  0.86490  Biso   1.000  H
  H121     1.0000 0.55355  0.59249  0.88404  Biso   1.000  H
  C112     1.0000 0.34346  0.77371  0.32216  Biso   1.000  C
  H122     1.0000 0.44029  0.72020  0.33916  Biso   1.000  H
  C113     1.0000 0.33497  0.83552  0.50247  Biso   1.000  C
  O22      1.0000 0.42888  0.82179  0.67166  Biso   1.000  O
  H123     1.0000 0.51676  0.60320  0.71396  Biso   1.000  H
  H124     1.0000 0.50468  0.51842  0.63509  Biso   1.000  H
  H125     1.0000 0.44637  0.59249  0.61603  Biso   1.000  H
  H126     1.0000 0.61849  0.00663  0.67747  Biso   1.000  H
  H127     1.0000 0.54238  0.01721  0.69140  Biso   1.000  H
  H128     1.0000 0.55671  0.03891  0.57399  Biso   1.000  H
  C114     1.0000 0.31111  0.74491  0.19851  Biso   1.000  C
  C115     1.0000 0.33442  0.87878  0.08742  Biso   1.000  C
  H129     1.0000 0.35635  0.97957  0.99530  Biso   1.000  H
  C116     1.0000 0.43084  0.00060  0.86020  Biso   1.000  C
  C117     1.0000 0.30611  0.81878  0.38616  Biso   1.000  C
  H130     1.0000 0.30869  0.86572  0.54323  Biso   1.000  H
  H131     1.0000 0.39578  0.83063  0.69867  Biso   1.000  H
  C118     1.0000 0.30901  0.64238  0.18842  Biso   1.000  C
  H132     1.0000 0.26231  0.76621  0.17561  Biso   1.000  H
  O23      1.0000 0.28788  0.93008  0.12519  Biso   1.000  O
  H133     1.0000 0.38147  0.00663  0.82251  Biso   1.000  H
  H134     1.0000 0.45758  0.01721  0.80858  Biso   1.000  H
  H135     1.0000 0.44325  0.03891  0.92600  Biso   1.000  H
  O24      1.0000 0.23970  0.84871  0.32481  Biso   1.000  O
  C119     1.0000 0.26398  0.60133  0.25841  Biso   1.000  C
  H136     1.0000 0.28992  0.62557  0.10878  Biso   1.000  H
  H137     1.0000 0.35659  0.61887  0.21483  Biso   1.000  H
  H138     1.0000 0.26170  0.89740  0.14860  Biso   1.000  H
  C120     1.0000 0.19739  0.89117  0.38796  Biso   1.000  C
  H139     1.0000 0.22378  0.63883  0.25363  Biso   1.000  H
  H140     1.0000 0.29136  0.59630  0.33677  Biso   1.000  H
  H141     1.0000 0.24839  0.54293  0.22902  Biso   1.000  H
  H142     1.0000 0.18748  0.84932  0.44120  Biso   1.000  H
  H143     1.0000 0.15389  0.91120  0.33617  Biso   1.000  H
  H144     1.0000 0.22241  0.94160  0.42889  Biso   1.000  H
  C121     1.0000 0.73599  0.39867  0.74157  Biso   1.000  C
  C122     1.0000 0.69096  0.35762  0.81155  Biso   1.000  C
  H145     1.0000 0.77619  0.36117  0.74635  Biso   1.000  H
  H146     1.0000 0.70860  0.40370  0.66320  Biso   1.000  H
  H147     1.0000 0.75158  0.45707  0.77096  Biso   1.000  H
  C123     1.0000 0.68886  0.25509  0.80147  Biso   1.000  C
  H148     1.0000 0.71010  0.37443  0.89119  Biso   1.000  H
  H149     1.0000 0.64339  0.38113  0.78523  Biso   1.000  H
  C124     1.0000 0.65651  0.22629  0.67782  Biso   1.000  C
  C125     1.0000 0.65096  0.21062  0.87991  Biso   1.000  C
  H150     1.0000 0.73766  0.23379  0.82437  Biso   1.000  H
  C126     1.0000 0.58648  0.25141  0.61928  Biso   1.000  C
  C127     1.0000 0.69391  0.18122  0.61381  Biso   1.000  C
  C128     1.0000 0.60418  0.25522  0.92743  Biso   1.000  C
  C129     1.0000 0.66555  0.12122  0.91256  Biso   1.000  C
  C130     1.0000 0.55490  0.23600  0.50187  Biso   1.000  C
  H151     1.0000 0.55968  0.27980  0.66081  Biso   1.000  H
  C131     1.0000 0.66500  0.16448  0.49751  Biso   1.000  C
  O25      1.0000 0.76027  0.15129  0.67517  Biso   1.000  O
  C132     1.0000 0.57082  0.21631  0.00109  Biso   1.000  C
  H152     1.0000 0.59467  0.31523  0.90837  Biso   1.000  H
  O26      1.0000 0.71208  0.06992  0.87479  Biso   1.000  O
  C133     1.0000 0.63389  0.08030  0.98579  Biso   1.000  C
  C134     1.0000 0.48160  0.26601  0.44872  Biso   1.000  C
  C135     1.0000 0.59600  0.19328  0.44137  Biso   1.000  C
  H153     1.0000 0.69129  0.13428  0.45683  Biso   1.000  H
  C136     1.0000 0.80258  0.10883  0.61202  Biso   1.000  C
  C137     1.0000 0.51843  0.26601  0.05125  Biso   1.000  C
  C138     1.0000 0.58773  0.12617  0.03219  Biso   1.000  C
  H154     1.0000 0.73827  0.10260  0.85137  Biso   1.000  H
  H155     1.0000 0.64362  0.02043  0.00468  Biso   1.000  H
  C139     1.0000 0.42921  0.21631  0.49888  Biso   1.000  C
  H156     1.0000 0.47049  0.24692  0.36873  Biso   1.000  H
  C140     1.0000 0.47048  0.36968  0.44496  Biso   1.000  C
  O27      1.0000 0.57109  0.17821  0.32831  Biso   1.000  O
  H157     1.0000 0.81249  0.15068  0.55878  Biso   1.000  H
  H158     1.0000 0.84608  0.08880  0.66380  Biso   1.000  H
  H159     1.0000 0.77761  0.05840  0.57109  Biso   1.000  H
  C141     1.0000 0.44508  0.23600  0.99810  Biso   1.000  C
  H160     1.0000 0.52949  0.24692  0.13123  Biso   1.000  H
  C142     1.0000 0.52950  0.36968  0.05501  Biso   1.000  C
  O28      1.0000 0.55389  0.09061  0.10457  Biso   1.000  O
  C143     1.0000 0.39581  0.25522  0.57262  Biso   1.000  C
  C144     1.0000 0.41230  0.12617  0.46777  Biso   1.000  C
  H161     1.0000 0.49040  0.39372  0.52118  Biso   1.000  H
  H162     1.0000 0.42027  0.38213  0.42299  Biso   1.000  H
  C145     1.0000 0.50381  0.41843  0.36232  Biso   1.000  C
  H163     1.0000 0.60419  0.16937  0.30131  Biso   1.000  H
  C146     1.0000 0.41350  0.25141  0.88068  Biso   1.000  C
  C147     1.0000 0.40403  0.19328  0.05860  Biso   1.000  C
  H164     1.0000 0.50958  0.39372  0.97878  Biso   1.000  H
  H165     1.0000 0.57971  0.38213  0.07697  Biso   1.000  H
  C148     1.0000 0.49622  0.41843  0.13764  Biso   1.000  C
  C149     1.0000 0.56912  0.99940  0.13978  Biso   1.000  C
  H166     1.0000 0.40531  0.31523  0.59159  Biso   1.000  H
  C150     1.0000 0.34898  0.21062  0.62014  Biso   1.000  C
  O29      1.0000 0.44609  0.09061  0.39539  Biso   1.000  O
  C151     1.0000 0.36609  0.08030  0.51417  Biso   1.000  C
  H167     1.0000 0.48321  0.39680  0.28601  Biso   1.000  H
  H168     1.0000 0.49529  0.48158  0.36489  Biso   1.000  H
  H169     1.0000 0.55361  0.40751  0.38403  Biso   1.000  H
  C152     1.0000 0.34349  0.22629  0.82223  Biso   1.000  C
  H170     1.0000 0.44030  0.27980  0.83915  Biso   1.000  H
  C153     1.0000 0.33503  0.16448  0.00245  Biso   1.000  C
  O30      1.0000 0.42889  0.17821  0.17165  Biso   1.000  O
  H171     1.0000 0.51682  0.39680  0.21395  Biso   1.000  H
  H172     1.0000 0.50474  0.48158  0.13508  Biso   1.000  H
  H173     1.0000 0.44642  0.40751  0.11594  Biso   1.000  H
  H174     1.0000 0.61850  0.99337  0.17746  Biso   1.000  H
  H175     1.0000 0.54244  0.98279  0.19139  Biso   1.000  H
  H176     1.0000 0.55672  0.96109  0.07398  Biso   1.000  H
  C154     1.0000 0.33438  0.12122  0.58741  Biso   1.000  C
  C155     1.0000 0.31107  0.25509  0.69850  Biso   1.000  C
  C156     1.0000 0.43091  0.99940  0.36019  Biso   1.000  C
  H177     1.0000 0.35641  0.02043  0.49529  Biso   1.000  H
  C157     1.0000 0.30607  0.18122  0.88615  Biso   1.000  C
  H178     1.0000 0.30870  0.13428  0.04322  Biso   1.000  H
  H179     1.0000 0.39579  0.16937  0.19866  Biso   1.000  H
  O31      1.0000 0.28789  0.06992  0.62518  Biso   1.000  O
  H180     1.0000 0.26227  0.23379  0.67559  Biso   1.000  H
  C158     1.0000 0.30897  0.35762  0.68841  Biso   1.000  C
  H181     1.0000 0.38148  0.99337  0.32250  Biso   1.000  H
  H182     1.0000 0.45759  0.98279  0.30857  Biso   1.000  H
  H183     1.0000 0.44331  0.96109  0.42599  Biso   1.000  H
  O32      1.0000 0.23971  0.15129  0.82480  Biso   1.000  O
  H184     1.0000 0.26166  0.10260  0.64859  Biso   1.000  H
  H185     1.0000 0.28987  0.37443  0.60877  Biso   1.000  H
  H186     1.0000 0.35660  0.38113  0.71482  Biso   1.000  H
  C159     1.0000 0.26399  0.39867  0.75840  Biso   1.000  C
  C160     1.0000 0.19741  0.10883  0.88803  Biso   1.000  C
  H187     1.0000 0.22379  0.36117  0.75361  Biso   1.000  H
  H188     1.0000 0.29137  0.40370  0.83676  Biso   1.000  H
  H189     1.0000 0.24840  0.45707  0.72900  Biso   1.000  H
  H190     1.0000 0.18749  0.15068  0.94118  Biso   1.000  H
  H191     1.0000 0.15390  0.08880  0.83616  Biso   1.000  H
  H192     1.0000 0.22237  0.05840  0.92888  Biso   1.000  H
