data_image0
_cell_length_a       13.464
_cell_length_b       20.579
_cell_length_c       15.39
_cell_angle_alpha    90
_cell_angle_beta     104
_cell_angle_gamma    90

_symmetry_space_group_name_H-M    "P 1"
_symmetry_int_tables_number       1

loop_
  _symmetry_equiv_pos_as_xyz
  'x, y, z'

loop_
  _atom_site_label
  _atom_site_occupancy
  _atom_site_fract_x
  _atom_site_fract_y
  _atom_site_fract_z
  _atom_site_thermal_displace_type
  _atom_site_B_iso_or_equiv
  _atom_site_type_symbol
  C1       1.0000 0.61611  0.64352  0.36698  Biso   1.000  C
  C2       1.0000 0.54226  0.63545  0.27369  Biso   1.000  C
  N1       1.0000 0.63228  0.57763  0.39939  Biso   1.000  N
  N2       1.0000 0.70388  0.67477  0.34541  Biso   1.000  N
  H1       1.0000 0.58559  0.67112  0.40729  Biso   1.000  H
  N3       1.0000 0.53059  0.56494  0.26452  Biso   1.000  N
  N4       1.0000 0.59528  0.66573  0.21322  Biso   1.000  N
  H2       1.0000 0.47516  0.65708  0.27088  Biso   1.000  H
  C3       1.0000 0.57792  0.53292  0.34113  Biso   1.000  C
  C4       1.0000 0.68232  0.56111  0.49120  Biso   1.000  C
  C5       1.0000 0.68768  0.69168  0.25809  Biso   1.000  C
  C6       1.0000 0.79188  0.69678  0.41412  Biso   1.000  C
  C7       1.0000 0.44788  0.53501  0.19882  Biso   1.000  C
  C8       1.0000 0.54494  0.68463  0.12221  Biso   1.000  C
  O1       1.0000 0.57202  0.47490  0.35552  Biso   1.000  O
  N5       1.0000 0.79201  0.55309  0.50727  Biso   1.000  N
  H3       1.0000 0.66790  0.59570  0.53118  Biso   1.000  H
  H4       1.0000 0.65238  0.52019  0.50727  Biso   1.000  H
  O2       1.0000 0.74259  0.72623  0.22461  Biso   1.000  O
  N6       1.0000 0.86581  0.64634  0.44807  Biso   1.000  N
  H5       1.0000 0.82638  0.73211  0.38901  Biso   1.000  H
  H6       1.0000 0.76729  0.71520  0.46461  Biso   1.000  H
  N7       1.0000 0.46573  0.53219  0.11056  Biso   1.000  N
  H7       1.0000 0.43737  0.49031  0.21858  Biso   1.000  H
  H8       1.0000 0.38421  0.55970  0.19608  Biso   1.000  H
  N8       1.0000 0.52989  0.63166  0.05813  Biso   1.000  N
  H9       1.0000 0.47742  0.70368  0.12221  Biso   1.000  H
  H10      1.0000 0.58617  0.71879  0.10239  Biso   1.000  H
  C9       1.0000 0.83754  0.49342  0.51531  Biso   1.000  C
  C10      1.0000 0.86434  0.60620  0.52441  Biso   1.000  C
  C11      1.0000 0.95663  0.64192  0.42303  Biso   1.000  C
  C12      1.0000 0.46701  0.47471  0.06630  Biso   1.000  C
  C13      1.0000 0.44498  0.58696  0.05002  Biso   1.000  C
  C14      1.0000 0.56348  0.63477  0.98058  Biso   1.000  C
  O3       1.0000 0.79420  0.44011  0.51062  Biso   1.000  O
  N9       1.0000 0.94200  0.50241  0.53319  Biso   1.000  N
  C15      1.0000 0.96994  0.57019  0.54343  Biso   1.000  C
  H11      1.0000 0.85710  0.63278  0.57692  Biso   1.000  H
  N10      1.0000 0.01526  0.59522  0.47419  Biso   1.000  N
  O4       1.0000 0.98099  0.67438  0.36450  Biso   1.000  O
  O5       1.0000 0.47857  0.42033  0.09951  Biso   1.000  O
  N11      1.0000 0.45269  0.48797  0.97690  Biso   1.000  N
  C16      1.0000 0.43402  0.55571  0.95640  Biso   1.000  C
  H12      1.0000 0.38098  0.61019  0.05411  Biso   1.000  H
  N12      1.0000 0.51361  0.58851  0.92299  Biso   1.000  N
  O6       1.0000 0.62646  0.67350  0.96578  Biso   1.000  O
  C17      1.0000 0.01250  0.44968  0.56413  Biso   1.000  C
  H13      1.0000 0.01281  0.57991  0.60471  Biso   1.000  H
  C18      1.0000 0.12210  0.58579  0.47513  Biso   1.000  C
  C19      1.0000 0.41876  0.43778  0.91060  Biso   1.000  C
  H14      1.0000 0.36439  0.56320  0.91649  Biso   1.000  H
  C20      1.0000 0.51788  0.58676  0.82910  Biso   1.000  C
  H15      1.0000 0.97354  0.41158  0.57712  Biso   1.000  H
  N13      1.0000 0.07141  0.43034  0.50051  Biso   1.000  N
  H16      1.0000 0.06048  0.46280  0.62078  Biso   1.000  H
  N14      1.0000 0.14098  0.52369  0.43649  Biso   1.000  N
  H17      1.0000 0.14471  0.62141  0.44111  Biso   1.000  H
  H18      1.0000 0.16346  0.58812  0.53767  Biso   1.000  H
  N15      1.0000 0.48849  0.42767  0.85388  Biso   1.000  N
  H19      1.0000 0.41101  0.39652  0.94140  Biso   1.000  H
  H20      1.0000 0.35079  0.44978  0.87270  Biso   1.000  H
  N16      1.0000 0.55580  0.52583  0.80211  Biso   1.000  N
  H21      1.0000 0.44839  0.59478  0.79106  Biso   1.000  H
  H22      1.0000 0.56269  0.62238  0.81819  Biso   1.000  H
  C21      1.0000 0.06486  0.36999  0.46448  Biso   1.000  C
  C22      1.0000 0.16142  0.46572  0.48999  Biso   1.000  C
  C23      1.0000 0.17663  0.52004  0.36102  Biso   1.000  C
  C24      1.0000 0.52017  0.36513  0.84169  Biso   1.000  C
  C25      1.0000 0.49040  0.46936  0.77861  Biso   1.000  C
  C26      1.0000 0.64157  0.52155  0.76957  Biso   1.000  C
  O7       1.0000 0.00657  0.32689  0.47339  Biso   1.000  O
  N17      1.0000 0.14014  0.36401  0.41760  Biso   1.000  N
  C27      1.0000 0.20924  0.41868  0.43113  Biso   1.000  C
  H23      1.0000 0.21000  0.47432  0.54912  Biso   1.000  H
  N18      1.0000 0.20740  0.45731  0.35198  Biso   1.000  N
  O8       1.0000 0.18268  0.56543  0.31039  Biso   1.000  O
  O9       1.0000 0.51657  0.31931  0.89018  Biso   1.000  O
  N19      1.0000 0.55590  0.36464  0.76622  Biso   1.000  N
  H24      1.0000 0.41985  0.48141  0.74399  Biso   1.000  H
  C28      1.0000 0.54666  0.42718  0.72289  Biso   1.000  C
  N20      1.0000 0.64379  0.46066  0.73300  Biso   1.000  N
  O10      1.0000 0.70542  0.56431  0.77379  Biso   1.000  O
  C29      1.0000 0.16963  0.30147  0.38539  Biso   1.000  C
  H25      1.0000 0.28039  0.40570  0.46227  Biso   1.000  H
  C30      1.0000 0.27928  0.44409  0.29713  Biso   1.000  C
  C31      1.0000 0.57199  0.30483  0.72209  Biso   1.000  C
  H26      1.0000 0.50811  0.42441  0.65867  Biso   1.000  H
  C32      1.0000 0.71119  0.44409  0.67568  Biso   1.000  C
  N21      1.0000 0.16753  0.30196  0.29157  Biso   1.000  N
  H27      1.0000 0.23947  0.29020  0.41988  Biso   1.000  H
  H28      1.0000 0.12249  0.26741  0.39678  Biso   1.000  H
  N22      1.0000 0.24689  0.39215  0.23425  Biso   1.000  N
  H29      1.0000 0.28811  0.48399  0.26378  Biso   1.000  H
  H30      1.0000 0.34660  0.43292  0.33671  Biso   1.000  H
  N23      1.0000 0.67829  0.29025  0.72858  Biso   1.000  N
  H31      1.0000 0.54128  0.26848  0.74881  Biso   1.000  H
  H32      1.0000 0.53587  0.30769  0.65807  Biso   1.000  H
  N24      1.0000 0.77337  0.38700  0.70501  Biso   1.000  N
  H33      1.0000 0.75685  0.48141  0.67347  Biso   1.000  H
  H34      1.0000 0.66931  0.43651  0.61421  Biso   1.000  H
  C33      1.0000 0.11263  0.25677  0.23432  Biso   1.000  C
  C34      1.0000 0.25549  0.32475  0.26157  Biso   1.000  C
  C35      1.0000 0.25000  0.39866  0.14559  Biso   1.000  C
  C36      1.0000 0.73059  0.24209  0.78289  Biso   1.000  C
  C37      1.0000 0.73778  0.32222  0.67541  Biso   1.000  C
  C38      1.0000 0.87848  0.39069  0.72169  Biso   1.000  C
  N25      1.0000 0.15409  0.25171  0.16132  Biso   1.000  N
  O11      1.0000 0.03718  0.22732  0.24483  Biso   1.000  O
  C39      1.0000 0.24963  0.28704  0.17378  Biso   1.000  C
  H35      1.0000 0.32098  0.31600  0.30691  Biso   1.000  H
  N26      1.0000 0.24880  0.33777  0.10929  Biso   1.000  N
  O12      1.0000 0.25402  0.45031  0.10641  Biso   1.000  O
  O13      1.0000 0.69579  0.20759  0.83272  Biso   1.000  O
  N27      1.0000 0.82719  0.23898  0.76856  Biso   1.000  N
  H36      1.0000 0.70198  0.32178  0.61039  Biso   1.000  H
  C40      1.0000 0.83807  0.28072  0.69430  Biso   1.000  C
  N28      1.0000 0.91680  0.32971  0.71687  Biso   1.000  N
  O14      1.0000 0.92890  0.44113  0.73642  Biso   1.000  O
  C41      1.0000 0.13048  0.19666  0.10092  Biso   1.000  C
  H37      1.0000 0.30917  0.25711  0.17880  Biso   1.000  H
  C42      1.0000 0.27050  0.32621  0.02310  Biso   1.000  C
  C43      1.0000 0.89581  0.18645  0.80372  Biso   1.000  C
  H38      1.0000 0.84374  0.25482  0.64066  Biso   1.000  H
  C44      1.0000 0.02475  0.31610  0.73227  Biso   1.000  C
  N29      1.0000 0.08750  0.21551  0.00837  Biso   1.000  N
  H39      1.0000 0.08118  0.16799  0.12087  Biso   1.000  H
  H40      1.0000 0.19387  0.17139  0.10427  Biso   1.000  H
  N30      1.0000 0.18322  0.30220  0.95620  Biso   1.000  N
  H41      1.0000 0.32690  0.29418  0.03047  Biso   1.000  H
  H42      1.0000 0.29417  0.36722  0.00127  Biso   1.000  H
  N31      1.0000 0.98400  0.20652  0.87256  Biso   1.000  N
  H43      1.0000 0.85779  0.15302  0.82870  Biso   1.000  H
  H44      1.0000 0.91978  0.16629  0.75397  Biso   1.000  H
  N32      1.0000 0.07199  0.29773  0.82361  Biso   1.000  N
  H45      1.0000 0.05985  0.35522  0.71687  Biso   1.000  H
  H46      1.0000 0.03480  0.28058  0.69182  Biso   1.000  H
  C45      1.0000 0.99299  0.19544  0.96230  Biso   1.000  C
  C46      1.0000 0.15157  0.23490  0.94890  Biso   1.000  C
  C47      1.0000 0.14284  0.33670  0.87946  Biso   1.000  C
  C48      1.0000 0.07692  0.23096  0.85462  Biso   1.000  C
  O15      1.0000 0.92738  0.17032  0.99578  Biso   1.000  O
  H47      1.0000 0.21130  0.20501  0.95406  Biso   1.000  H
  O16      1.0000 0.16638  0.39220  0.86359  Biso   1.000  O
  H48      1.0000 0.10349  0.20132  0.81397  Biso   1.000  H
  O17      1.0000 0.20581  0.94013  0.48939  Biso   1.000  O
  C49      1.0000 0.16248  0.99339  0.48470  Biso   1.000  C
  N33      1.0000 0.05801  0.00243  0.46682  Biso   1.000  N
  N34      1.0000 0.20798  0.05311  0.49267  Biso   1.000  N
  C50      1.0000 0.98751  0.94971  0.43588  Biso   1.000  C
  C51      1.0000 0.03007  0.07022  0.45658  Biso   1.000  C
  C52      1.0000 0.13567  0.10618  0.47560  Biso   1.000  C
  C53      1.0000 0.31769  0.06108  0.50881  Biso   1.000  C
  H49      1.0000 0.02648  0.91161  0.42289  Biso   1.000  H
  N35      1.0000 0.92860  0.93032  0.49950  Biso   1.000  N
  H50      1.0000 0.93954  0.96278  0.37923  Biso   1.000  H
  N36      1.0000 0.98468  0.09524  0.52582  Biso   1.000  N
  H51      1.0000 0.98721  0.07989  0.39530  Biso   1.000  H
  N37      1.0000 0.13419  0.14636  0.55187  Biso   1.000  N
  H52      1.0000 0.14292  0.13281  0.42309  Biso   1.000  H
  N38      1.0000 0.36774  0.07765  0.60062  Biso   1.000  N
  H53      1.0000 0.33211  0.09568  0.46883  Biso   1.000  H
  H54      1.0000 0.34762  0.02021  0.49267  Biso   1.000  H
  C54      1.0000 0.93508  0.87001  0.53553  Biso   1.000  C
  C55      1.0000 0.83860  0.96569  0.51002  Biso   1.000  C
  C56      1.0000 0.87791  0.08582  0.52488  Biso   1.000  C
  C57      1.0000 0.04339  0.14189  0.57698  Biso   1.000  C
  C58      1.0000 0.20806  0.19680  0.58589  Biso   1.000  C
  C59      1.0000 0.42210  0.03290  0.65888  Biso   1.000  C
  C60      1.0000 0.38389  0.14350  0.63297  Biso   1.000  C
  O18      1.0000 0.99344  0.82686  0.52662  Biso   1.000  O
  N39      1.0000 0.85988  0.86399  0.58241  Biso   1.000  N
  C61      1.0000 0.79078  0.91870  0.56888  Biso   1.000  C
  H55      1.0000 0.79001  0.97429  0.45089  Biso   1.000  H
  N40      1.0000 0.85904  0.02366  0.56352  Biso   1.000  N
  H56      1.0000 0.85531  0.12139  0.55890  Biso   1.000  H
  H57      1.0000 0.83646  0.08810  0.46227  Biso   1.000  H
  O19      1.0000 0.01902  0.17440  0.63551  Biso   1.000  O
  N41      1.0000 0.29606  0.17474  0.65460  Biso   1.000  N
  H58      1.0000 0.17356  0.23208  0.61100  Biso   1.000  H
  H59      1.0000 0.23272  0.21522  0.53540  Biso   1.000  H
  O20      1.0000 0.42800  0.97493  0.64449  Biso   1.000  O
  N42      1.0000 0.46943  0.06497  0.73549  Biso   1.000  N
  H60      1.0000 0.41442  0.17110  0.59272  Biso   1.000  H
  C62      1.0000 0.45768  0.13543  0.72632  Biso   1.000  C
  C63      1.0000 0.83039  0.80150  0.61462  Biso   1.000  C
  N43      1.0000 0.79259  0.95729  0.64797  Biso   1.000  N
  H61      1.0000 0.71961  0.90568  0.53767  Biso   1.000  H
  C64      1.0000 0.82339  0.02007  0.63899  Biso   1.000  C
  C65      1.0000 0.31234  0.19170  0.74192  Biso   1.000  C
  C66      1.0000 0.55206  0.03504  0.80119  Biso   1.000  C
  N44      1.0000 0.40466  0.16570  0.78679  Biso   1.000  N
  H62      1.0000 0.52478  0.15710  0.72913  Biso   1.000  H
  N45      1.0000 0.83247  0.80193  0.70837  Biso   1.000  N
  H63      1.0000 0.76054  0.79022  0.58013  Biso   1.000  H
  H64      1.0000 0.87750  0.76738  0.60317  Biso   1.000  H
  C67      1.0000 0.72066  0.94412  0.70288  Biso   1.000  C
  O21      1.0000 0.81733  0.06546  0.68962  Biso   1.000  O
  O22      1.0000 0.25742  0.22625  0.77540  Biso   1.000  O
  H65      1.0000 0.56264  0.99028  0.78143  Biso   1.000  H
  N46      1.0000 0.53428  0.03217  0.88945  Biso   1.000  N
  H66      1.0000 0.61580  0.05972  0.80393  Biso   1.000  H
  C68      1.0000 0.45508  0.18465  0.87780  Biso   1.000  C
  C69      1.0000 0.88739  0.75679  0.76569  Biso   1.000  C
  C70      1.0000 0.74451  0.82477  0.73837  Biso   1.000  C
  N47      1.0000 0.75312  0.89217  0.76576  Biso   1.000  N
  H67      1.0000 0.71191  0.98401  0.73623  Biso   1.000  H
  H68      1.0000 0.65342  0.93289  0.66330  Biso   1.000  H
  C71      1.0000 0.53301  0.97473  0.93371  Biso   1.000  C
  C72      1.0000 0.55503  0.08698  0.94999  Biso   1.000  C
  N48      1.0000 0.47013  0.13164  0.94188  Biso   1.000  N
  H69      1.0000 0.52259  0.20370  0.87780  Biso   1.000  H
  H70      1.0000 0.41377  0.21882  0.89762  Biso   1.000  H
  O23      1.0000 0.96277  0.72729  0.75518  Biso   1.000  O
  N49      1.0000 0.84593  0.75174  0.83869  Biso   1.000  N
  C73      1.0000 0.75039  0.78706  0.82623  Biso   1.000  C
  H71      1.0000 0.67904  0.81598  0.69310  Biso   1.000  H
  C74      1.0000 0.75001  0.89868  0.85442  Biso   1.000  C
  O24      1.0000 0.52137  0.92036  0.90050  Biso   1.000  O
  N50      1.0000 0.54733  0.98795  0.02311  Biso   1.000  N
  H72      1.0000 0.61897  0.11021  0.94590  Biso   1.000  H
  C75      1.0000 0.56599  0.05569  0.04361  Biso   1.000  C
  C76      1.0000 0.43654  0.13480  0.01943  Biso   1.000  C
  C77      1.0000 0.86947  0.69663  0.89909  Biso   1.000  C
  N51      1.0000 0.75121  0.83780  0.89072  Biso   1.000  N
  H73      1.0000 0.69077  0.75708  0.82121  Biso   1.000  H
  O25      1.0000 0.74599  0.95029  0.89360  Biso   1.000  O
  C78      1.0000 0.58118  0.93780  0.08941  Biso   1.000  C
  N52      1.0000 0.48640  0.08849  0.07702  Biso   1.000  N
  H74      1.0000 0.63563  0.06322  0.08352  Biso   1.000  H
  O26      1.0000 0.37349  0.17348  0.03423  Biso   1.000  O
  N53      1.0000 0.91249  0.71549  0.99157  Biso   1.000  N
  H75      1.0000 0.91882  0.66801  0.87907  Biso   1.000  H
  H76      1.0000 0.80606  0.67141  0.89568  Biso   1.000  H
  C79      1.0000 0.72952  0.82618  0.97691  Biso   1.000  C
  N54      1.0000 0.51153  0.92769  0.14613  Biso   1.000  N
  H77      1.0000 0.58901  0.89650  0.05861  Biso   1.000  H
  H78      1.0000 0.64923  0.94980  0.12731  Biso   1.000  H
  C80      1.0000 0.48214  0.08674  0.17091  Biso   1.000  C
  C81      1.0000 0.84844  0.73488  0.05111  Biso   1.000  C
  C82      1.0000 0.00703  0.69547  0.03771  Biso   1.000  C
  H79      1.0000 0.67309  0.79421  0.96947  Biso   1.000  H
  H80      1.0000 0.70583  0.86719  0.99867  Biso   1.000  H
  N55      1.0000 0.81679  0.80218  0.04381  Biso   1.000  N
  C83      1.0000 0.47984  0.86515  0.15832  Biso   1.000  C
  C84      1.0000 0.50962  0.96934  0.22140  Biso   1.000  C
  N56      1.0000 0.44422  0.02585  0.19790  Biso   1.000  N
  H81      1.0000 0.55161  0.09481  0.20888  Biso   1.000  H
  H82      1.0000 0.43732  0.12241  0.18182  Biso   1.000  H
  C85      1.0000 0.92309  0.73094  0.14539  Biso   1.000  C
  H83      1.0000 0.78870  0.70499  0.04588  Biso   1.000  H
  O27      1.0000 0.07263  0.67034  0.00423  Biso   1.000  O
  N57      1.0000 0.01602  0.70650  0.12745  Biso   1.000  N
  C86      1.0000 0.85708  0.83673  0.12048  Biso   1.000  C
  O28      1.0000 0.48345  0.81928  0.10983  Biso   1.000  O
  N58      1.0000 0.44412  0.86467  0.23379  Biso   1.000  N
  H84      1.0000 0.58009  0.98139  0.25602  Biso   1.000  H
  C87      1.0000 0.45335  0.92716  0.27712  Biso   1.000  C
  C88      1.0000 0.35845  0.02158  0.23044  Biso   1.000  C
  N59      1.0000 0.92803  0.79775  0.17640  Biso   1.000  N
  H85      1.0000 0.89653  0.70130  0.18604  Biso   1.000  H
  C89      1.0000 0.10420  0.68648  0.19629  Biso   1.000  C
  O29      1.0000 0.83364  0.89222  0.13642  Biso   1.000  O
  C90      1.0000 0.42802  0.80480  0.27792  Biso   1.000  C
  N60      1.0000 0.35623  0.96069  0.26701  Biso   1.000  N
  H86      1.0000 0.49191  0.92439  0.34134  Biso   1.000  H
  O30      1.0000 0.29460  0.06434  0.22622  Biso   1.000  O
  C91      1.0000 0.97520  0.81612  0.26774  Biso   1.000  C
  N61      1.0000 0.17280  0.73901  0.23138  Biso   1.000  N
  H87      1.0000 0.14223  0.65300  0.17131  Biso   1.000  H
  H88      1.0000 0.08021  0.66631  0.24598  Biso   1.000  H
  N62      1.0000 0.32173  0.79027  0.27142  Biso   1.000  N
  H89      1.0000 0.45874  0.76850  0.25120  Biso   1.000  H
  H90      1.0000 0.46415  0.80772  0.34194  Biso   1.000  H
  C92      1.0000 0.28882  0.94412  0.32433  Biso   1.000  C
  H91      1.0000 0.94007  0.85519  0.28308  Biso   1.000  H
  H92      1.0000 0.96521  0.78060  0.30819  Biso   1.000  H
  N63      1.0000 0.08319  0.82968  0.28308  Biso   1.000  N
  C93      1.0000 0.26942  0.74207  0.21712  Biso   1.000  C
  C94      1.0000 0.16194  0.78070  0.30571  Biso   1.000  C
  C95      1.0000 0.26223  0.82220  0.32460  Biso   1.000  C
  N64      1.0000 0.22664  0.88697  0.29500  Biso   1.000  N
  H93      1.0000 0.24309  0.98139  0.32654  Biso   1.000  H
  H94      1.0000 0.33070  0.93649  0.38580  Biso   1.000  H
  C96      1.0000 0.12154  0.89071  0.27832  Biso   1.000  C
  O31      1.0000 0.30422  0.70757  0.16729  Biso   1.000  O
  H95      1.0000 0.15618  0.75480  0.35928  Biso   1.000  H
  H96      1.0000 0.29804  0.82181  0.38962  Biso   1.000  H
  O32      1.0000 0.07112  0.94111  0.26359  Biso   1.000  O
  Ne1      1.0000 0.84982  0.44150  0.10916  Biso   1.000  Ne
  He1      1.0000 0.75930  0.33066  0.23834  Biso   1.000  He
  He2      1.0000 0.93364  0.56687  0.04810  Biso   1.000  He
  Ar1      1.0000 0.86086  0.44591  0.10726  Biso   1.000  Ar
  Ne2      1.0000 0.15019  0.94151  0.89084  Biso   1.000  Ne
  He3      1.0000 0.04836  0.06285  0.96231  Biso   1.000  He
  He4      1.0000 0.23755  0.82504  0.87858  Biso   1.000  He
  Ar2      1.0000 0.13651  0.96692  0.90791  Biso   1.000  Ar
