data_image0
_cell_length_a       15.153
_cell_length_b       18.339
_cell_length_c       12.791
_cell_angle_alpha    90
_cell_angle_beta     93.28
_cell_angle_gamma    90

_symmetry_space_group_name_H-M    "P 1"
_symmetry_int_tables_number       1

loop_
  _symmetry_equiv_pos_as_xyz
  'x, y, z'

loop_
  _atom_site_label
  _atom_site_occupancy
  _atom_site_fract_x
  _atom_site_fract_y
  _atom_site_fract_z
  _atom_site_thermal_displace_type
  _atom_site_B_iso_or_equiv
  _atom_site_type_symbol
  C1       1.0000 0.67860  0.32292  0.44393  Biso   1.000  C
  N1       1.0000 0.67460  0.32963  0.33649  Biso   1.000  N
  N2       1.0000 0.60809  0.28219  0.47063  Biso   1.000  N
  O1       1.0000 0.73641  0.34773  0.50399  Biso   1.000  O
  C2       1.0000 0.60520  0.28638  0.28496  Biso   1.000  C
  C3       1.0000 0.74269  0.36670  0.28136  Biso   1.000  C
  C4       1.0000 0.55810  0.25089  0.37980  Biso   1.000  C
  C5       1.0000 0.60518  0.25279  0.57572  Biso   1.000  C
  N3       1.0000 0.53429  0.32952  0.23383  Biso   1.000  N
  C6       1.0000 0.64216  0.22520  0.21550  Biso   1.000  C
  N4       1.0000 0.71762  0.43972  0.24479  Biso   1.000  N
  H1       1.0000 0.75723  0.33742  0.22169  Biso   1.000  H
  H2       1.0000 0.79548  0.37041  0.32772  Biso   1.000  H
  N5       1.0000 0.46899  0.27908  0.36711  Biso   1.000  N
  C7       1.0000 0.55770  0.16669  0.37149  Biso   1.000  C
  H3       1.0000 0.65981  0.26528  0.61503  Biso   1.000  H
  H4       1.0000 0.60200  0.20012  0.57134  Biso   1.000  H
  N6       1.0000 0.53100  0.27908  0.63289  Biso   1.000  N
  C8       1.0000 0.45512  0.32068  0.27792  Biso   1.000  C
  C9       1.0000 0.54093  0.36611  0.13344  Biso   1.000  C
  H5       1.0000 0.68858  0.19941  0.25552  Biso   1.000  H
  H6       1.0000 0.66811  0.24729  0.15560  Biso   1.000  H
  C10      1.0000 0.56957  0.16942  0.17588  Biso   1.000  C
  C11      1.0000 0.67179  0.45690  0.14573  Biso   1.000  C
  C12      1.0000 0.74879  0.49997  0.29702  Biso   1.000  C
  C13      1.0000 0.39481  0.25279  0.42427  Biso   1.000  C
  C14      1.0000 0.51868  0.13959  0.26711  Biso   1.000  C
  H7       1.0000 0.61779  0.14892  0.38167  Biso   1.000  H
  H8       1.0000 0.52389  0.14668  0.42694  Biso   1.000  H
  C15      1.0000 0.44189  0.25089  0.62020  Biso   1.000  C
  C16      1.0000 0.54487  0.32068  0.72208  Biso   1.000  C
  O2       1.0000 0.38409  0.34348  0.24330  Biso   1.000  O
  H9       1.0000 0.48242  0.36872  0.09851  Biso   1.000  H
  H10      1.0000 0.57770  0.33699  0.08998  Biso   1.000  H
  N7       1.0000 0.57771  0.43988  0.14213  Biso   1.000  N
  H11      1.0000 0.52861  0.19309  0.12568  Biso   1.000  H
  H12      1.0000 0.59731  0.12929  0.14072  Biso   1.000  H
  C17      1.0000 0.67179  0.54310  0.14573  Biso   1.000  C
  C18      1.0000 0.71922  0.42581  0.05247  Biso   1.000  C
  N8       1.0000 0.71762  0.56028  0.24479  Biso   1.000  N
  O3       1.0000 0.79712  0.49997  0.37807  Biso   1.000  O
  H13      1.0000 0.34018  0.26528  0.38496  Biso   1.000  H
  H14      1.0000 0.39799  0.20012  0.42874  Biso   1.000  H
  N9       1.0000 0.39190  0.28219  0.52936  Biso   1.000  N
  H15      1.0000 0.45728  0.15459  0.25842  Biso   1.000  H
  H16      1.0000 0.52028  0.08670  0.26609  Biso   1.000  H
  C19      1.0000 0.39479  0.28638  0.71503  Biso   1.000  C
  C20      1.0000 0.44229  0.16669  0.62850  Biso   1.000  C
  N10      1.0000 0.46570  0.32952  0.76617  Biso   1.000  N
  O4       1.0000 0.61590  0.34348  0.75669  Biso   1.000  O
  C21      1.0000 0.52531  0.49997  0.13399  Biso   1.000  C
  N11      1.0000 0.57771  0.56012  0.14213  Biso   1.000  N
  C22      1.0000 0.71922  0.57419  0.05247  Biso   1.000  C
  H17      1.0000 0.72380  0.37319  0.05967  Biso   1.000  H
  C23      1.0000 0.81088  0.45788  0.04542  Biso   1.000  C
  H18      1.0000 0.68438  0.43612  0.98818  Biso   1.000  H
  C24      1.0000 0.74269  0.63330  0.28136  Biso   1.000  C
  C25      1.0000 0.32139  0.32292  0.55607  Biso   1.000  C
  N12      1.0000 0.32539  0.32963  0.66351  Biso   1.000  N
  C26      1.0000 0.35776  0.22520  0.78449  Biso   1.000  C
  C27      1.0000 0.48125  0.13959  0.73289  Biso   1.000  C
  H19      1.0000 0.38220  0.14892  0.61832  Biso   1.000  H
  H20      1.0000 0.47610  0.14668  0.57306  Biso   1.000  H
  C28      1.0000 0.45907  0.36611  0.86664  Biso   1.000  C
  O5       1.0000 0.44430  0.49997  0.12099  Biso   1.000  O
  C29      1.0000 0.54093  0.63389  0.13344  Biso   1.000  C
  H21      1.0000 0.72380  0.62681  0.05967  Biso   1.000  H
  C30      1.0000 0.81088  0.54212  0.04542  Biso   1.000  C
  H22      1.0000 0.68438  0.56388  0.98818  Biso   1.000  H
  H23      1.0000 0.84850  0.44059  0.10431  Biso   1.000  H
  H24      1.0000 0.83585  0.44059  0.98183  Biso   1.000  H
  H25      1.0000 0.75723  0.66258  0.22169  Biso   1.000  H
  H26      1.0000 0.79548  0.62959  0.32772  Biso   1.000  H
  N13      1.0000 0.67460  0.67037  0.33649  Biso   1.000  N
  O6       1.0000 0.26358  0.34773  0.49600  Biso   1.000  O
  C31      1.0000 0.25730  0.36670  0.71863  Biso   1.000  C
  H27      1.0000 0.31135  0.19941  0.74448  Biso   1.000  H
  H28      1.0000 0.33188  0.24729  0.84440  Biso   1.000  H
  C32      1.0000 0.43035  0.16942  0.82412  Biso   1.000  C
  H29      1.0000 0.54265  0.15459  0.74158  Biso   1.000  H
  H30      1.0000 0.47965  0.08670  0.73390  Biso   1.000  H
  H31      1.0000 0.51757  0.36872  0.90148  Biso   1.000  H
  H32      1.0000 0.42229  0.33699  0.91002  Biso   1.000  H
  N14      1.0000 0.42228  0.43988  0.85787  Biso   1.000  N
  H33      1.0000 0.48242  0.63128  0.09851  Biso   1.000  H
  H34      1.0000 0.57770  0.66301  0.08998  Biso   1.000  H
  N15      1.0000 0.53429  0.67048  0.23383  Biso   1.000  N
  H35      1.0000 0.84850  0.55941  0.10431  Biso   1.000  H
  H36      1.0000 0.83585  0.55941  0.98183  Biso   1.000  H
  C33      1.0000 0.60520  0.71362  0.28496  Biso   1.000  C
  C34      1.0000 0.67860  0.67708  0.44393  Biso   1.000  C
  H37      1.0000 0.24276  0.33742  0.77831  Biso   1.000  H
  H38      1.0000 0.20445  0.37041  0.67228  Biso   1.000  H
  N16      1.0000 0.28237  0.43972  0.75520  Biso   1.000  N
  H39      1.0000 0.47138  0.19309  0.87431  Biso   1.000  H
  H40      1.0000 0.40268  0.12929  0.85928  Biso   1.000  H
  C35      1.0000 0.32820  0.45690  0.85426  Biso   1.000  C
  C36      1.0000 0.47468  0.49997  0.86601  Biso   1.000  C
  C37      1.0000 0.45512  0.67932  0.27792  Biso   1.000  C
  C38      1.0000 0.55810  0.74911  0.37980  Biso   1.000  C
  C39      1.0000 0.64216  0.77480  0.21550  Biso   1.000  C
  N17      1.0000 0.60809  0.71781  0.47063  Biso   1.000  N
  O7       1.0000 0.73641  0.65227  0.50399  Biso   1.000  O
  C40      1.0000 0.25120  0.49997  0.70297  Biso   1.000  C
  C41      1.0000 0.32820  0.54310  0.85426  Biso   1.000  C
  C42      1.0000 0.28077  0.42581  0.94753  Biso   1.000  C
  N18      1.0000 0.42228  0.56012  0.85787  Biso   1.000  N
  O8       1.0000 0.55569  0.49997  0.87901  Biso   1.000  O
  N19      1.0000 0.46899  0.72092  0.36711  Biso   1.000  N
  O9       1.0000 0.38409  0.65652  0.24330  Biso   1.000  O
  C43      1.0000 0.55770  0.83331  0.37149  Biso   1.000  C
  H41      1.0000 0.68858  0.80059  0.25552  Biso   1.000  H
  H42      1.0000 0.66811  0.75271  0.15560  Biso   1.000  H
  C44      1.0000 0.56957  0.83058  0.17588  Biso   1.000  C
  C45      1.0000 0.60518  0.74721  0.57572  Biso   1.000  C
  N20      1.0000 0.28237  0.56028  0.75520  Biso   1.000  N
  O10      1.0000 0.20287  0.49997  0.62192  Biso   1.000  O
  C46      1.0000 0.28077  0.57419  0.94753  Biso   1.000  C
  H43      1.0000 0.27619  0.37319  0.94033  Biso   1.000  H
  C47      1.0000 0.18905  0.45788  0.95458  Biso   1.000  C
  H44      1.0000 0.31561  0.43612  0.01182  Biso   1.000  H
  C48      1.0000 0.45907  0.63389  0.86664  Biso   1.000  C
  C49      1.0000 0.39481  0.74721  0.42427  Biso   1.000  C
  C50      1.0000 0.51868  0.86041  0.26711  Biso   1.000  C
  H45      1.0000 0.61779  0.85108  0.38167  Biso   1.000  H
  H46      1.0000 0.52389  0.85332  0.42694  Biso   1.000  H
  H47      1.0000 0.52861  0.80691  0.12568  Biso   1.000  H
  H48      1.0000 0.59731  0.87071  0.14072  Biso   1.000  H
  H49      1.0000 0.65981  0.73472  0.61503  Biso   1.000  H
  H50      1.0000 0.60200  0.79988  0.57134  Biso   1.000  H
  N21      1.0000 0.53100  0.72092  0.63289  Biso   1.000  N
  C51      1.0000 0.25730  0.63330  0.71863  Biso   1.000  C
  H51      1.0000 0.27619  0.62681  0.94033  Biso   1.000  H
  C52      1.0000 0.18905  0.54212  0.95458  Biso   1.000  C
  H52      1.0000 0.31561  0.56388  0.01182  Biso   1.000  H
  H53      1.0000 0.15149  0.44059  0.89569  Biso   1.000  H
  H54      1.0000 0.16407  0.44059  0.01816  Biso   1.000  H
  H55      1.0000 0.51757  0.63128  0.90148  Biso   1.000  H
  H56      1.0000 0.42229  0.66301  0.91002  Biso   1.000  H
  N22      1.0000 0.46570  0.67048  0.76617  Biso   1.000  N
  H57      1.0000 0.34018  0.73472  0.38496  Biso   1.000  H
  H58      1.0000 0.39799  0.79988  0.42874  Biso   1.000  H
  N23      1.0000 0.39190  0.71781  0.52936  Biso   1.000  N
  H59      1.0000 0.45728  0.84541  0.25842  Biso   1.000  H
  H60      1.0000 0.52028  0.91330  0.26609  Biso   1.000  H
  C53      1.0000 0.44189  0.74911  0.62020  Biso   1.000  C
  C54      1.0000 0.54487  0.67932  0.72208  Biso   1.000  C
  H61      1.0000 0.24276  0.66258  0.77831  Biso   1.000  H
  H62      1.0000 0.20445  0.62959  0.67228  Biso   1.000  H
  N24      1.0000 0.32539  0.67037  0.66351  Biso   1.000  N
  H63      1.0000 0.15149  0.55941  0.89569  Biso   1.000  H
  H64      1.0000 0.16407  0.55941  0.01816  Biso   1.000  H
  C55      1.0000 0.39479  0.71362  0.71503  Biso   1.000  C
  C56      1.0000 0.32139  0.67708  0.55607  Biso   1.000  C
  C57      1.0000 0.44229  0.83331  0.62850  Biso   1.000  C
  O11      1.0000 0.61590  0.65652  0.75669  Biso   1.000  O
  C58      1.0000 0.35776  0.77480  0.78449  Biso   1.000  C
  O12      1.0000 0.26358  0.65227  0.49600  Biso   1.000  O
  C59      1.0000 0.48125  0.86041  0.73289  Biso   1.000  C
  H65      1.0000 0.38220  0.85108  0.61832  Biso   1.000  H
  H66      1.0000 0.47610  0.85332  0.57306  Biso   1.000  H
  H67      1.0000 0.31135  0.80059  0.74448  Biso   1.000  H
  H68      1.0000 0.33188  0.75271  0.84440  Biso   1.000  H
  C60      1.0000 0.43035  0.83058  0.82412  Biso   1.000  C
  H69      1.0000 0.54265  0.84541  0.74158  Biso   1.000  H
  H70      1.0000 0.47965  0.91330  0.73390  Biso   1.000  H
  H71      1.0000 0.47138  0.80691  0.87431  Biso   1.000  H
  H72      1.0000 0.40268  0.87071  0.85928  Biso   1.000  H
  O13      1.0000 0.76361  0.15224  0.49600  Biso   1.000  O
  C61      1.0000 0.82135  0.17711  0.55607  Biso   1.000  C
  N25      1.0000 0.82535  0.17040  0.66351  Biso   1.000  N
  N26      1.0000 0.89186  0.21779  0.52936  Biso   1.000  N
  C62      1.0000 0.75727  0.13332  0.71863  Biso   1.000  C
  C63      1.0000 0.89476  0.21359  0.71503  Biso   1.000  C
  C64      1.0000 0.94185  0.24909  0.62020  Biso   1.000  C
  C65      1.0000 0.89477  0.24718  0.42427  Biso   1.000  C
  H73      1.0000 0.74280  0.16260  0.77831  Biso   1.000  H
  H74      1.0000 0.70448  0.12961  0.67228  Biso   1.000  H
  N27      1.0000 0.78240  0.06031  0.75520  Biso   1.000  N
  C66      1.0000 0.85779  0.27482  0.78449  Biso   1.000  C
  N28      1.0000 0.96566  0.17051  0.76617  Biso   1.000  N
  C67      1.0000 0.94225  0.33328  0.62850  Biso   1.000  C
  N29      1.0000 0.03096  0.22090  0.63289  Biso   1.000  N
  H75      1.0000 0.84021  0.23469  0.38496  Biso   1.000  H
  H76      1.0000 0.89796  0.29991  0.42874  Biso   1.000  H
  N30      1.0000 0.96896  0.22090  0.36711  Biso   1.000  N
  C68      1.0000 0.82817  0.04308  0.85426  Biso   1.000  C
  C69      1.0000 0.75117  0.00000  0.70297  Biso   1.000  C
  H77      1.0000 0.81138  0.30062  0.74448  Biso   1.000  H
  H78      1.0000 0.83185  0.25269  0.84440  Biso   1.000  H
  C70      1.0000 0.93039  0.33061  0.82412  Biso   1.000  C
  C71      1.0000 0.95910  0.13392  0.86664  Biso   1.000  C
  C72      1.0000 0.04491  0.17929  0.72208  Biso   1.000  C
  C73      1.0000 0.98128  0.36038  0.73289  Biso   1.000  C
  H79      1.0000 0.88217  0.35111  0.61832  Biso   1.000  H
  H80      1.0000 0.97607  0.35329  0.57306  Biso   1.000  H
  C74      1.0000 0.10522  0.24718  0.57572  Biso   1.000  C
  C75      1.0000 0.95508  0.17929  0.27792  Biso   1.000  C
  C76      1.0000 0.05807  0.24909  0.37980  Biso   1.000  C
  C77      1.0000 0.78080  0.07421  0.94753  Biso   1.000  C
  N31      1.0000 0.92225  0.06009  0.85787  Biso   1.000  N
  C78      1.0000 0.82817  0.95692  0.85426  Biso   1.000  C
  O14      1.0000 0.70291  0.00000  0.62192  Biso   1.000  O
  N32      1.0000 0.78240  0.93969  0.75520  Biso   1.000  N
  H81      1.0000 0.97135  0.30689  0.87431  Biso   1.000  H
  H82      1.0000 0.90265  0.37069  0.85928  Biso   1.000  H
  H83      1.0000 0.92226  0.16299  0.91002  Biso   1.000  H
  H84      1.0000 0.01760  0.13130  0.90148  Biso   1.000  H
  O15      1.0000 0.11587  0.15655  0.75669  Biso   1.000  O
  H85      1.0000 0.97968  0.41333  0.73390  Biso   1.000  H
  H86      1.0000 0.04268  0.34538  0.74158  Biso   1.000  H
  H87      1.0000 0.15978  0.23469  0.61503  Biso   1.000  H
  H88      1.0000 0.10197  0.29991  0.57134  Biso   1.000  H
  N33      1.0000 0.10806  0.21779  0.47063  Biso   1.000  N
  O16      1.0000 0.88412  0.15655  0.24330  Biso   1.000  O
  N34      1.0000 0.03432  0.17051  0.23383  Biso   1.000  N
  C79      1.0000 0.10516  0.21359  0.28496  Biso   1.000  C
  C80      1.0000 0.05767  0.33328  0.37149  Biso   1.000  C
  H89      1.0000 0.77616  0.12678  0.94033  Biso   1.000  H
  C81      1.0000 0.68908  0.04210  0.95458  Biso   1.000  C
  H90      1.0000 0.81558  0.06391  0.01182  Biso   1.000  H
  C82      1.0000 0.97464  0.00000  0.86601  Biso   1.000  C
  C83      1.0000 0.78080  0.92579  0.94753  Biso   1.000  C
  N35      1.0000 0.92225  0.93991  0.85787  Biso   1.000  N
  C84      1.0000 0.75727  0.86668  0.71863  Biso   1.000  C
  C85      1.0000 0.17857  0.17711  0.44393  Biso   1.000  C
  C86      1.0000 0.04089  0.13392  0.13344  Biso   1.000  C
  C87      1.0000 0.14220  0.27482  0.21550  Biso   1.000  C
  N36      1.0000 0.17457  0.17040  0.33649  Biso   1.000  N
  C88      1.0000 0.01871  0.36038  0.26711  Biso   1.000  C
  H91      1.0000 0.11782  0.35111  0.38167  Biso   1.000  H
  H92      1.0000 0.02392  0.35329  0.42694  Biso   1.000  H
  H93      1.0000 0.65146  0.05938  0.89569  Biso   1.000  H
  C89      1.0000 0.68908  0.95790  0.95458  Biso   1.000  C
  H94      1.0000 0.66410  0.05938  0.01816  Biso   1.000  H
  O17      1.0000 0.05565  0.00000  0.87901  Biso   1.000  O
  H95      1.0000 0.77616  0.87322  0.94033  Biso   1.000  H
  H96      1.0000 0.81558  0.93609  0.01182  Biso   1.000  H
  C90      1.0000 0.95910  0.86608  0.86664  Biso   1.000  C
  H97      1.0000 0.74280  0.83740  0.77831  Biso   1.000  H
  H98      1.0000 0.70448  0.87039  0.67228  Biso   1.000  H
  N37      1.0000 0.82535  0.82960  0.66351  Biso   1.000  N
  O18      1.0000 0.23638  0.15224  0.50399  Biso   1.000  O
  H99      1.0000 0.98239  0.13130  0.09851  Biso   1.000  H
  H100     1.0000 0.07766  0.16299  0.08998  Biso   1.000  H
  N38      1.0000 0.07768  0.06009  0.14213  Biso   1.000  N
  H101     1.0000 0.18861  0.30062  0.25552  Biso   1.000  H
  H102     1.0000 0.16808  0.25269  0.15560  Biso   1.000  H
  C91      1.0000 0.06960  0.33061  0.17588  Biso   1.000  C
  C92      1.0000 0.24272  0.13332  0.28136  Biso   1.000  C
  H103     1.0000 0.95731  0.34538  0.25842  Biso   1.000  H
  H104     1.0000 0.02031  0.41333  0.26609  Biso   1.000  H
  H105     1.0000 0.65146  0.94062  0.89569  Biso   1.000  H
  H106     1.0000 0.66410  0.94062  0.01816  Biso   1.000  H
  H107     1.0000 0.92226  0.83701  0.91002  Biso   1.000  H
  N39      1.0000 0.96566  0.82949  0.76617  Biso   1.000  N
  H108     1.0000 0.01760  0.86870  0.90148  Biso   1.000  H
  C93      1.0000 0.89476  0.78641  0.71503  Biso   1.000  C
  C94      1.0000 0.82135  0.82289  0.55607  Biso   1.000  C
  C95      1.0000 0.02528  0.00000  0.13399  Biso   1.000  C
  C96      1.0000 0.17182  0.04308  0.14573  Biso   1.000  C
  H109     1.0000 0.02857  0.30689  0.12568  Biso   1.000  H
  H110     1.0000 0.09727  0.37069  0.14072  Biso   1.000  H
  H111     1.0000 0.25719  0.16260  0.22169  Biso   1.000  H
  H112     1.0000 0.29551  0.12961  0.32772  Biso   1.000  H
  N40      1.0000 0.21759  0.06031  0.24479  Biso   1.000  N
  C97      1.0000 0.04491  0.82071  0.72208  Biso   1.000  C
  C98      1.0000 0.94185  0.75091  0.62020  Biso   1.000  C
  C99      1.0000 0.85779  0.72518  0.78449  Biso   1.000  C
  N41      1.0000 0.89186  0.78221  0.52936  Biso   1.000  N
  O19      1.0000 0.76361  0.84776  0.49600  Biso   1.000  O
  O20      1.0000 0.94427  0.00000  0.12099  Biso   1.000  O
  N42      1.0000 0.07768  0.93991  0.14213  Biso   1.000  N
  C100     1.0000 0.17182  0.95692  0.14573  Biso   1.000  C
  C101     1.0000 0.21919  0.07421  0.05247  Biso   1.000  C
  C102     1.0000 0.24882  0.00000  0.29702  Biso   1.000  C
  N43      1.0000 0.03096  0.77910  0.63289  Biso   1.000  N
  O21      1.0000 0.11587  0.84345  0.75669  Biso   1.000  O
  C103     1.0000 0.94225  0.66672  0.62850  Biso   1.000  C
  H113     1.0000 0.81138  0.69938  0.74448  Biso   1.000  H
  H114     1.0000 0.83185  0.74731  0.84440  Biso   1.000  H
  C104     1.0000 0.93039  0.66939  0.82412  Biso   1.000  C
  C105     1.0000 0.89477  0.75282  0.42427  Biso   1.000  C
  C106     1.0000 0.04089  0.86608  0.13344  Biso   1.000  C
  C107     1.0000 0.21919  0.92579  0.05247  Biso   1.000  C
  N44      1.0000 0.21759  0.93969  0.24479  Biso   1.000  N
  H115     1.0000 0.18441  0.06391  0.98818  Biso   1.000  H
  H116     1.0000 0.22383  0.12678  0.05967  Biso   1.000  H
  C108     1.0000 0.31091  0.04210  0.04542  Biso   1.000  C
  O22      1.0000 0.29708  0.00000  0.37807  Biso   1.000  O
  C109     1.0000 0.10522  0.75282  0.57572  Biso   1.000  C
  C110     1.0000 0.98128  0.63962  0.73289  Biso   1.000  C
  H117     1.0000 0.88217  0.64889  0.61832  Biso   1.000  H
  H118     1.0000 0.97607  0.64671  0.57306  Biso   1.000  H
  H119     1.0000 0.97135  0.69311  0.87431  Biso   1.000  H
  H120     1.0000 0.90265  0.62931  0.85928  Biso   1.000  H
  H121     1.0000 0.84021  0.76531  0.38496  Biso   1.000  H
  H122     1.0000 0.89796  0.70009  0.42874  Biso   1.000  H
  N45      1.0000 0.96896  0.77910  0.36711  Biso   1.000  N
  H123     1.0000 0.98239  0.86870  0.09851  Biso   1.000  H
  H124     1.0000 0.07766  0.83701  0.08998  Biso   1.000  H
  N46      1.0000 0.03432  0.82949  0.23383  Biso   1.000  N
  H125     1.0000 0.18441  0.93609  0.98818  Biso   1.000  H
  H126     1.0000 0.22383  0.87322  0.05967  Biso   1.000  H
  C111     1.0000 0.31091  0.95790  0.04542  Biso   1.000  C
  C112     1.0000 0.24272  0.86668  0.28136  Biso   1.000  C
  H127     1.0000 0.33589  0.05938  0.98183  Biso   1.000  H
  H128     1.0000 0.34847  0.05938  0.10431  Biso   1.000  H
  H129     1.0000 0.15978  0.76531  0.61503  Biso   1.000  H
  H130     1.0000 0.10197  0.70009  0.57134  Biso   1.000  H
  N47      1.0000 0.10806  0.78221  0.47063  Biso   1.000  N
  H131     1.0000 0.97968  0.58667  0.73390  Biso   1.000  H
  H132     1.0000 0.04268  0.65462  0.74158  Biso   1.000  H
  C113     1.0000 0.95508  0.82071  0.27792  Biso   1.000  C
  C114     1.0000 0.05807  0.75091  0.37980  Biso   1.000  C
  C115     1.0000 0.10516  0.78641  0.28496  Biso   1.000  C
  H133     1.0000 0.33589  0.94062  0.98183  Biso   1.000  H
  H134     1.0000 0.34847  0.94062  0.10431  Biso   1.000  H
  H135     1.0000 0.25719  0.83740  0.22169  Biso   1.000  H
  H136     1.0000 0.29551  0.87039  0.32772  Biso   1.000  H
  N48      1.0000 0.17457  0.82960  0.33649  Biso   1.000  N
  C116     1.0000 0.17857  0.82289  0.44393  Biso   1.000  C
  O23      1.0000 0.88412  0.84345  0.24330  Biso   1.000  O
  C117     1.0000 0.05767  0.66672  0.37149  Biso   1.000  C
  C118     1.0000 0.14220  0.72518  0.21550  Biso   1.000  C
  O24      1.0000 0.23638  0.84776  0.50399  Biso   1.000  O
  C119     1.0000 0.01871  0.63962  0.26711  Biso   1.000  C
  H137     1.0000 0.11782  0.64889  0.38167  Biso   1.000  H
  H138     1.0000 0.02392  0.64671  0.42694  Biso   1.000  H
  H139     1.0000 0.18861  0.69938  0.25552  Biso   1.000  H
  H140     1.0000 0.16808  0.74731  0.15560  Biso   1.000  H
  C120     1.0000 0.06960  0.66939  0.17588  Biso   1.000  C
  H141     1.0000 0.95731  0.65462  0.25842  Biso   1.000  H
  H142     1.0000 0.02031  0.58667  0.26609  Biso   1.000  H
  H143     1.0000 0.02857  0.69311  0.12568  Biso   1.000  H
  H144     1.0000 0.09727  0.62931  0.14072  Biso   1.000  H
