data_image0
_cell_length_a       12.674
_cell_length_b       13.425
_cell_length_c       14.107
_cell_angle_alpha    104.87
_cell_angle_beta     106.02
_cell_angle_gamma    108.53

_symmetry_space_group_name_H-M    "P 1"
_symmetry_int_tables_number       1

loop_
  _symmetry_equiv_pos_as_xyz
  'x, y, z'

loop_
  _atom_site_label
  _atom_site_occupancy
  _atom_site_fract_x
  _atom_site_fract_y
  _atom_site_fract_z
  _atom_site_thermal_displace_type
  _atom_site_B_iso_or_equiv
  _atom_site_type_symbol
  N1       1.0000 0.23704  0.28682  0.30938  Biso   1.000  N
  C1       1.0000 0.32227  0.24302  0.35104  Biso   1.000  C
  C2       1.0000 0.26348  0.33036  0.23602  Biso   1.000  C
  C3       1.0000 0.16489  0.31673  0.36514  Biso   1.000  C
  C4       1.0000 0.39797  0.25105  0.28198  Biso   1.000  C
  H1       1.0000 0.37227  0.28726  0.42679  Biso   1.000  H
  N2       1.0000 0.26773  0.12303  0.32834  Biso   1.000  N
  N3       1.0000 0.35378  0.30730  0.21698  Biso   1.000  N
  O1       1.0000 0.21016  0.38162  0.19531  Biso   1.000  O
  H2       1.0000 0.14453  0.37471  0.34602  Biso   1.000  H
  H3       1.0000 0.21256  0.34884  0.44121  Biso   1.000  H
  N4       1.0000 0.05335  0.22098  0.34196  Biso   1.000  N
  H4       1.0000 0.48448  0.29415  0.32603  Biso   1.000  H
  N5       1.0000 0.36911  0.13373  0.22335  Biso   1.000  N
  C5       1.0000 0.29808  0.06102  0.25545  Biso   1.000  C
  C6       1.0000 0.21235  0.07770  0.39294  Biso   1.000  C
  C7       1.0000 0.40362  0.34039  0.14442  Biso   1.000  C
  C8       1.0000 0.04084  0.14272  0.39676  Biso   1.000  C
  C9       1.0000 0.94534  0.20582  0.27051  Biso   1.000  C
  C10      1.0000 0.44640  0.10062  0.17349  Biso   1.000  C
  O2       1.0000 0.26427  0.95817  0.22264  Biso   1.000  O
  H5       1.0000 0.25678  0.13011  0.46654  Biso   1.000  H
  H6       1.0000 0.21893  0.00680  0.38856  Biso   1.000  H
  N6       1.0000 0.08651  0.05749  0.36323  Biso   1.000  N
  H7       1.0000 0.49109  0.37379  0.17859  Biso   1.000  H
  H8       1.0000 0.37972  0.39815  0.12864  Biso   1.000  H
  N7       1.0000 0.36520  0.24692  0.04548  Biso   1.000  N
  C11      1.0000 0.09200  0.20156  0.51760  Biso   1.000  C
  C12      1.0000 0.90024  0.06925  0.34833  Biso   1.000  C
  N8       1.0000 0.85533  0.11671  0.27162  Biso   1.000  N
  O3       1.0000 0.93142  0.26202  0.21730  Biso   1.000  O
  H9       1.0000 0.44552  0.02995  0.17922  Biso   1.000  H
  H10      1.0000 0.52883  0.15812  0.21212  Biso   1.000  H
  N9       1.0000 0.40861  0.08634  0.06149  Biso   1.000  N
  C13      1.0000 0.99679  0.95045  0.30612  Biso   1.000  C
  C14      1.0000 0.43181  0.17841  0.02557  Biso   1.000  C
  C15      1.0000 0.28125  0.23602  0.95340  Biso   1.000  C
  H11      1.0000 0.17668  0.25200  0.54277  Biso   1.000  H
  H12      1.0000 0.08668  0.14494  0.54946  Biso   1.000  H
  C16      1.0000 0.02370  0.26977  0.55337  Biso   1.000  C
  N10      1.0000 0.88887  0.95445  0.29791  Biso   1.000  N
  C17      1.0000 0.84826  0.07811  0.43476  Biso   1.000  C
  C18      1.0000 0.72890  0.09124  0.21674  Biso   1.000  C
  C19      1.0000 0.35028  0.98119  0.98040  Biso   1.000  C
  O4       1.0000 0.01301  0.86505  0.27194  Biso   1.000  O
  H13      1.0000 0.51858  0.22554  0.05170  Biso   1.000  H
  C20      1.0000 0.37484  0.11725  0.90250  Biso   1.000  C
  N11      1.0000 0.28382  0.15977  0.86937  Biso   1.000  N
  O5       1.0000 0.21530  0.28598  0.94775  Biso   1.000  O
  H14      1.0000 0.05011  0.29545  0.63023  Biso   1.000  H
  H15      1.0000 0.04410  0.33632  0.53505  Biso   1.000  H
  C21      1.0000 0.88781  0.20222  0.50302  Biso   1.000  C
  C22      1.0000 0.77660  0.85411  0.23968  Biso   1.000  C
  H16      1.0000 0.76066  0.04063  0.40154  Biso   1.000  H
  H17      1.0000 0.87571  0.04004  0.47953  Biso   1.000  H
  H18      1.0000 0.68549  0.07099  0.26071  Biso   1.000  H
  H19      1.0000 0.72324  0.15902  0.20830  Biso   1.000  H
  N12      1.0000 0.67144  0.00064  0.11383  Biso   1.000  N
  N13      1.0000 0.32878  0.99947  0.88625  Biso   1.000  N
  O6       1.0000 0.32442  0.88992  0.98980  Biso   1.000  O
  H20      1.0000 0.43523  0.13658  0.87168  Biso   1.000  H
  C23      1.0000 0.22350  0.14597  0.76032  Biso   1.000  C
  H21      1.0000 0.85240  0.23747  0.45905  Biso   1.000  H
  H22      1.0000 0.85695  0.20532  0.55894  Biso   1.000  H
  H23      1.0000 0.72268  0.85721  0.27648  Biso   1.000  H
  H24      1.0000 0.79274  0.78803  0.23928  Biso   1.000  H
  N14      1.0000 0.71632  0.84034  0.13071  Biso   1.000  N
  C24      1.0000 0.62530  0.88286  0.09758  Biso   1.000  C
  C25      1.0000 0.64986  0.01892  0.01967  Biso   1.000  C
  C26      1.0000 0.27124  0.90887  0.78334  Biso   1.000  C
  H25      1.0000 0.27735  0.14287  0.72352  Biso   1.000  H
  H26      1.0000 0.20740  0.21208  0.76079  Biso   1.000  H
  N15      1.0000 0.11127  0.04566  0.70217  Biso   1.000  N
  C27      1.0000 0.71889  0.76409  0.04668  Biso   1.000  C
  C28      1.0000 0.56841  0.82170  0.97451  Biso   1.000  C
  H27      1.0000 0.56491  0.86353  0.12840  Biso   1.000  H
  N16      1.0000 0.59163  0.91385  0.93859  Biso   1.000  N
  O7       1.0000 0.67580  0.11019  0.01028  Biso   1.000  O
  H28      1.0000 0.31465  0.92912  0.73937  Biso   1.000  H
  H29      1.0000 0.27698  0.84109  0.79178  Biso   1.000  H
  N17      1.0000 0.14489  0.88340  0.72845  Biso   1.000  N
  C29      1.0000 0.09998  0.93086  0.65175  Biso   1.000  C
  C30      1.0000 0.00327  0.04966  0.69396  Biso   1.000  C
  N18      1.0000 0.63502  0.75319  0.95460  Biso   1.000  N
  O8       1.0000 0.78476  0.71413  0.05233  Biso   1.000  O
  H30      1.0000 0.48156  0.77458  0.94838  Biso   1.000  H
  C31      1.0000 0.55382  0.89949  0.82659  Biso   1.000  C
  C32      1.0000 0.05488  0.79429  0.72957  Biso   1.000  C
  C33      1.0000 0.95930  0.85739  0.60332  Biso   1.000  C
  C34      1.0000 0.15196  0.92200  0.56532  Biso   1.000  C
  N19      1.0000 0.91363  0.94262  0.63685  Biso   1.000  N
  O9       1.0000 0.98701  0.13503  0.72806  Biso   1.000  O
  C35      1.0000 0.59660  0.65972  0.85566  Biso   1.000  C
  H31      1.0000 0.55470  0.97016  0.82086  Biso   1.000  H
  H32      1.0000 0.47139  0.84199  0.78796  Biso   1.000  H
  N20      1.0000 0.63103  0.86638  0.77673  Biso   1.000  N
  N21      1.0000 0.94679  0.77913  0.65812  Biso   1.000  N
  O10      1.0000 0.06879  0.73809  0.78278  Biso   1.000  O
  C36      1.0000 0.90818  0.79851  0.48240  Biso   1.000  C
  C37      1.0000 0.11233  0.79789  0.49706  Biso   1.000  C
  H33      1.0000 0.23956  0.95948  0.59854  Biso   1.000  H
  H34      1.0000 0.12444  0.96007  0.52055  Biso   1.000  H
  C38      1.0000 0.78787  0.92241  0.60714  Biso   1.000  C
  H35      1.0000 0.50906  0.62633  0.82149  Biso   1.000  H
  H36      1.0000 0.62042  0.60196  0.87144  Biso   1.000  H
  N22      1.0000 0.64632  0.69278  0.78302  Biso   1.000  N
  C39      1.0000 0.70214  0.93909  0.74462  Biso   1.000  C
  C40      1.0000 0.60221  0.74903  0.71802  Biso   1.000  C
  C41      1.0000 0.83533  0.68338  0.63494  Biso   1.000  C
  H37      1.0000 0.82346  0.74811  0.45731  Biso   1.000  H
  H38      1.0000 0.91354  0.85517  0.45062  Biso   1.000  H
  C42      1.0000 0.97652  0.73034  0.44671  Biso   1.000  C
  H39      1.0000 0.14782  0.76264  0.54103  Biso   1.000  H
  H40      1.0000 0.14327  0.79479  0.44114  Biso   1.000  H
  H41      1.0000 0.74344  0.87000  0.53354  Biso   1.000  H
  H42      1.0000 0.78129  0.99331  0.61152  Biso   1.000  H
  N23      1.0000 0.73241  0.87708  0.67174  Biso   1.000  N
  C43      1.0000 0.73674  0.66975  0.76406  Biso   1.000  C
  O11      1.0000 0.73587  0.04194  0.77744  Biso   1.000  O
  H43      1.0000 0.51574  0.70596  0.67405  Biso   1.000  H
  C44      1.0000 0.67795  0.75709  0.64904  Biso   1.000  C
  H44      1.0000 0.85561  0.62540  0.65406  Biso   1.000  H
  H45      1.0000 0.78766  0.65127  0.55887  Biso   1.000  H
  N24      1.0000 0.76315  0.71325  0.69062  Biso   1.000  N
  H46      1.0000 0.95011  0.70466  0.36985  Biso   1.000  H
  H47      1.0000 0.95612  0.66379  0.46503  Biso   1.000  H
  O12      1.0000 0.79006  0.61849  0.80476  Biso   1.000  O
  H48      1.0000 0.62791  0.71282  0.57321  Biso   1.000  H
  Ne1      1.0000 0.00009  0.00005  0.00003  Biso   1.000  Ne
  He1      1.0000 0.04316  0.76490  0.00822  Biso   1.000  He
  He2      1.0000 0.96470  0.20657  0.99540  Biso   1.000  He
  Ar1      1.0000 0.00010  0.00006  0.00005  Biso   1.000  Ar
