data_image0
_cell_length_a       14.686
_cell_length_b       20.098
_cell_length_c       14.503
_cell_angle_alpha    90
_cell_angle_beta     111.06
_cell_angle_gamma    90

_symmetry_space_group_name_H-M    "P 1"
_symmetry_int_tables_number       1

loop_
  _symmetry_equiv_pos_as_xyz
  'x, y, z'

loop_
  _atom_site_label
  _atom_site_occupancy
  _atom_site_fract_x
  _atom_site_fract_y
  _atom_site_fract_z
  _atom_site_thermal_displace_type
  _atom_site_B_iso_or_equiv
  _atom_site_type_symbol
  O1       1.0000 0.03344  0.35800  0.27634  Biso   1.000  O
  C1       1.0000 0.97287  0.33700  0.19927  Biso   1.000  C
  N1       1.0000 0.99138  0.29918  0.12960  Biso   1.000  N
  N2       1.0000 0.87298  0.34541  0.16898  Biso   1.000  N
  C2       1.0000 0.08648  0.27540  0.14142  Biso   1.000  C
  C3       1.0000 0.90200  0.27490  0.05290  Biso   1.000  C
  C4       1.0000 0.82012  0.30849  0.07987  Biso   1.000  C
  C5       1.0000 0.82524  0.38292  0.22402  Biso   1.000  C
  H1       1.0000 0.08393  0.22739  0.13329  Biso   1.000  H
  H2       1.0000 0.13045  0.28510  0.20814  Biso   1.000  H
  N3       1.0000 0.12630  0.30491  0.07078  Biso   1.000  N
  N4       1.0000 0.88556  0.29829  0.95515  Biso   1.000  N
  H3       1.0000 0.89749  0.22619  0.05460  Biso   1.000  H
  N5       1.0000 0.77028  0.34954  0.99431  Biso   1.000  N
  H4       1.0000 0.77614  0.27560  0.09140  Biso   1.000  H
  H5       1.0000 0.87090  0.38899  0.29089  Biso   1.000  H
  H6       1.0000 0.77091  0.35680  0.22750  Biso   1.000  H
  N6       1.0000 0.78883  0.44781  0.18243  Biso   1.000  N
  C6       1.0000 0.20300  0.34740  0.10078  Biso   1.000  C
  C7       1.0000 0.11290  0.27500  0.97717  Biso   1.000  C
  C8       1.0000 0.92784  0.26590  0.88954  Biso   1.000  C
  C9       1.0000 0.80540  0.33770  0.91924  Biso   1.000  C
  C10      1.0000 0.67368  0.37541  0.97577  Biso   1.000  C
  C11      1.0000 0.68935  0.46129  0.11393  Biso   1.000  C
  C12      1.0000 0.84148  0.50398  0.21952  Biso   1.000  C
  N7       1.0000 0.23783  0.35486  0.02453  Biso   1.000  N
  O2       1.0000 0.23599  0.37501  0.18110  Biso   1.000  O
  C13      1.0000 0.19147  0.30849  0.94473  Biso   1.000  C
  H7       1.0000 0.12220  0.22669  0.98323  Biso   1.000  H
  N8       1.0000 0.02139  0.29242  0.89641  Biso   1.000  N
  H8       1.0000 0.93505  0.21878  0.90506  Biso   1.000  H
  H9       1.0000 0.88274  0.27038  0.82193  Biso   1.000  H
  O3       1.0000 0.77007  0.35969  0.83523  Biso   1.000  O
  H10      1.0000 0.63724  0.37461  0.90513  Biso   1.000  H
  H11      1.0000 0.64030  0.34640  0.00680  Biso   1.000  H
  N9       1.0000 0.67309  0.44308  0.01190  Biso   1.000  N
  C14      1.0000 0.68729  0.54100  0.10891  Biso   1.000  C
  C15      1.0000 0.61247  0.42920  0.14807  Biso   1.000  C
  N10      1.0000 0.78680  0.55777  0.17422  Biso   1.000  N
  O4       1.0000 0.92377  0.50582  0.28158  Biso   1.000  O
  C16      1.0000 0.33342  0.38258  0.04042  Biso   1.000  C
  H12      1.0000 0.23815  0.27600  0.93734  Biso   1.000  H
  N11      1.0000 0.13468  0.33998  0.84994  Biso   1.000  N
  C17      1.0000 0.03678  0.32809  0.82216  Biso   1.000  C
  C18      1.0000 0.66511  0.49721  0.95256  Biso   1.000  C
  N12      1.0000 0.66999  0.55304  0.00488  Biso   1.000  N
  C19      1.0000 0.60999  0.57359  0.14031  Biso   1.000  C
  H13      1.0000 0.62425  0.44179  0.21523  Biso   1.000  H
  H14      1.0000 0.61631  0.38168  0.14393  Biso   1.000  H
  H15      1.0000 0.54880  0.44402  0.10662  Biso   1.000  H
  C20      1.0000 0.81970  0.62489  0.20917  Biso   1.000  C
  H16      1.0000 0.36912  0.35212  0.01419  Biso   1.000  H
  H17      1.0000 0.36899  0.38661  0.11090  Biso   1.000  H
  N13      1.0000 0.33008  0.44696  0.99512  Biso   1.000  N
  C21      1.0000 0.18037  0.37511  0.79083  Biso   1.000  C
  O5       1.0000 0.97519  0.34421  0.74376  Biso   1.000  O
  O6       1.0000 0.65190  0.49393  0.86316  Biso   1.000  O
  C22      1.0000 0.66667  0.61742  0.95966  Biso   1.000  C
  H18      1.0000 0.62349  0.56468  0.20888  Biso   1.000  H
  H19      1.0000 0.54708  0.55598  0.10159  Biso   1.000  H
  H20      1.0000 0.61052  0.62081  0.13011  Biso   1.000  H
  H21      1.0000 0.76423  0.65061  0.21021  Biso   1.000  H
  H22      1.0000 0.86584  0.62210  0.27663  Biso   1.000  H
  N14      1.0000 0.86541  0.66002  0.15014  Biso   1.000  N
  C23      1.0000 0.33499  0.50279  0.04751  Biso   1.000  C
  C24      1.0000 0.31280  0.45900  0.89117  Biso   1.000  C
  H23      1.0000 0.23586  0.34939  0.78987  Biso   1.000  H
  H24      1.0000 0.13426  0.37790  0.72344  Biso   1.000  H
  N15      1.0000 0.21329  0.44223  0.82585  Biso   1.000  N
  H25      1.0000 0.63095  0.64788  0.98581  Biso   1.000  H
  H26      1.0000 0.63108  0.61339  0.88910  Biso   1.000  H
  N16      1.0000 0.76226  0.64514  0.97554  Biso   1.000  N
  C25      1.0000 0.80860  0.69151  0.05527  Biso   1.000  C
  C26      1.0000 0.96331  0.67191  0.17792  Biso   1.000  C
  O7       1.0000 0.34819  0.50607  0.13691  Biso   1.000  O
  N17      1.0000 0.32698  0.55692  0.98810  Biso   1.000  N
  C27      1.0000 0.31075  0.53871  0.88614  Biso   1.000  C
  C28      1.0000 0.39011  0.42641  0.85976  Biso   1.000  C
  C29      1.0000 0.15854  0.49602  0.78056  Biso   1.000  C
  C30      1.0000 0.79707  0.65260  0.89922  Biso   1.000  C
  H27      1.0000 0.76194  0.72400  0.06273  Biso   1.000  H
  C31      1.0000 0.88720  0.72500  0.02290  Biso   1.000  C
  O8       1.0000 0.02491  0.65579  0.25631  Biso   1.000  O
  N18      1.0000 0.97868  0.70758  0.10359  Biso   1.000  N
  C32      1.0000 0.32641  0.62459  0.02431  Biso   1.000  C
  C33      1.0000 0.38753  0.57080  0.85193  Biso   1.000  C
  N19      1.0000 0.21127  0.55219  0.81765  Biso   1.000  N
  H28      1.0000 0.37658  0.43532  0.79112  Biso   1.000  H
  H29      1.0000 0.45298  0.44402  0.89841  Biso   1.000  H
  H30      1.0000 0.38957  0.37919  0.86996  Biso   1.000  H
  O9       1.0000 0.07623  0.49418  0.71842  Biso   1.000  O
  N20      1.0000 0.87376  0.69509  0.92922  Biso   1.000  N
  O10      1.0000 0.76407  0.62499  0.81890  Biso   1.000  O
  H31      1.0000 0.87787  0.77331  0.01677  Biso   1.000  H
  C34      1.0000 0.07225  0.73410  0.11053  Biso   1.000  C
  H32      1.0000 0.36282  0.62539  0.09487  Biso   1.000  H
  N21      1.0000 0.22979  0.65046  0.00569  Biso   1.000  N
  H33      1.0000 0.35977  0.65360  0.99320  Biso   1.000  H
  H34      1.0000 0.37585  0.55821  0.78484  Biso   1.000  H
  H35      1.0000 0.38379  0.61832  0.85614  Biso   1.000  H
  H36      1.0000 0.45130  0.55598  0.89346  Biso   1.000  H
  C35      1.0000 0.17485  0.61708  0.77605  Biso   1.000  C
  C36      1.0000 0.91355  0.72460  0.85866  Biso   1.000  C
  N22      1.0000 0.11454  0.70171  0.04492  Biso   1.000  N
  H37      1.0000 0.06504  0.78122  0.09502  Biso   1.000  H
  H38      1.0000 0.11732  0.72962  0.17807  Biso   1.000  H
  C37      1.0000 0.19469  0.66230  0.08083  Biso   1.000  C
  C38      1.0000 0.17995  0.69151  0.92013  Biso   1.000  C
  H39      1.0000 0.12917  0.61101  0.70911  Biso   1.000  H
  H40      1.0000 0.22916  0.64320  0.77250  Biso   1.000  H
  N23      1.0000 0.12708  0.65459  0.83102  Biso   1.000  N
  N24      1.0000 0.00869  0.70082  0.87040  Biso   1.000  N
  H41      1.0000 0.91613  0.77261  0.86671  Biso   1.000  H
  H42      1.0000 0.86965  0.71490  0.79194  Biso   1.000  H
  C39      1.0000 0.09807  0.72510  0.94710  Biso   1.000  C
  O11      1.0000 0.22999  0.64031  0.16477  Biso   1.000  O
  H43      1.0000 0.22393  0.72440  0.90860  Biso   1.000  H
  C40      1.0000 0.02713  0.66300  0.80073  Biso   1.000  C
  H44      1.0000 0.10258  0.77381  0.94540  Biso   1.000  H
  O12      1.0000 0.96665  0.64200  0.72374  Biso   1.000  O
  C41      1.0000 0.19146  0.19151  0.44472  Biso   1.000  C
  N25      1.0000 0.13460  0.16002  0.34993  Biso   1.000  N
  H45      1.0000 0.23813  0.22400  0.43733  Biso   1.000  H
  C42      1.0000 0.11279  0.22500  0.47709  Biso   1.000  C
  N26      1.0000 0.23782  0.14514  0.52452  Biso   1.000  N
  C43      1.0000 0.18028  0.12489  0.29082  Biso   1.000  C
  C44      1.0000 0.03667  0.17191  0.32207  Biso   1.000  C
  N27      1.0000 0.02130  0.20758  0.39640  Biso   1.000  N
  H46      1.0000 0.12211  0.27331  0.48322  Biso   1.000  H
  N28      1.0000 0.12629  0.19509  0.57077  Biso   1.000  N
  C45      1.0000 0.33340  0.11742  0.54041  Biso   1.000  C
  C46      1.0000 0.20298  0.15260  0.60077  Biso   1.000  C
  H47      1.0000 0.23582  0.15061  0.28978  Biso   1.000  H
  H48      1.0000 0.13424  0.12210  0.22343  Biso   1.000  H
  N29      1.0000 0.21321  0.05777  0.32584  Biso   1.000  N
  O13      1.0000 0.97507  0.15579  0.24368  Biso   1.000  O
  C47      1.0000 0.92783  0.23410  0.38953  Biso   1.000  C
  C48      1.0000 0.08653  0.22460  0.64141  Biso   1.000  C
  N30      1.0000 0.33000  0.05304  0.49511  Biso   1.000  N
  H49      1.0000 0.36910  0.14788  0.51418  Biso   1.000  H
  H50      1.0000 0.36904  0.11339  0.61089  Biso   1.000  H
  O14      1.0000 0.23604  0.12499  0.68109  Biso   1.000  O
  C49      1.0000 0.31269  0.04100  0.39108  Biso   1.000  C
  C50      1.0000 0.15850  0.00398  0.28047  Biso   1.000  C
  H51      1.0000 0.93501  0.28122  0.40497  Biso   1.000  H
  H52      1.0000 0.88273  0.22962  0.32192  Biso   1.000  H
  N31      1.0000 0.88554  0.20171  0.45514  Biso   1.000  N
  H53      1.0000 0.08392  0.27261  0.63328  Biso   1.000  H
  H54      1.0000 0.13043  0.21490  0.70813  Biso   1.000  H
  N32      1.0000 0.99143  0.20082  0.62959  Biso   1.000  N
  C51      1.0000 0.33504  0.99721  0.54750  Biso   1.000  C
  C52      1.0000 0.39000  0.07359  0.35968  Biso   1.000  C
  C53      1.0000 0.31073  0.96129  0.38613  Biso   1.000  C
  O15      1.0000 0.07621  0.00582  0.21841  Biso   1.000  O
  N33      1.0000 0.21125  0.94781  0.31764  Biso   1.000  N
  C54      1.0000 0.80532  0.16230  0.41923  Biso   1.000  C
  C55      1.0000 0.90205  0.22510  0.55289  Biso   1.000  C
  C56      1.0000 0.97294  0.16300  0.69934  Biso   1.000  C
  N34      1.0000 0.32689  0.94308  0.48809  Biso   1.000  N
  O16      1.0000 0.34824  0.99393  0.63690  Biso   1.000  O
  H55      1.0000 0.37649  0.06468  0.29111  Biso   1.000  H
  H56      1.0000 0.45290  0.05598  0.39840  Biso   1.000  H
  H57      1.0000 0.38953  0.12081  0.36988  Biso   1.000  H
  C57      1.0000 0.38752  0.92920  0.35192  Biso   1.000  C
  C58      1.0000 0.17483  0.88292  0.27604  Biso   1.000  C
  N35      1.0000 0.77020  0.15046  0.49430  Biso   1.000  N
  O17      1.0000 0.76999  0.14031  0.33522  Biso   1.000  O
  H58      1.0000 0.89754  0.27381  0.55459  Biso   1.000  H
  C59      1.0000 0.82013  0.19151  0.57994  Biso   1.000  C
  O18      1.0000 0.03343  0.14200  0.77633  Biso   1.000  O
  N36      1.0000 0.87306  0.15459  0.66904  Biso   1.000  N
  C60      1.0000 0.32639  0.87541  0.52430  Biso   1.000  C
  H59      1.0000 0.37583  0.94179  0.28483  Biso   1.000  H
  H60      1.0000 0.38370  0.88168  0.35613  Biso   1.000  H
  H61      1.0000 0.45118  0.94402  0.39337  Biso   1.000  H
  H62      1.0000 0.12908  0.88899  0.20910  Biso   1.000  H
  H63      1.0000 0.22914  0.85680  0.27249  Biso   1.000  H
  N37      1.0000 0.12700  0.84541  0.33101  Biso   1.000  N
  C61      1.0000 0.67364  0.12459  0.47568  Biso   1.000  C
  H64      1.0000 0.77612  0.22440  0.59139  Biso   1.000  H
  C62      1.0000 0.82523  0.11708  0.72401  Biso   1.000  C
  H65      1.0000 0.35968  0.84640  0.49319  Biso   1.000  H
  H66      1.0000 0.36283  0.87461  0.59493  Biso   1.000  H
  N38      1.0000 0.22984  0.84954  0.50568  Biso   1.000  N
  C63      1.0000 0.17993  0.80849  0.42012  Biso   1.000  C
  C64      1.0000 0.02712  0.83700  0.30072  Biso   1.000  C
  H67      1.0000 0.64028  0.15360  0.50679  Biso   1.000  H
  H68      1.0000 0.63723  0.12539  0.40512  Biso   1.000  H
  N39      1.0000 0.67314  0.05692  0.51189  Biso   1.000  N
  H69      1.0000 0.87095  0.11101  0.79088  Biso   1.000  H
  H70      1.0000 0.77089  0.14320  0.72749  Biso   1.000  H
  N40      1.0000 0.78881  0.05219  0.68242  Biso   1.000  N
  C65      1.0000 0.19474  0.83770  0.58082  Biso   1.000  C
  C66      1.0000 0.09799  0.77490  0.44709  Biso   1.000  C
  H71      1.0000 0.22391  0.77560  0.40859  Biso   1.000  H
  O19      1.0000 0.96663  0.85800  0.22373  Biso   1.000  O
  N41      1.0000 0.00860  0.79918  0.37039  Biso   1.000  N
  C67      1.0000 0.66500  0.00279  0.45248  Biso   1.000  C
  C68      1.0000 0.68933  0.03871  0.61392  Biso   1.000  C
  C69      1.0000 0.84153  0.99602  0.71951  Biso   1.000  C
  N42      1.0000 0.11452  0.79829  0.54491  Biso   1.000  N
  O20      1.0000 0.23000  0.85969  0.66483  Biso   1.000  O
  H72      1.0000 0.10249  0.72619  0.44539  Biso   1.000  H
  C70      1.0000 0.91350  0.77540  0.35857  Biso   1.000  C
  N43      1.0000 0.67006  0.94696  0.50494  Biso   1.000  N
  O21      1.0000 0.65179  0.00607  0.36308  Biso   1.000  O
  C71      1.0000 0.68734  0.95900  0.60890  Biso   1.000  C
  C72      1.0000 0.61254  0.07080  0.64813  Biso   1.000  C
  N44      1.0000 0.78685  0.94223  0.67421  Biso   1.000  N
  O22      1.0000 0.92385  0.99418  0.78165  Biso   1.000  O
  C73      1.0000 0.07223  0.76590  0.61052  Biso   1.000  C
  H73      1.0000 0.91612  0.72739  0.36670  Biso   1.000  H
  H74      1.0000 0.86963  0.78510  0.29193  Biso   1.000  H
  N45      1.0000 0.87375  0.80491  0.42921  Biso   1.000  N
  C74      1.0000 0.66663  0.88258  0.45957  Biso   1.000  C
  C75      1.0000 0.61004  0.92641  0.64030  Biso   1.000  C
  H75      1.0000 0.62423  0.05821  0.71522  Biso   1.000  H
  H76      1.0000 0.61636  0.11832  0.64392  Biso   1.000  H
  H77      1.0000 0.54885  0.05598  0.60661  Biso   1.000  H
  C76      1.0000 0.81971  0.87511  0.70924  Biso   1.000  C
  N46      1.0000 0.97873  0.79242  0.60358  Biso   1.000  N
  H78      1.0000 0.06502  0.71878  0.59501  Biso   1.000  H
  H79      1.0000 0.11733  0.77038  0.67813  Biso   1.000  H
  C77      1.0000 0.79698  0.84740  0.39921  Biso   1.000  C
  C78      1.0000 0.88725  0.77500  0.52289  Biso   1.000  C
  N47      1.0000 0.76224  0.85486  0.47553  Biso   1.000  N
  H80      1.0000 0.63093  0.85212  0.48580  Biso   1.000  H
  H81      1.0000 0.63099  0.88661  0.38909  Biso   1.000  H
  H82      1.0000 0.62357  0.93532  0.70894  Biso   1.000  H
  H83      1.0000 0.54713  0.94402  0.60158  Biso   1.000  H
  H84      1.0000 0.61050  0.87919  0.63010  Biso   1.000  H
  N48      1.0000 0.86546  0.83998  0.65013  Biso   1.000  N
  H85      1.0000 0.76421  0.84939  0.71020  Biso   1.000  H
  H86      1.0000 0.86582  0.87790  0.77662  Biso   1.000  H
  C79      1.0000 0.96330  0.82809  0.67791  Biso   1.000  C
  O23      1.0000 0.76399  0.87501  0.31889  Biso   1.000  O
  C80      1.0000 0.80860  0.80849  0.55533  Biso   1.000  C
  H87      1.0000 0.87795  0.72669  0.51684  Biso   1.000  H
  O24      1.0000 0.02496  0.84421  0.75630  Biso   1.000  O
  H88      1.0000 0.76193  0.77600  0.56272  Biso   1.000  H
