data_image0
_cell_length_a       11.848
_cell_length_b       12.954
_cell_length_c       23.084
_cell_angle_alpha    103.45
_cell_angle_beta     91.13
_cell_angle_gamma    93.74

_symmetry_space_group_name_H-M    "P 1"
_symmetry_int_tables_number       1

loop_
  _symmetry_equiv_pos_as_xyz
  'x, y, z'

loop_
  _atom_site_label
  _atom_site_occupancy
  _atom_site_fract_x
  _atom_site_fract_y
  _atom_site_fract_z
  _atom_site_thermal_displace_type
  _atom_site_B_iso_or_equiv
  _atom_site_type_symbol
  C1       1.0000 0.31038  0.44463  0.41669  Biso   1.000  C
  N1       1.0000 0.31310  0.46704  0.35803  Biso   1.000  N
  C2       1.0000 0.38583  0.35025  0.41152  Biso   1.000  C
  H1       1.0000 0.34051  0.50705  0.44789  Biso   1.000  H
  N2       1.0000 0.20186  0.40235  0.43193  Biso   1.000  N
  C3       1.0000 0.38329  0.40373  0.32100  Biso   1.000  C
  C4       1.0000 0.26784  0.56029  0.34480  Biso   1.000  C
  N3       1.0000 0.41883  0.33037  0.34961  Biso   1.000  N
  H2       1.0000 0.45245  0.36870  0.43951  Biso   1.000  H
  N4       1.0000 0.31055  0.26817  0.42574  Biso   1.000  N
  C5       1.0000 0.20701  0.30236  0.44201  Biso   1.000  C
  C6       1.0000 0.10790  0.46729  0.45141  Biso   1.000  C
  O1       1.0000 0.40929  0.41397  0.27135  Biso   1.000  O
  H3       1.0000 0.30911  0.57909  0.31190  Biso   1.000  H
  H4       1.0000 0.28053  0.62000  0.37970  Biso   1.000  H
  N5       1.0000 0.14667  0.54584  0.32857  Biso   1.000  N
  C7       1.0000 0.51035  0.26323  0.32782  Biso   1.000  C
  C8       1.0000 0.35103  0.17339  0.44049  Biso   1.000  C
  O2       1.0000 0.13126  0.25419  0.46220  Biso   1.000  O
  H5       1.0000 0.06232  0.43410  0.47802  Biso   1.000  H
  H6       1.0000 0.13834  0.53729  0.47450  Biso   1.000  H
  N6       1.0000 0.03469  0.48217  0.40323  Biso   1.000  N
  C9       1.0000 0.05269  0.56365  0.36909  Biso   1.000  C
  C10      1.0000 0.11259  0.52106  0.26938  Biso   1.000  C
  H7       1.0000 0.54174  0.28429  0.29292  Biso   1.000  H
  H8       1.0000 0.57063  0.27515  0.35870  Biso   1.000  H
  N7       1.0000 0.47399  0.15042  0.31132  Biso   1.000  N
  N8       1.0000 0.37053  0.09023  0.38839  Biso   1.000  N
  H9       1.0000 0.42189  0.19300  0.46442  Biso   1.000  H
  H10      1.0000 0.29538  0.14555  0.46491  Biso   1.000  H
  C11      1.0000 0.93994  0.41773  0.38549  Biso   1.000  C
  C12      1.0000 0.06551  0.67502  0.41023  Biso   1.000  C
  C13      1.0000 0.94537  0.54107  0.32421  Biso   1.000  C
  O3       1.0000 0.17507  0.50756  0.22713  Biso   1.000  O
  N9       1.0000 0.99723  0.51725  0.26600  Biso   1.000  N
  C14      1.0000 0.47161  0.08549  0.35451  Biso   1.000  C
  C15      1.0000 0.48346  0.09150  0.25410  Biso   1.000  C
  C16      1.0000 0.30261  0.99638  0.37430  Biso   1.000  C
  N10      1.0000 0.88892  0.44489  0.33820  Biso   1.000  N
  O4       1.0000 0.90340  0.34688  0.40938  Biso   1.000  O
  H11      1.0000 0.00181  0.68508  0.43612  Biso   1.000  H
  H12      1.0000 0.06777  0.72779  0.38643  Biso   1.000  H
  H13      1.0000 0.13518  0.68285  0.43412  Biso   1.000  H
  C17      1.0000 0.86777  0.63078  0.33022  Biso   1.000  C
  C18      1.0000 0.93806  0.48433  0.20841  Biso   1.000  C
  H14      1.0000 0.54086  0.09927  0.38059  Biso   1.000  H
  C19      1.0000 0.46138  0.97040  0.31502  Biso   1.000  C
  O5       1.0000 0.50212  0.12722  0.21006  Biso   1.000  O
  N11      1.0000 0.47229  0.98649  0.25494  Biso   1.000  N
  N12      1.0000 0.35187  0.92967  0.32804  Biso   1.000  N
  O6       1.0000 0.21652  0.97588  0.39926  Biso   1.000  O
  C20      1.0000 0.77860  0.39523  0.31382  Biso   1.000  C
  H15      1.0000 0.90792  0.69152  0.32011  Biso   1.000  H
  H16      1.0000 0.84349  0.65075  0.37092  Biso   1.000  H
  H17      1.0000 0.80220  0.60755  0.30339  Biso   1.000  H
  H18      1.0000 0.98666  0.50390  0.17828  Biso   1.000  H
  H19      1.0000 0.86983  0.52347  0.20953  Biso   1.000  H
  N13      1.0000 0.90574  0.37102  0.19036  Biso   1.000  N
  H20      1.0000 0.52179  0.92783  0.32532  Biso   1.000  H
  C21      1.0000 0.47666  0.90108  0.20208  Biso   1.000  C
  C22      1.0000 0.31467  0.81657  0.31012  Biso   1.000  C
  H21      1.0000 0.73939  0.36747  0.34453  Biso   1.000  H
  H22      1.0000 0.73334  0.44996  0.30393  Biso   1.000  H
  N14      1.0000 0.78410  0.31007  0.26136  Biso   1.000  N
  C23      1.0000 0.79540  0.32683  0.20159  Biso   1.000  C
  C24      1.0000 0.95724  0.30453  0.14499  Biso   1.000  C
  H23      1.0000 0.52269  0.84667  0.21162  Biso   1.000  H
  H24      1.0000 0.51487  0.92923  0.17120  Biso   1.000  H
  N15      1.0000 0.36734  0.85109  0.17819  Biso   1.000  N
  H25      1.0000 0.38112  0.77491  0.30910  Biso   1.000  H
  H26      1.0000 0.26468  0.79891  0.34021  Biso   1.000  H
  N16      1.0000 0.25561  0.78529  0.25240  Biso   1.000  N
  C25      1.0000 0.76921  0.20386  0.26212  Biso   1.000  C
  H27      1.0000 0.73433  0.36847  0.19112  Biso   1.000  H
  C26      1.0000 0.78860  0.21274  0.16152  Biso   1.000  C
  O7       1.0000 0.04401  0.32606  0.12065  Biso   1.000  O
  N17      1.0000 0.89409  0.20895  0.13086  Biso   1.000  N
  C27      1.0000 0.30855  0.75982  0.19468  Biso   1.000  C
  C28      1.0000 0.31733  0.87659  0.12970  Biso   1.000  C
  C29      1.0000 0.13950  0.77949  0.24853  Biso   1.000  C
  N18      1.0000 0.78073  0.14580  0.20400  Biso   1.000  N
  O8       1.0000 0.74713  0.16817  0.30513  Biso   1.000  O
  H28      1.0000 0.72223  0.19919  0.13340  Biso   1.000  H
  C30      1.0000 0.91214  0.12722  0.07809  Biso   1.000  C
  C31      1.0000 0.20065  0.73416  0.14909  Biso   1.000  C
  C32      1.0000 0.38548  0.66940  0.19009  Biso   1.000  C
  N19      1.0000 0.21693  0.81630  0.11521  Biso   1.000  N
  O9       1.0000 0.35607  0.94357  0.10416  Biso   1.000  O
  N20      1.0000 0.10605  0.75054  0.18951  Biso   1.000  N
  O10      1.0000 0.07608  0.79291  0.29073  Biso   1.000  O
  C33      1.0000 0.74369  0.03361  0.18639  Biso   1.000  C
  H29      1.0000 0.96865  0.15497  0.05420  Biso   1.000  H
  H30      1.0000 0.84120  0.10999  0.05411  Biso   1.000  H
  N21      1.0000 0.94994  0.02993  0.09128  Biso   1.000  N
  C34      1.0000 0.19070  0.62385  0.10808  Biso   1.000  C
  H31      1.0000 0.34419  0.60919  0.20021  Biso   1.000  H
  H32      1.0000 0.45031  0.69255  0.21750  Biso   1.000  H
  H33      1.0000 0.41130  0.64840  0.14971  Biso   1.000  H
  C35      1.0000 0.14810  0.82524  0.06449  Biso   1.000  C
  C36      1.0000 0.98752  0.73946  0.17191  Biso   1.000  C
  N22      1.0000 0.83478  0.96769  0.16420  Biso   1.000  N
  H34      1.0000 0.71185  0.01123  0.22071  Biso   1.000  H
  H35      1.0000 0.68375  0.02299  0.15528  Biso   1.000  H
  C37      1.0000 0.05291  0.99242  0.07318  Biso   1.000  C
  C38      1.0000 0.87038  0.94799  0.10380  Biso   1.000  C
  H36      1.0000 0.17712  0.57118  0.13139  Biso   1.000  H
  H37      1.0000 0.26030  0.61116  0.08700  Biso   1.000  H
  H38      1.0000 0.12812  0.61863  0.07951  Biso   1.000  H
  H39      1.0000 0.19586  0.85603  0.03771  Biso   1.000  H
  H40      1.0000 0.11996  0.75361  0.04270  Biso   1.000  H
  N23      1.0000 0.05279  0.88916  0.07934  Biso   1.000  N
  H41      1.0000 0.94350  0.72250  0.20440  Biso   1.000  H
  H42      1.0000 0.97464  0.67944  0.13719  Biso   1.000  H
  N24      1.0000 0.94545  0.83319  0.15724  Biso   1.000  N
  C39      1.0000 0.87247  0.89466  0.19339  Biso   1.000  C
  O11      1.0000 0.12779  0.04029  0.05264  Biso   1.000  O
  C40      1.0000 0.94453  0.85114  0.09792  Biso   1.000  C
  H43      1.0000 0.80508  0.93183  0.07501  Biso   1.000  H
  O12      1.0000 0.84647  0.88638  0.24385  Biso   1.000  O
  H44      1.0000 0.91096  0.78810  0.06819  Biso   1.000  H
  C41      1.0000 0.61420  0.64992  0.58851  Biso   1.000  C
  C42      1.0000 0.68965  0.55552  0.58329  Biso   1.000  C
  H45      1.0000 0.54767  0.63147  0.56052  Biso   1.000  H
  N25      1.0000 0.68956  0.73200  0.57429  Biso   1.000  N
  N26      1.0000 0.58120  0.66980  0.65042  Biso   1.000  N
  H46      1.0000 0.65952  0.49311  0.55209  Biso   1.000  H
  N27      1.0000 0.79826  0.59782  0.56810  Biso   1.000  N
  N28      1.0000 0.68693  0.53313  0.64199  Biso   1.000  N
  C43      1.0000 0.79302  0.69781  0.55802  Biso   1.000  C
  C44      1.0000 0.64900  0.82677  0.55949  Biso   1.000  C
  C45      1.0000 0.61674  0.59644  0.67903  Biso   1.000  C
  C46      1.0000 0.48976  0.73694  0.67221  Biso   1.000  C
  C47      1.0000 0.89214  0.53288  0.54862  Biso   1.000  C
  C48      1.0000 0.73227  0.43988  0.65523  Biso   1.000  C
  O13      1.0000 0.86885  0.74599  0.53783  Biso   1.000  O
  H47      1.0000 0.57823  0.80717  0.53560  Biso   1.000  H
  H48      1.0000 0.70474  0.85462  0.53511  Biso   1.000  H
  N29      1.0000 0.62950  0.90994  0.61164  Biso   1.000  N
  O14      1.0000 0.59073  0.58619  0.72864  Biso   1.000  O
  H49      1.0000 0.45837  0.71588  0.70711  Biso   1.000  H
  H50      1.0000 0.42940  0.72502  0.64132  Biso   1.000  H
  N30      1.0000 0.52604  0.84975  0.68870  Biso   1.000  N
  H51      1.0000 0.93771  0.56608  0.52201  Biso   1.000  H
  H52      1.0000 0.86170  0.46288  0.52553  Biso   1.000  H
  N31      1.0000 0.96534  0.51801  0.59680  Biso   1.000  N
  H53      1.0000 0.69092  0.42108  0.68812  Biso   1.000  H
  H54      1.0000 0.71958  0.38017  0.62033  Biso   1.000  H
  N32      1.0000 0.85336  0.45433  0.67145  Biso   1.000  N
  C49      1.0000 0.52842  0.91468  0.64551  Biso   1.000  C
  C50      1.0000 0.69750  0.00380  0.62573  Biso   1.000  C
  C51      1.0000 0.51666  0.90867  0.74593  Biso   1.000  C
  C52      1.0000 0.94734  0.43651  0.63090  Biso   1.000  C
  C53      1.0000 0.06017  0.58243  0.61449  Biso   1.000  C
  C54      1.0000 0.88744  0.47909  0.73060  Biso   1.000  C
  H55      1.0000 0.45925  0.90089  0.61940  Biso   1.000  H
  C55      1.0000 0.53865  0.02977  0.68500  Biso   1.000  C
  N33      1.0000 0.64817  0.07050  0.67199  Biso   1.000  N
  O15      1.0000 0.78359  0.02429  0.60077  Biso   1.000  O
  O16      1.0000 0.49791  0.87295  0.78997  Biso   1.000  O
  N34      1.0000 0.52775  0.01368  0.74509  Biso   1.000  N
  C56      1.0000 0.93452  0.32516  0.58980  Biso   1.000  C
  C57      1.0000 0.05466  0.45910  0.67582  Biso   1.000  C
  N35      1.0000 0.11111  0.55528  0.66183  Biso   1.000  N
  O17      1.0000 0.09663  0.65327  0.59060  Biso   1.000  O
  O18      1.0000 0.82496  0.49261  0.77290  Biso   1.000  O
  N36      1.0000 0.00289  0.48292  0.73403  Biso   1.000  N
  H56      1.0000 0.47825  0.07234  0.67471  Biso   1.000  H
  C58      1.0000 0.68536  0.18360  0.68991  Biso   1.000  C
  C59      1.0000 0.52337  0.09907  0.79790  Biso   1.000  C
  H57      1.0000 0.99822  0.31509  0.56391  Biso   1.000  H
  H58      1.0000 0.93227  0.27238  0.61360  Biso   1.000  H
  H59      1.0000 0.86485  0.31732  0.56591  Biso   1.000  H
  C60      1.0000 0.13226  0.36940  0.66981  Biso   1.000  C
  C61      1.0000 0.22143  0.60494  0.68621  Biso   1.000  C
  C62      1.0000 0.06197  0.51585  0.79162  Biso   1.000  C
  H60      1.0000 0.61900  0.22526  0.69093  Biso   1.000  H
  H61      1.0000 0.73535  0.20126  0.65982  Biso   1.000  H
  N37      1.0000 0.74450  0.21488  0.74763  Biso   1.000  N
  H62      1.0000 0.47735  0.15350  0.78841  Biso   1.000  H
  H63      1.0000 0.48516  0.07094  0.82883  Biso   1.000  H
  N38      1.0000 0.63269  0.14908  0.82184  Biso   1.000  N
  H64      1.0000 0.09220  0.30865  0.67992  Biso   1.000  H
  H65      1.0000 0.15654  0.34942  0.62911  Biso   1.000  H
  H66      1.0000 0.19783  0.39262  0.69664  Biso   1.000  H
  H67      1.0000 0.26064  0.63270  0.65550  Biso   1.000  H
  H68      1.0000 0.26678  0.55021  0.69610  Biso   1.000  H
  N39      1.0000 0.21593  0.69010  0.73867  Biso   1.000  N
  H69      1.0000 0.01337  0.49626  0.82170  Biso   1.000  H
  H70      1.0000 0.13029  0.47670  0.79050  Biso   1.000  H
  N40      1.0000 0.09438  0.62915  0.80967  Biso   1.000  N
  C63      1.0000 0.86053  0.22068  0.75150  Biso   1.000  C
  C64      1.0000 0.69147  0.24026  0.80530  Biso   1.000  C
  C65      1.0000 0.68270  0.12358  0.87033  Biso   1.000  C
  C66      1.0000 0.23082  0.79631  0.73791  Biso   1.000  C
  C67      1.0000 0.20463  0.67334  0.79844  Biso   1.000  C
  C68      1.0000 0.04288  0.69564  0.85504  Biso   1.000  C
  N41      1.0000 0.89398  0.24963  0.81051  Biso   1.000  N
  O19      1.0000 0.92395  0.20727  0.70929  Biso   1.000  O
  C69      1.0000 0.79939  0.26601  0.85094  Biso   1.000  C
  C70      1.0000 0.61455  0.33077  0.80994  Biso   1.000  C
  N42      1.0000 0.78310  0.18388  0.88481  Biso   1.000  N
  O20      1.0000 0.64396  0.05658  0.89582  Biso   1.000  O
  N43      1.0000 0.21939  0.85437  0.79603  Biso   1.000  N
  O21      1.0000 0.25290  0.83200  0.69490  Biso   1.000  O
  H71      1.0000 0.26578  0.63170  0.80891  Biso   1.000  H
  C71      1.0000 0.21144  0.78744  0.83850  Biso   1.000  C
  O22      1.0000 0.95602  0.67411  0.87938  Biso   1.000  O
  N44      1.0000 0.10595  0.79122  0.86917  Biso   1.000  N
  C72      1.0000 0.01260  0.26072  0.82812  Biso   1.000  C
  C73      1.0000 0.80942  0.37630  0.89190  Biso   1.000  C
  H72      1.0000 0.65585  0.39098  0.79982  Biso   1.000  H
  H73      1.0000 0.54981  0.30762  0.78252  Biso   1.000  H
  H74      1.0000 0.58873  0.35178  0.85032  Biso   1.000  H
  C74      1.0000 0.85202  0.17493  0.93553  Biso   1.000  C
  C75      1.0000 0.25634  0.96656  0.81363  Biso   1.000  C
  H75      1.0000 0.27788  0.80099  0.86663  Biso   1.000  H
  C76      1.0000 0.08797  0.87295  0.92194  Biso   1.000  C
  H76      1.0000 0.05653  0.27767  0.79563  Biso   1.000  H
  H77      1.0000 0.02539  0.32074  0.86284  Biso   1.000  H
  N45      1.0000 0.05459  0.16698  0.84278  Biso   1.000  N
  H78      1.0000 0.82300  0.42899  0.86863  Biso   1.000  H
  H79      1.0000 0.73981  0.38901  0.91303  Biso   1.000  H
  H80      1.0000 0.87200  0.38155  0.92051  Biso   1.000  H
  H81      1.0000 0.80417  0.14414  0.96232  Biso   1.000  H
  H82      1.0000 0.88008  0.24657  0.95733  Biso   1.000  H
  N46      1.0000 0.94733  0.11101  0.92069  Biso   1.000  N
  H83      1.0000 0.28827  0.98894  0.77932  Biso   1.000  H
  H84      1.0000 0.31636  0.97716  0.84470  Biso   1.000  H
  N47      1.0000 0.16525  0.03248  0.83583  Biso   1.000  N
  H85      1.0000 0.03138  0.84520  0.94583  Biso   1.000  H
  H86      1.0000 0.15883  0.89018  0.94592  Biso   1.000  H
  N48      1.0000 0.05018  0.97022  0.90870  Biso   1.000  N
  C77      1.0000 0.12756  0.10551  0.80664  Biso   1.000  C
  C78      1.0000 0.05550  0.14903  0.90211  Biso   1.000  C
  C79      1.0000 0.94712  0.00774  0.92680  Biso   1.000  C
  C80      1.0000 0.12973  0.05219  0.89622  Biso   1.000  C
  O23      1.0000 0.15356  0.11377  0.75614  Biso   1.000  O
  H87      1.0000 0.08907  0.21199  0.93184  Biso   1.000  H
  O24      1.0000 0.87225  0.95988  0.94739  Biso   1.000  O
  H88      1.0000 0.19504  0.06834  0.92502  Biso   1.000  H
