data_image0
_cell_length_a       8.254
_cell_length_b       14.439
_cell_length_c       15.161
_cell_angle_alpha    116.78
_cell_angle_beta     90.68
_cell_angle_gamma    96.71

_symmetry_space_group_name_H-M    "P 1"
_symmetry_int_tables_number       1

loop_
  _symmetry_equiv_pos_as_xyz
  'x, y, z'

loop_
  _atom_site_label
  _atom_site_occupancy
  _atom_site_fract_x
  _atom_site_fract_y
  _atom_site_fract_z
  _atom_site_thermal_displace_type
  _atom_site_B_iso_or_equiv
  _atom_site_type_symbol
  C1       1.0000 0.67025  0.47270  0.22068  Biso   1.000  C
  N1       1.0000 0.67787  0.58330  0.24461  Biso   1.000  N
  C2       1.0000 0.83666  0.45008  0.24150  Biso   1.000  C
  H1       1.0000 0.58851  0.45614  0.26120  Biso   1.000  H
  H2       1.0000 0.63585  0.42680  0.14601  Biso   1.000  H
  C3       1.0000 0.67056  0.60610  0.17357  Biso   1.000  C
  O1       1.0000 0.94328  0.46487  0.17542  Biso   1.000  O
  H3       1.0000 0.82825  0.38190  0.23372  Biso   1.000  H
  H4       1.0000 0.86951  0.49935  0.30854  Biso   1.000  H
  C4       1.0000 0.68330  0.71437  0.18757  Biso   1.000  C
  H5       1.0000 0.65617  0.55203  0.10408  Biso   1.000  H
  C5       1.0000 0.10210  0.43892  0.18453  Biso   1.000  C
  C6       1.0000 0.73564  0.79989  0.28054  Biso   1.000  C
  C7       1.0000 0.64181  0.73308  0.10949  Biso   1.000  C
  C8       1.0000 0.20948  0.46732  0.11993  Biso   1.000  C
  H6       1.0000 0.09199  0.36469  0.16112  Biso   1.000  H
  H7       1.0000 0.14042  0.47980  0.25328  Biso   1.000  H
  C9       1.0000 0.74343  0.90128  0.29298  Biso   1.000  C
  H8       1.0000 0.76611  0.78154  0.33314  Biso   1.000  H
  C10      1.0000 0.64935  0.83403  0.12031  Biso   1.000  C
  H9       1.0000 0.60752  0.67950  0.05030  Biso   1.000  H
  N2       1.0000 0.23438  0.58069  0.15483  Biso   1.000  N
  H10      1.0000 0.30204  0.44713  0.12594  Biso   1.000  H
  H11      1.0000 0.16486  0.43013  0.05030  Biso   1.000  H
  C11      1.0000 0.79781  0.98900  0.39240  Biso   1.000  C
  C12      1.0000 0.69781  0.91836  0.21298  Biso   1.000  C
  C13      1.0000 0.60544  0.85337  0.03630  Biso   1.000  C
  C14      1.0000 0.19358  0.61448  0.09519  Biso   1.000  C
  H12      1.0000 0.81602  0.96722  0.44788  Biso   1.000  H
  N3       1.0000 0.80417  0.08392  0.41085  Biso   1.000  N
  H13      1.0000 0.70236  0.98143  0.21942  Biso   1.000  H
  H14      1.0000 0.60835  0.93038  0.04823  Biso   1.000  H
  N4       1.0000 0.56981  0.77907  0.94926  Biso   1.000  N
  C15      1.0000 0.20940  0.72550  0.11868  Biso   1.000  C
  H15      1.0000 0.15708  0.56901  0.03097  Biso   1.000  H
  C16      1.0000 0.85800  0.16152  0.51300  Biso   1.000  C
  C17      1.0000 0.53004  0.80621  0.87103  Biso   1.000  C
  C18      1.0000 0.17112  0.75238  0.04467  Biso   1.000  C
  C19      1.0000 0.26343  0.80600  0.21439  Biso   1.000  C
  H16      1.0000 0.88570  0.12599  0.54960  Biso   1.000  H
  H17      1.0000 0.77127  0.20060  0.54219  Biso   1.000  H
  C20      1.0000 0.00492  0.23516  0.51574  Biso   1.000  C
  C21      1.0000 0.64831  0.77143  0.79236  Biso   1.000  C
  H18      1.0000 0.42247  0.76724  0.84221  Biso   1.000  H
  H19      1.0000 0.52513  0.88104  0.89436  Biso   1.000  H
  H20      1.0000 0.13642  0.70255  0.98733  Biso   1.000  H
  C22      1.0000 0.18456  0.85651  0.06282  Biso   1.000  C
  C23      1.0000 0.27842  0.90877  0.23291  Biso   1.000  C
  H21      1.0000 0.28723  0.78063  0.26543  Biso   1.000  H
  H22      1.0000 0.98896  0.26290  0.46789  Biso   1.000  H
  O2       1.0000 0.14041  0.17782  0.48804  Biso   1.000  O
  H23      1.0000 0.01668  0.29012  0.58390  Biso   1.000  H
  O3       1.0000 0.80445  0.83008  0.83599  Biso   1.000  O
  H24      1.0000 0.65253  0.69453  0.77354  Biso   1.000  H
  H25      1.0000 0.61614  0.78479  0.73650  Biso   1.000  H
  C24      1.0000 0.14750  0.88733  0.98585  Biso   1.000  C
  C25      1.0000 0.23692  0.93421  0.15794  Biso   1.000  C
  C26      1.0000 0.33841  0.99364  0.33262  Biso   1.000  C
  C27      1.0000 0.28434  0.23863  0.48470  Biso   1.000  C
  C28      1.0000 0.92662  0.80796  0.76754  Biso   1.000  C
  N5       1.0000 0.12466  0.82208  0.89444  Biso   1.000  N
  H26      1.0000 0.14432  0.96308  0.00793  Biso   1.000  H
  H27      1.0000 0.24590  0.99877  0.17009  Biso   1.000  H
  H28      1.0000 0.34872  0.97273  0.38455  Biso   1.000  H
  N6       1.0000 0.36601  0.08731  0.34788  Biso   1.000  N
  C29      1.0000 0.41582  0.16730  0.44892  Biso   1.000  C
  H29      1.0000 0.30832  0.28877  0.54804  Biso   1.000  H
  H30      1.0000 0.26976  0.26824  0.43885  Biso   1.000  H
  H31      1.0000 0.92982  0.73586  0.73465  Biso   1.000  H
  H32      1.0000 0.90605  0.83229  0.72420  Biso   1.000  H
  C30      1.0000 0.08863  0.86236  0.82554  Biso   1.000  C
  H33      1.0000 0.43066  0.13400  0.49159  Biso   1.000  H
  H34      1.0000 0.52186  0.20520  0.44522  Biso   1.000  H
  H35      1.0000 0.17914  0.85120  0.77509  Biso   1.000  H
  H36      1.0000 0.08653  0.93102  0.85273  Biso   1.000  H
  C31      1.0000 0.32988  0.52732  0.77932  Biso   1.000  C
  N7       1.0000 0.32226  0.41671  0.75539  Biso   1.000  N
  C32      1.0000 0.16347  0.54994  0.75850  Biso   1.000  C
  H37      1.0000 0.41151  0.54394  0.73880  Biso   1.000  H
  H38      1.0000 0.36428  0.57321  0.85399  Biso   1.000  H
  C33      1.0000 0.32959  0.39399  0.82643  Biso   1.000  C
  O4       1.0000 0.05686  0.53521  0.82458  Biso   1.000  O
  H39      1.0000 0.17189  0.61815  0.76635  Biso   1.000  H
  H40      1.0000 0.13052  0.50077  0.69153  Biso   1.000  H
  C34      1.0000 0.31671  0.28565  0.81243  Biso   1.000  C
  H41      1.0000 0.34397  0.44806  0.89592  Biso   1.000  H
  C35      1.0000 0.89804  0.56113  0.81554  Biso   1.000  C
  C36      1.0000 0.26450  0.20016  0.71953  Biso   1.000  C
  C37      1.0000 0.35820  0.26694  0.89051  Biso   1.000  C
  C38      1.0000 0.79054  0.53273  0.88014  Biso   1.000  C
  H42      1.0000 0.90815  0.63536  0.83895  Biso   1.000  H
  H43      1.0000 0.85971  0.52021  0.74672  Biso   1.000  H
  C39      1.0000 0.25670  0.09874  0.70702  Biso   1.000  C
  H44      1.0000 0.23404  0.21858  0.66694  Biso   1.000  H
  C40      1.0000 0.35079  0.16606  0.87969  Biso   1.000  C
  H45      1.0000 0.39261  0.32052  0.94970  Biso   1.000  H
  N8       1.0000 0.76564  0.41936  0.84525  Biso   1.000  N
  H46      1.0000 0.69812  0.55299  0.87414  Biso   1.000  H
  H47      1.0000 0.83529  0.56996  0.94970  Biso   1.000  H
  C41      1.0000 0.20232  0.01102  0.60760  Biso   1.000  C
  C42      1.0000 0.30220  0.08165  0.78702  Biso   1.000  C
  C43      1.0000 0.39469  0.14664  0.96370  Biso   1.000  C
  C44      1.0000 0.80655  0.38553  0.90481  Biso   1.000  C
  H48      1.0000 0.18413  0.03286  0.55211  Biso   1.000  H
  N9       1.0000 0.19597  0.91613  0.58923  Biso   1.000  N
  H49      1.0000 0.29779  0.01869  0.78065  Biso   1.000  H
  H50      1.0000 0.39179  0.06967  0.95185  Biso   1.000  H
  N10      1.0000 0.43034  0.22105  0.05082  Biso   1.000  N
  C45      1.0000 0.79063  0.27458  0.88132  Biso   1.000  C
  H51      1.0000 0.84294  0.43108  0.96903  Biso   1.000  H
  C46      1.0000 0.14213  0.83849  0.48700  Biso   1.000  C
  C47      1.0000 0.46997  0.19380  0.12897  Biso   1.000  C
  C48      1.0000 0.82901  0.24764  0.95533  Biso   1.000  C
  C49      1.0000 0.73670  0.19402  0.78561  Biso   1.000  C
  C50      1.0000 0.99523  0.76496  0.48433  Biso   1.000  C
  H52      1.0000 0.11443  0.87402  0.45040  Biso   1.000  H
  H53      1.0000 0.22885  0.79941  0.45781  Biso   1.000  H
  C51      1.0000 0.35183  0.22862  0.20772  Biso   1.000  C
  H54      1.0000 0.57768  0.23284  0.15779  Biso   1.000  H
  H55      1.0000 0.47501  0.11901  0.10571  Biso   1.000  H
  C52      1.0000 0.81558  0.14354  0.93725  Biso   1.000  C
  H56      1.0000 0.86373  0.29754  0.01267  Biso   1.000  H
  C53      1.0000 0.72171  0.09124  0.76709  Biso   1.000  C
  H57      1.0000 0.71293  0.21949  0.73465  Biso   1.000  H
  O5       1.0000 0.85961  0.82226  0.51196  Biso   1.000  O
  H58      1.0000 0.98345  0.70989  0.41610  Biso   1.000  H
  H59      1.0000 0.01117  0.73712  0.53211  Biso   1.000  H
  O6       1.0000 0.19556  0.16993  0.16401  Biso   1.000  O
  H60      1.0000 0.34749  0.30552  0.22654  Biso   1.000  H
  H61      1.0000 0.38387  0.21522  0.26350  Biso   1.000  H
  C54      1.0000 0.76322  0.06584  0.84214  Biso   1.000  C
  C55      1.0000 0.85264  0.11272  0.01422  Biso   1.000  C
  C56      1.0000 0.66161  0.00645  0.66738  Biso   1.000  C
  C57      1.0000 0.71581  0.76145  0.51530  Biso   1.000  C
  C58      1.0000 0.07354  0.19216  0.23254  Biso   1.000  C
  H62      1.0000 0.75411  0.00124  0.82991  Biso   1.000  H
  N11      1.0000 0.87547  0.17794  0.10556  Biso   1.000  N
  H63      1.0000 0.85581  0.03697  0.99215  Biso   1.000  H
  N12      1.0000 0.63400  0.91271  0.65212  Biso   1.000  N
  H64      1.0000 0.65142  0.02732  0.61553  Biso   1.000  H
  C59      1.0000 0.58432  0.83275  0.55115  Biso   1.000  C
  H65      1.0000 0.69183  0.71135  0.45203  Biso   1.000  H
  H66      1.0000 0.73037  0.73181  0.56123  Biso   1.000  H
  C60      1.0000 0.91153  0.13776  0.17453  Biso   1.000  C
  H67      1.0000 0.07033  0.26426  0.26543  Biso   1.000  H
  H68      1.0000 0.09396  0.16772  0.27580  Biso   1.000  H
  H69      1.0000 0.56947  0.86602  0.50841  Biso   1.000  H
  H70      1.0000 0.47827  0.79481  0.55478  Biso   1.000  H
  H71      1.0000 0.82099  0.14881  0.22491  Biso   1.000  H
  H72      1.0000 0.91360  0.06899  0.14727  Biso   1.000  H
