data_image0
_cell_length_a       11.874
_cell_length_b       14.344
_cell_length_c       17.84
_cell_angle_alpha    90
_cell_angle_beta     90
_cell_angle_gamma    90

_symmetry_space_group_name_H-M    "P 1"
_symmetry_int_tables_number       1

loop_
  _symmetry_equiv_pos_as_xyz
  'x, y, z'

loop_
  _atom_site_label
  _atom_site_occupancy
  _atom_site_fract_x
  _atom_site_fract_y
  _atom_site_fract_z
  _atom_site_thermal_displace_type
  _atom_site_B_iso_or_equiv
  _atom_site_type_symbol
  C1       1.0000 0.74752  0.53639  0.55852  Biso   1.000  C
  C2       1.0000 0.67543  0.59579  0.59742  Biso   1.000  C
  C3       1.0000 0.84327  0.50077  0.59339  Biso   1.000  C
  H1       1.0000 0.72975  0.51457  0.50589  Biso   1.000  H
  C4       1.0000 0.56182  0.62361  0.56609  Biso   1.000  C
  C5       1.0000 0.70237  0.61977  0.67091  Biso   1.000  C
  C6       1.0000 0.86710  0.52287  0.66771  Biso   1.000  C
  O1       1.0000 0.90702  0.44067  0.55078  Biso   1.000  O
  C7       1.0000 0.46909  0.56595  0.60258  Biso   1.000  C
  H2       1.0000 0.56139  0.61071  0.51059  Biso   1.000  H
  H3       1.0000 0.54548  0.69186  0.57640  Biso   1.000  H
  O2       1.0000 0.62751  0.67596  0.71009  Biso   1.000  O
  C8       1.0000 0.79459  0.58268  0.70762  Biso   1.000  C
  H4       1.0000 0.93768  0.49031  0.69619  Biso   1.000  H
  C9       1.0000 0.01651  0.41627  0.57719  Biso   1.000  C
  C10      1.0000 0.48711  0.47100  0.61508  Biso   1.000  C
  C11      1.0000 0.36929  0.60541  0.62730  Biso   1.000  C
  C12      1.0000 0.65976  0.77210  0.70992  Biso   1.000  C
  C13      1.0000 0.80849  0.59816  0.79142  Biso   1.000  C
  H5       1.0000 0.01129  0.37388  0.62321  Biso   1.000  H
  H6       1.0000 0.06316  0.47518  0.58660  Biso   1.000  H
  H7       1.0000 0.05061  0.37702  0.53543  Biso   1.000  H
  C14      1.0000 0.40652  0.41767  0.65101  Biso   1.000  C
  H8       1.0000 0.56131  0.44346  0.59630  Biso   1.000  H
  C15      1.0000 0.28971  0.55326  0.66788  Biso   1.000  C
  O3       1.0000 0.35026  0.70057  0.61648  Biso   1.000  O
  H9       1.0000 0.66347  0.79769  0.65970  Biso   1.000  H
  H10      1.0000 0.73345  0.78095  0.73672  Biso   1.000  H
  H11      1.0000 0.59567  0.80096  0.73851  Biso   1.000  H
  C16      1.0000 0.71029  0.55326  0.83212  Biso   1.000  C
  H12      1.0000 0.88353  0.56985  0.81020  Biso   1.000  H
  H13      1.0000 0.80992  0.66369  0.80291  Biso   1.000  H
  O4       1.0000 0.41688  0.32299  0.66508  Biso   1.000  O
  C17      1.0000 0.30857  0.45880  0.67730  Biso   1.000  C
  C18      1.0000 0.19151  0.59816  0.70858  Biso   1.000  C
  C19      1.0000 0.27868  0.71786  0.55280  Biso   1.000  C
  C20      1.0000 0.63071  0.60541  0.87270  Biso   1.000  C
  C21      1.0000 0.69143  0.45880  0.82270  Biso   1.000  C
  C22      1.0000 0.52173  0.28033  0.64658  Biso   1.000  C
  H14      1.0000 0.25552  0.42171  0.70510  Biso   1.000  H
  C23      1.0000 0.20541  0.58268  0.79238  Biso   1.000  C
  H15      1.0000 0.11647  0.56985  0.68980  Biso   1.000  H
  H16      1.0000 0.19008  0.66369  0.69709  Biso   1.000  H
  H17      1.0000 0.20608  0.67980  0.55678  Biso   1.000  H
  H18      1.0000 0.26217  0.78486  0.55538  Biso   1.000  H
  H19      1.0000 0.31843  0.69555  0.50639  Biso   1.000  H
  C24      1.0000 0.53091  0.56595  0.89742  Biso   1.000  C
  O5       1.0000 0.64965  0.70057  0.88352  Biso   1.000  O
  C25      1.0000 0.59348  0.41767  0.84899  Biso   1.000  C
  H20      1.0000 0.74448  0.42171  0.79490  Biso   1.000  H
  H21      1.0000 0.51230  0.21228  0.66738  Biso   1.000  H
  H22      1.0000 0.58506  0.31407  0.67522  Biso   1.000  H
  H23      1.0000 0.53495  0.28416  0.59159  Biso   1.000  H
  C26      1.0000 0.29763  0.61977  0.82909  Biso   1.000  C
  C27      1.0000 0.13290  0.52287  0.83229  Biso   1.000  C
  C28      1.0000 0.43818  0.62361  0.93391  Biso   1.000  C
  C29      1.0000 0.51289  0.47100  0.88492  Biso   1.000  C
  C30      1.0000 0.72132  0.71786  0.94720  Biso   1.000  C
  O6       1.0000 0.58312  0.32299  0.83492  Biso   1.000  O
  O7       1.0000 0.37249  0.67596  0.78991  Biso   1.000  O
  C31      1.0000 0.32457  0.59579  0.90258  Biso   1.000  C
  C32      1.0000 0.15673  0.50077  0.90661  Biso   1.000  C
  H24      1.0000 0.06232  0.49031  0.80381  Biso   1.000  H
  H25      1.0000 0.43861  0.61071  0.98941  Biso   1.000  H
  H26      1.0000 0.45452  0.69186  0.92360  Biso   1.000  H
  H27      1.0000 0.43869  0.44346  0.90370  Biso   1.000  H
  H28      1.0000 0.79392  0.67980  0.94322  Biso   1.000  H
  H29      1.0000 0.73775  0.78486  0.94462  Biso   1.000  H
  H30      1.0000 0.68157  0.69555  0.99361  Biso   1.000  H
  C33      1.0000 0.47827  0.28033  0.85342  Biso   1.000  C
  C34      1.0000 0.34015  0.77210  0.79008  Biso   1.000  C
  C35      1.0000 0.25248  0.53639  0.94148  Biso   1.000  C
  O8       1.0000 0.09298  0.44067  0.94922  Biso   1.000  O
  H31      1.0000 0.48770  0.21228  0.83262  Biso   1.000  H
  H32      1.0000 0.41486  0.31407  0.82478  Biso   1.000  H
  H33      1.0000 0.46497  0.28416  0.90841  Biso   1.000  H
  H34      1.0000 0.33653  0.79769  0.84030  Biso   1.000  H
  H35      1.0000 0.26646  0.78095  0.76328  Biso   1.000  H
  H36      1.0000 0.40433  0.80096  0.76149  Biso   1.000  H
  H37      1.0000 0.27017  0.51457  0.99411  Biso   1.000  H
  C36      1.0000 0.98349  0.41627  0.92281  Biso   1.000  C
  H38      1.0000 0.98871  0.37388  0.87679  Biso   1.000  H
  H39      1.0000 0.93675  0.47518  0.91340  Biso   1.000  H
  H40      1.0000 0.94939  0.37702  0.96457  Biso   1.000  H
  C37      1.0000 0.63071  0.39459  0.37270  Biso   1.000  C
  C38      1.0000 0.53091  0.43398  0.39742  Biso   1.000  C
  O9       1.0000 0.64965  0.29936  0.38352  Biso   1.000  O
  C39      1.0000 0.71029  0.44667  0.33212  Biso   1.000  C
  C40      1.0000 0.43818  0.37639  0.43391  Biso   1.000  C
  C41      1.0000 0.51289  0.52900  0.38492  Biso   1.000  C
  C42      1.0000 0.72132  0.28207  0.44720  Biso   1.000  C
  C43      1.0000 0.80849  0.40177  0.29142  Biso   1.000  C
  C44      1.0000 0.69143  0.54120  0.32270  Biso   1.000  C
  C45      1.0000 0.32457  0.40421  0.40258  Biso   1.000  C
  H41      1.0000 0.43861  0.38929  0.48941  Biso   1.000  H
  H42      1.0000 0.45452  0.30807  0.42360  Biso   1.000  H
  C46      1.0000 0.59348  0.58226  0.34899  Biso   1.000  C
  H43      1.0000 0.43869  0.55647  0.40370  Biso   1.000  H
  H44      1.0000 0.79392  0.32020  0.44322  Biso   1.000  H
  H45      1.0000 0.73775  0.21507  0.44462  Biso   1.000  H
  H46      1.0000 0.68157  0.30438  0.49361  Biso   1.000  H
  C47      1.0000 0.79459  0.41732  0.20762  Biso   1.000  C
  H47      1.0000 0.88353  0.43008  0.31020  Biso   1.000  H
  H48      1.0000 0.80992  0.33631  0.30291  Biso   1.000  H
  H49      1.0000 0.74448  0.57829  0.29490  Biso   1.000  H
  C48      1.0000 0.29763  0.38016  0.32909  Biso   1.000  C
  C49      1.0000 0.25248  0.46361  0.44148  Biso   1.000  C
  O10      1.0000 0.58312  0.67701  0.33492  Biso   1.000  O
  C50      1.0000 0.70237  0.38016  0.17091  Biso   1.000  C
  C51      1.0000 0.86710  0.47706  0.16771  Biso   1.000  C
  O11      1.0000 0.37249  0.32397  0.28991  Biso   1.000  O
  C52      1.0000 0.20541  0.41732  0.29238  Biso   1.000  C
  C53      1.0000 0.15673  0.49916  0.40661  Biso   1.000  C
  H50      1.0000 0.27017  0.48536  0.49411  Biso   1.000  H
  C54      1.0000 0.47827  0.71967  0.35342  Biso   1.000  C
  C55      1.0000 0.67543  0.40421  0.09742  Biso   1.000  C
  O12      1.0000 0.62751  0.32397  0.21009  Biso   1.000  O
  C56      1.0000 0.84327  0.49916  0.09339  Biso   1.000  C
  H51      1.0000 0.93768  0.50969  0.19619  Biso   1.000  H
  C57      1.0000 0.34015  0.22790  0.29008  Biso   1.000  C
  C58      1.0000 0.13290  0.47706  0.33229  Biso   1.000  C
  C59      1.0000 0.19151  0.40177  0.20858  Biso   1.000  C
  O13      1.0000 0.09298  0.55926  0.44922  Biso   1.000  O
  H52      1.0000 0.48770  0.78765  0.33262  Biso   1.000  H
  H53      1.0000 0.41486  0.68586  0.32478  Biso   1.000  H
  H54      1.0000 0.46497  0.71577  0.40841  Biso   1.000  H
  C60      1.0000 0.56182  0.37639  0.06609  Biso   1.000  C
  C61      1.0000 0.74752  0.46361  0.05852  Biso   1.000  C
  C62      1.0000 0.65976  0.22790  0.20992  Biso   1.000  C
  O14      1.0000 0.90702  0.55926  0.05078  Biso   1.000  O
  H55      1.0000 0.33653  0.20231  0.34030  Biso   1.000  H
  H56      1.0000 0.26646  0.21898  0.26328  Biso   1.000  H
  H57      1.0000 0.40433  0.19897  0.26149  Biso   1.000  H
  H58      1.0000 0.06232  0.50969  0.30381  Biso   1.000  H
  C63      1.0000 0.28971  0.44667  0.16788  Biso   1.000  C
  H59      1.0000 0.11647  0.43008  0.18980  Biso   1.000  H
  H60      1.0000 0.19008  0.33631  0.19709  Biso   1.000  H
  C64      1.0000 0.98349  0.58366  0.42281  Biso   1.000  C
  C65      1.0000 0.46909  0.43398  0.10258  Biso   1.000  C
  H61      1.0000 0.56139  0.38929  0.01059  Biso   1.000  H
  H62      1.0000 0.54548  0.30807  0.07640  Biso   1.000  H
  H63      1.0000 0.72975  0.48536  0.00589  Biso   1.000  H
  H64      1.0000 0.66347  0.20231  0.15970  Biso   1.000  H
  H65      1.0000 0.73345  0.21898  0.23672  Biso   1.000  H
  H66      1.0000 0.59567  0.19897  0.23851  Biso   1.000  H
  C66      1.0000 0.01651  0.58366  0.07719  Biso   1.000  C
  C67      1.0000 0.36929  0.39459  0.12730  Biso   1.000  C
  C68      1.0000 0.30857  0.54120  0.17730  Biso   1.000  C
  H67      1.0000 0.98871  0.62612  0.37679  Biso   1.000  H
  H68      1.0000 0.93675  0.52482  0.41340  Biso   1.000  H
  H69      1.0000 0.94939  0.62298  0.46457  Biso   1.000  H
  C69      1.0000 0.48711  0.52900  0.11508  Biso   1.000  C
  H70      1.0000 0.01129  0.62612  0.12321  Biso   1.000  H
  H71      1.0000 0.06316  0.52482  0.08660  Biso   1.000  H
  H72      1.0000 0.05061  0.62298  0.03543  Biso   1.000  H
  O15      1.0000 0.35026  0.29936  0.11648  Biso   1.000  O
  C70      1.0000 0.40652  0.58226  0.15101  Biso   1.000  C
  H73      1.0000 0.25552  0.57829  0.20510  Biso   1.000  H
  H74      1.0000 0.56131  0.55647  0.09630  Biso   1.000  H
  C71      1.0000 0.27868  0.28207  0.05280  Biso   1.000  C
  O16      1.0000 0.41688  0.67701  0.16508  Biso   1.000  O
  H75      1.0000 0.20608  0.32020  0.05678  Biso   1.000  H
  H76      1.0000 0.26217  0.21507  0.05538  Biso   1.000  H
  H77      1.0000 0.31843  0.30438  0.00639  Biso   1.000  H
  C72      1.0000 0.52173  0.71967  0.14658  Biso   1.000  C
  H78      1.0000 0.51230  0.78765  0.16738  Biso   1.000  H
  H79      1.0000 0.58506  0.68586  0.17522  Biso   1.000  H
  H80      1.0000 0.53495  0.71577  0.09159  Biso   1.000  H
  C73      1.0000 0.77868  0.78207  0.44720  Biso   1.000  C
  O17      1.0000 0.85026  0.79936  0.38352  Biso   1.000  O
  H81      1.0000 0.70608  0.82020  0.44322  Biso   1.000  H
  H82      1.0000 0.76217  0.71507  0.44462  Biso   1.000  H
  H83      1.0000 0.81843  0.80438  0.49361  Biso   1.000  H
  C74      1.0000 0.86929  0.89459  0.37270  Biso   1.000  C
  C75      1.0000 0.78971  0.94667  0.33212  Biso   1.000  C
  C76      1.0000 0.96909  0.93398  0.39742  Biso   1.000  C
  C77      1.0000 0.69151  0.90177  0.29142  Biso   1.000  C
  C78      1.0000 0.80857  0.04120  0.32270  Biso   1.000  C
  C79      1.0000 0.98711  0.02900  0.38492  Biso   1.000  C
  C80      1.0000 0.06182  0.87639  0.43391  Biso   1.000  C
  C81      1.0000 0.70541  0.91725  0.20762  Biso   1.000  C
  H84      1.0000 0.61647  0.93008  0.31020  Biso   1.000  H
  H85      1.0000 0.69008  0.83631  0.30291  Biso   1.000  H
  C82      1.0000 0.90652  0.08226  0.34899  Biso   1.000  C
  H86      1.0000 0.75552  0.07829  0.29490  Biso   1.000  H
  H87      1.0000 0.06131  0.05647  0.40370  Biso   1.000  H
  C83      1.0000 0.17543  0.90414  0.40258  Biso   1.000  C
  H88      1.0000 0.06139  0.88929  0.48941  Biso   1.000  H
  H89      1.0000 0.04548  0.80807  0.42360  Biso   1.000  H
  C84      1.0000 0.79763  0.88016  0.17091  Biso   1.000  C
  C85      1.0000 0.63290  0.97706  0.16771  Biso   1.000  C
  O18      1.0000 0.91688  0.17701  0.33492  Biso   1.000  O
  C86      1.0000 0.20237  0.88016  0.32909  Biso   1.000  C
  C87      1.0000 0.24752  0.96354  0.44148  Biso   1.000  C
  O19      1.0000 0.87249  0.82397  0.21009  Biso   1.000  O
  C88      1.0000 0.82457  0.90414  0.09742  Biso   1.000  C
  C89      1.0000 0.65673  0.99916  0.09339  Biso   1.000  C
  H90      1.0000 0.56232  0.00969  0.19619  Biso   1.000  H
  C90      1.0000 0.02173  0.21967  0.35342  Biso   1.000  C
  C91      1.0000 0.29459  0.91725  0.29238  Biso   1.000  C
  O20      1.0000 0.12751  0.82397  0.28991  Biso   1.000  O
  C92      1.0000 0.34327  0.99916  0.40661  Biso   1.000  C
  H91      1.0000 0.22983  0.98536  0.49411  Biso   1.000  H
  C93      1.0000 0.84015  0.72790  0.20992  Biso   1.000  C
  C94      1.0000 0.75248  0.96354  0.05852  Biso   1.000  C
  C95      1.0000 0.93818  0.87639  0.06609  Biso   1.000  C
  O21      1.0000 0.59298  0.05933  0.05078  Biso   1.000  O
  H92      1.0000 0.01230  0.28772  0.33262  Biso   1.000  H
  H93      1.0000 0.08506  0.18586  0.32478  Biso   1.000  H
  H94      1.0000 0.03503  0.21577  0.40841  Biso   1.000  H
  C96      1.0000 0.30849  0.90177  0.20858  Biso   1.000  C
  C97      1.0000 0.36710  0.97706  0.33229  Biso   1.000  C
  C98      1.0000 0.15976  0.72790  0.29008  Biso   1.000  C
  O22      1.0000 0.40702  0.05933  0.44922  Biso   1.000  O
  H95      1.0000 0.83645  0.70231  0.15970  Biso   1.000  H
  H96      1.0000 0.76646  0.71898  0.23672  Biso   1.000  H
  H97      1.0000 0.90424  0.69897  0.23851  Biso   1.000  H
  H98      1.0000 0.77017  0.98536  0.00589  Biso   1.000  H
  H99      1.0000 0.93861  0.88929  0.01059  Biso   1.000  H
  H100     1.0000 0.95452  0.80807  0.07640  Biso   1.000  H
  C99      1.0000 0.03091  0.93398  0.10258  Biso   1.000  C
  C100     1.0000 0.48349  0.08373  0.07719  Biso   1.000  C
  C101     1.0000 0.21029  0.94667  0.16788  Biso   1.000  C
  H101     1.0000 0.38353  0.93008  0.18980  Biso   1.000  H
  H102     1.0000 0.30992  0.83631  0.19709  Biso   1.000  H
  H103     1.0000 0.43768  0.00969  0.30381  Biso   1.000  H
  H104     1.0000 0.16347  0.70231  0.34030  Biso   1.000  H
  H105     1.0000 0.23354  0.71898  0.26328  Biso   1.000  H
  H106     1.0000 0.09567  0.69897  0.26149  Biso   1.000  H
  C102     1.0000 0.51651  0.08373  0.42281  Biso   1.000  C
  C103     1.0000 0.13071  0.89459  0.12730  Biso   1.000  C
  C104     1.0000 0.01289  0.02900  0.11508  Biso   1.000  C
  H107     1.0000 0.48871  0.12612  0.12321  Biso   1.000  H
  H108     1.0000 0.43675  0.02482  0.08660  Biso   1.000  H
  H109     1.0000 0.44939  0.12298  0.03543  Biso   1.000  H
  C105     1.0000 0.19143  0.04120  0.17730  Biso   1.000  C
  H110     1.0000 0.51129  0.12612  0.37679  Biso   1.000  H
  H111     1.0000 0.56316  0.02482  0.41340  Biso   1.000  H
  H112     1.0000 0.55061  0.12298  0.46457  Biso   1.000  H
  O23      1.0000 0.14974  0.79936  0.11648  Biso   1.000  O
  H113     1.0000 0.93869  0.05647  0.09630  Biso   1.000  H
  C106     1.0000 0.09348  0.08226  0.15101  Biso   1.000  C
  H114     1.0000 0.24448  0.07829  0.20510  Biso   1.000  H
  C107     1.0000 0.22132  0.78207  0.05280  Biso   1.000  C
  O24      1.0000 0.08312  0.17701  0.16508  Biso   1.000  O
  H115     1.0000 0.29392  0.82020  0.05678  Biso   1.000  H
  H116     1.0000 0.23783  0.71507  0.05538  Biso   1.000  H
  H117     1.0000 0.18157  0.80438  0.00639  Biso   1.000  H
  C108     1.0000 0.97827  0.21967  0.14658  Biso   1.000  C
  H118     1.0000 0.98770  0.28772  0.16738  Biso   1.000  H
  H119     1.0000 0.91486  0.18586  0.17522  Biso   1.000  H
  H120     1.0000 0.96497  0.21577  0.09159  Biso   1.000  H
  C109     1.0000 0.84015  0.27210  0.70992  Biso   1.000  C
  O25      1.0000 0.87249  0.17596  0.71009  Biso   1.000  O
  H121     1.0000 0.83645  0.29769  0.65970  Biso   1.000  H
  H122     1.0000 0.76646  0.28102  0.73672  Biso   1.000  H
  H123     1.0000 0.90424  0.30096  0.73851  Biso   1.000  H
  C110     1.0000 0.79763  0.11977  0.67091  Biso   1.000  C
  C111     1.0000 0.82457  0.09579  0.59742  Biso   1.000  C
  C112     1.0000 0.70541  0.08268  0.70762  Biso   1.000  C
  C113     1.0000 0.75248  0.03639  0.55852  Biso   1.000  C
  C114     1.0000 0.93818  0.12361  0.56609  Biso   1.000  C
  C115     1.0000 0.63290  0.02287  0.66771  Biso   1.000  C
  C116     1.0000 0.69151  0.09823  0.79142  Biso   1.000  C
  C117     1.0000 0.65673  0.00077  0.59339  Biso   1.000  C
  H124     1.0000 0.77017  0.01457  0.50589  Biso   1.000  H
  H125     1.0000 0.93861  0.11071  0.51059  Biso   1.000  H
  H126     1.0000 0.95452  0.19193  0.57640  Biso   1.000  H
  C118     1.0000 0.03091  0.06602  0.60258  Biso   1.000  C
  H127     1.0000 0.56232  0.99024  0.69619  Biso   1.000  H
  C119     1.0000 0.78971  0.05333  0.83212  Biso   1.000  C
  H128     1.0000 0.61647  0.06992  0.81020  Biso   1.000  H
  H129     1.0000 0.69008  0.16369  0.80291  Biso   1.000  H
  O26      1.0000 0.59298  0.94067  0.55078  Biso   1.000  O
  C120     1.0000 0.01289  0.97100  0.61508  Biso   1.000  C
  C121     1.0000 0.13071  0.10541  0.62730  Biso   1.000  C
  C122     1.0000 0.86929  0.10541  0.87270  Biso   1.000  C
  C123     1.0000 0.80857  0.95880  0.82270  Biso   1.000  C
  C124     1.0000 0.48349  0.91627  0.57719  Biso   1.000  C
  H130     1.0000 0.93869  0.94346  0.59630  Biso   1.000  H
  C125     1.0000 0.09348  0.91767  0.65101  Biso   1.000  C
  O27      1.0000 0.14974  0.20057  0.61648  Biso   1.000  O
  C126     1.0000 0.21029  0.05333  0.66788  Biso   1.000  C
  O28      1.0000 0.85026  0.20057  0.88352  Biso   1.000  O
  C127     1.0000 0.96909  0.06602  0.89742  Biso   1.000  C
  C128     1.0000 0.90652  0.91767  0.84899  Biso   1.000  C
  H131     1.0000 0.75552  0.92164  0.79490  Biso   1.000  H
  H132     1.0000 0.48871  0.87388  0.62321  Biso   1.000  H
  H133     1.0000 0.43675  0.97518  0.58660  Biso   1.000  H
  H134     1.0000 0.44939  0.87695  0.53543  Biso   1.000  H
  O29      1.0000 0.08312  0.82299  0.66508  Biso   1.000  O
  C129     1.0000 0.19143  0.95880  0.67730  Biso   1.000  C
  C130     1.0000 0.22132  0.21786  0.55280  Biso   1.000  C
  C131     1.0000 0.30849  0.09823  0.70858  Biso   1.000  C
  C132     1.0000 0.77868  0.21786  0.94720  Biso   1.000  C
  C133     1.0000 0.98711  0.97100  0.88492  Biso   1.000  C
  C134     1.0000 0.06182  0.12361  0.93391  Biso   1.000  C
  O30      1.0000 0.91688  0.82299  0.83492  Biso   1.000  O
  C135     1.0000 0.97827  0.78026  0.64658  Biso   1.000  C
  H135     1.0000 0.24448  0.92164  0.70510  Biso   1.000  H
  H136     1.0000 0.29392  0.17980  0.55678  Biso   1.000  H
  H137     1.0000 0.23783  0.28486  0.55538  Biso   1.000  H
  H138     1.0000 0.18157  0.19562  0.50639  Biso   1.000  H
  C136     1.0000 0.29459  0.08268  0.79238  Biso   1.000  C
  H139     1.0000 0.38353  0.06992  0.68980  Biso   1.000  H
  H140     1.0000 0.30992  0.16369  0.69709  Biso   1.000  H
  H141     1.0000 0.70608  0.17980  0.94322  Biso   1.000  H
  H142     1.0000 0.76217  0.28486  0.94462  Biso   1.000  H
  H143     1.0000 0.81843  0.19562  0.99361  Biso   1.000  H
  H144     1.0000 0.06131  0.94346  0.90370  Biso   1.000  H
  C137     1.0000 0.17543  0.09579  0.90258  Biso   1.000  C
  H145     1.0000 0.06139  0.11071  0.98941  Biso   1.000  H
  H146     1.0000 0.04548  0.19193  0.92360  Biso   1.000  H
  C138     1.0000 0.02173  0.78026  0.85342  Biso   1.000  C
  H147     1.0000 0.98770  0.71228  0.66738  Biso   1.000  H
  H148     1.0000 0.91486  0.81407  0.67522  Biso   1.000  H
  H149     1.0000 0.96497  0.78416  0.59159  Biso   1.000  H
  C139     1.0000 0.20237  0.11977  0.82909  Biso   1.000  C
  C140     1.0000 0.36710  0.02287  0.83229  Biso   1.000  C
  C141     1.0000 0.24752  0.03639  0.94148  Biso   1.000  C
  H150     1.0000 0.01230  0.71228  0.83262  Biso   1.000  H
  H151     1.0000 0.08506  0.81407  0.82478  Biso   1.000  H
  H152     1.0000 0.03503  0.78416  0.90841  Biso   1.000  H
  O31      1.0000 0.12751  0.17596  0.78991  Biso   1.000  O
  H153     1.0000 0.43768  0.99024  0.80381  Biso   1.000  H
  C142     1.0000 0.34327  0.00077  0.90661  Biso   1.000  C
  H154     1.0000 0.22983  0.01457  0.99411  Biso   1.000  H
  C143     1.0000 0.15976  0.27210  0.79008  Biso   1.000  C
  O32      1.0000 0.40702  0.94067  0.94922  Biso   1.000  O
  H155     1.0000 0.16347  0.29769  0.84030  Biso   1.000  H
  H156     1.0000 0.23354  0.28102  0.76328  Biso   1.000  H
  H157     1.0000 0.09567  0.30096  0.76149  Biso   1.000  H
  C144     1.0000 0.51651  0.91627  0.92281  Biso   1.000  C
  H158     1.0000 0.51129  0.87388  0.87679  Biso   1.000  H
  H159     1.0000 0.56316  0.97518  0.91340  Biso   1.000  H
  H160     1.0000 0.55061  0.87695  0.96457  Biso   1.000  H
