data_image0
_cell_length_a       14.56
_cell_length_b       15.007
_cell_length_c       15.239
_cell_angle_alpha    83.05
_cell_angle_beta     81.65
_cell_angle_gamma    81.72

_symmetry_space_group_name_H-M    "P 1"
_symmetry_int_tables_number       1

loop_
  _symmetry_equiv_pos_as_xyz
  'x, y, z'

loop_
  _atom_site_label
  _atom_site_occupancy
  _atom_site_fract_x
  _atom_site_fract_y
  _atom_site_fract_z
  _atom_site_thermal_displace_type
  _atom_site_B_iso_or_equiv
  _atom_site_type_symbol
  O1       1.0000 0.32905  0.63996  0.75148  Biso   1.000  O
  C1       1.0000 0.41510  0.63611  0.75348  Biso   1.000  C
  N1       1.0000 0.47154  0.56305  0.78468  Biso   1.000  N
  N2       1.0000 0.46564  0.70468  0.72087  Biso   1.000  N
  C2       1.0000 0.43450  0.48565  0.83555  Biso   1.000  C
  C3       1.0000 0.56418  0.58400  0.78648  Biso   1.000  C
  C4       1.0000 0.56312  0.68143  0.73988  Biso   1.000  C
  C5       1.0000 0.43131  0.78917  0.67494  Biso   1.000  C
  N3       1.0000 0.45669  0.40371  0.79261  Biso   1.000  N
  H1       1.0000 0.45854  0.47549  0.89249  Biso   1.000  H
  H2       1.0000 0.36692  0.49943  0.84742  Biso   1.000  H
  N4       1.0000 0.63623  0.53351  0.73314  Biso   1.000  N
  H3       1.0000 0.57833  0.58087  0.84782  Biso   1.000  H
  H4       1.0000 0.58040  0.72311  0.77748  Biso   1.000  H
  N5       1.0000 0.63139  0.66960  0.65920  Biso   1.000  N
  N6       1.0000 0.45676  0.79289  0.57753  Biso   1.000  N
  H5       1.0000 0.36357  0.79909  0.68840  Biso   1.000  H
  H6       1.0000 0.45608  0.83783  0.69667  Biso   1.000  H
  C6       1.0000 0.39246  0.36642  0.75681  Biso   1.000  C
  C7       1.0000 0.54423  0.34451  0.80048  Biso   1.000  C
  C8       1.0000 0.67789  0.44227  0.76101  Biso   1.000  C
  C9       1.0000 0.67768  0.58311  0.66147  Biso   1.000  C
  C10      1.0000 0.66972  0.74810  0.60873  Biso   1.000  C
  C11      1.0000 0.38957  0.79247  0.52379  Biso   1.000  C
  C12      1.0000 0.53458  0.83572  0.53339  Biso   1.000  C
  N7       1.0000 0.43676  0.28314  0.73201  Biso   1.000  N
  O2       1.0000 0.31753  0.39816  0.74614  Biso   1.000  O
  C13      1.0000 0.53004  0.25859  0.76088  Biso   1.000  C
  H7       1.0000 0.55637  0.33140  0.86262  Biso   1.000  H
  N8       1.0000 0.62615  0.37305  0.74154  Biso   1.000  N
  H8       1.0000 0.74153  0.43239  0.73107  Biso   1.000  H
  H9       1.0000 0.68092  0.43668  0.82468  Biso   1.000  H
  O3       1.0000 0.74330  0.55816  0.60793  Biso   1.000  O
  N9       1.0000 0.62406  0.77994  0.52965  Biso   1.000  N
  H10      1.0000 0.73619  0.73217  0.59093  Biso   1.000  H
  H11      1.0000 0.66208  0.79667  0.64680  Biso   1.000  H
  N10      1.0000 0.42605  0.81881  0.43744  Biso   1.000  N
  O4       1.0000 0.31245  0.76773  0.54612  Biso   1.000  O
  C14      1.0000 0.51675  0.84873  0.43464  Biso   1.000  C
  H12      1.0000 0.53681  0.89362  0.55612  Biso   1.000  H
  C15      1.0000 0.38803  0.21582  0.70127  Biso   1.000  C
  N11      1.0000 0.60548  0.24711  0.68920  Biso   1.000  N
  H13      1.0000 0.53139  0.20593  0.80568  Biso   1.000  H
  C16      1.0000 0.66260  0.31434  0.68240  Biso   1.000  C
  C17      1.0000 0.65746  0.75434  0.44738  Biso   1.000  C
  C18      1.0000 0.37568  0.82767  0.36304  Biso   1.000  C
  N12      1.0000 0.59405  0.79069  0.39171  Biso   1.000  N
  H14      1.0000 0.51660  0.91200  0.40958  Biso   1.000  H
  N13      1.0000 0.40594  0.20932  0.60826  Biso   1.000  N
  H15      1.0000 0.40648  0.15699  0.73221  Biso   1.000  H
  H16      1.0000 0.32118  0.23109  0.71767  Biso   1.000  H
  C19      1.0000 0.62432  0.17227  0.63693  Biso   1.000  C
  O5       1.0000 0.73453  0.31767  0.63026  Biso   1.000  O
  O6       1.0000 0.73192  0.70545  0.42731  Biso   1.000  O
  N14      1.0000 0.39451  0.75290  0.31077  Biso   1.000  N
  H17      1.0000 0.30927  0.83630  0.38437  Biso   1.000  H
  H18      1.0000 0.39020  0.88180  0.32490  Biso   1.000  H
  C20      1.0000 0.61203  0.78419  0.29870  Biso   1.000  C
  C21      1.0000 0.34252  0.24566  0.55266  Biso   1.000  C
  C22      1.0000 0.48324  0.15128  0.56532  Biso   1.000  C
  N15      1.0000 0.57393  0.18120  0.56259  Biso   1.000  N
  H19      1.0000 0.69072  0.16371  0.61560  Biso   1.000  H
  H20      1.0000 0.60979  0.11821  0.67507  Biso   1.000  H
  C23      1.0000 0.33739  0.68567  0.31757  Biso   1.000  C
  C24      1.0000 0.47002  0.74142  0.23909  Biso   1.000  C
  N16      1.0000 0.56324  0.71687  0.26796  Biso   1.000  N
  H21      1.0000 0.59350  0.84301  0.26783  Biso   1.000  H
  H22      1.0000 0.67881  0.76892  0.28230  Biso   1.000  H
  N17      1.0000 0.37600  0.22006  0.47031  Biso   1.000  N
  O7       1.0000 0.26814  0.29456  0.57266  Biso   1.000  O
  C25      1.0000 0.46541  0.16429  0.46658  Biso   1.000  C
  H23      1.0000 0.48340  0.08801  0.59039  Biso   1.000  H
  C26      1.0000 0.61043  0.20747  0.47618  Biso   1.000  C
  N18      1.0000 0.37383  0.62695  0.25849  Biso   1.000  N
  O8       1.0000 0.26546  0.68233  0.36977  Biso   1.000  O
  C27      1.0000 0.45583  0.65550  0.19949  Biso   1.000  C
  H24      1.0000 0.46861  0.79408  0.19429  Biso   1.000  H
  C28      1.0000 0.60753  0.63359  0.24316  Biso   1.000  C
  C29      1.0000 0.33027  0.25191  0.39124  Biso   1.000  C
  H25      1.0000 0.46317  0.10638  0.44391  Biso   1.000  H
  N19      1.0000 0.54324  0.20705  0.42251  Biso   1.000  N
  O9       1.0000 0.68754  0.23227  0.45391  Biso   1.000  O
  C30      1.0000 0.32210  0.55774  0.23896  Biso   1.000  C
  N20      1.0000 0.54329  0.59629  0.20742  Biso   1.000  N
  H26      1.0000 0.44361  0.66861  0.13741  Biso   1.000  H
  O10      1.0000 0.68246  0.60185  0.25383  Biso   1.000  O
  H27      1.0000 0.26379  0.26783  0.40911  Biso   1.000  H
  H28      1.0000 0.33791  0.20334  0.35317  Biso   1.000  H
  N21      1.0000 0.36866  0.33040  0.34083  Biso   1.000  N
  C31      1.0000 0.56868  0.21083  0.32510  Biso   1.000  C
  N22      1.0000 0.36376  0.46650  0.26683  Biso   1.000  N
  H29      1.0000 0.25853  0.56762  0.26889  Biso   1.000  H
  H30      1.0000 0.31907  0.56333  0.17528  Biso   1.000  H
  C32      1.0000 0.56549  0.51436  0.16442  Biso   1.000  C
  C33      1.0000 0.32231  0.41690  0.33850  Biso   1.000  C
  C34      1.0000 0.43688  0.31858  0.26009  Biso   1.000  C
  N23      1.0000 0.53435  0.29533  0.27910  Biso   1.000  N
  H31      1.0000 0.63641  0.20091  0.31163  Biso   1.000  H
  H32      1.0000 0.54391  0.16218  0.30330  Biso   1.000  H
  C35      1.0000 0.43582  0.41601  0.21349  Biso   1.000  C
  N24      1.0000 0.52845  0.43696  0.21529  Biso   1.000  N
  H33      1.0000 0.54152  0.52451  0.10748  Biso   1.000  H
  H34      1.0000 0.63313  0.50057  0.15262  Biso   1.000  H
  O11      1.0000 0.25677  0.44185  0.39204  Biso   1.000  O
  H35      1.0000 0.41959  0.27690  0.22249  Biso   1.000  H
  C36      1.0000 0.58489  0.36390  0.24649  Biso   1.000  C
  H36      1.0000 0.42174  0.41907  0.15222  Biso   1.000  H
  O12      1.0000 0.67094  0.36005  0.24856  Biso   1.000  O
  C37      1.0000 0.09829  0.71837  0.81668  Biso   1.000  C
  H37      1.0000 0.10767  0.74663  0.75588  Biso   1.000  H
  H38      1.0000 0.11360  0.65350  0.81502  Biso   1.000  H
  N25      1.0000 0.00193  0.73786  0.85142  Biso   1.000  N
  N26      1.0000 0.16227  0.74932  0.86756  Biso   1.000  N
  C38      1.0000 0.94449  0.81083  0.81602  Biso   1.000  C
  C39      1.0000 0.95429  0.68477  0.92436  Biso   1.000  C
  C40      1.0000 0.20842  0.82199  0.83502  Biso   1.000  C
  C41      1.0000 0.20372  0.69378  0.94010  Biso   1.000  C
  N27      1.0000 0.85801  0.81216  0.86542  Biso   1.000  N
  O13      1.0000 0.96693  0.86544  0.75108  Biso   1.000  O
  C42      1.0000 0.85213  0.73569  0.93270  Biso   1.000  C
  H39      1.0000 0.95547  0.62258  0.91043  Biso   1.000  H
  N28      1.0000 0.98247  0.68610  0.01017  Biso   1.000  N
  N29      1.0000 0.27595  0.82333  0.88696  Biso   1.000  N
  O14      1.0000 0.19614  0.87298  0.76801  Biso   1.000  O
  H40      1.0000 0.23128  0.63422  0.92223  Biso   1.000  H
  C43      1.0000 0.28019  0.74898  0.95650  Biso   1.000  C
  N30      1.0000 0.14553  0.68540  0.02344  Biso   1.000  N
  C44      1.0000 0.77731  0.86537  0.83422  Biso   1.000  C
  H41      1.0000 0.80660  0.69709  0.92243  Biso   1.000  H
  N31      1.0000 0.83766  0.75932  0.02290  Biso   1.000  N
  C45      1.0000 0.90900  0.72542  0.06924  Biso   1.000  C
  C46      1.0000 0.06638  0.63561  0.03924  Biso   1.000  C
  C47      1.0000 0.34173  0.88939  0.87136  Biso   1.000  C
  H42      1.0000 0.34209  0.71303  0.95310  Biso   1.000  H
  N32      1.0000 0.24676  0.77539  0.04717  Biso   1.000  N
  C48      1.0000 0.17131  0.73036  0.08464  Biso   1.000  C
  H43      1.0000 0.79309  0.88783  0.77221  Biso   1.000  H
  H44      1.0000 0.72832  0.82720  0.83729  Biso   1.000  H
  N33      1.0000 0.74208  0.94185  0.88562  Biso   1.000  N
  C49      1.0000 0.74588  0.79671  0.06558  Biso   1.000  C
  O15      1.0000 0.91316  0.72676  0.14718  Biso   1.000  O
  H45      1.0000 0.05419  0.61678  0.10258  Biso   1.000  H
  H46      1.0000 0.08192  0.58129  0.00857  Biso   1.000  H
  H47      1.0000 0.40268  0.85868  0.88309  Biso   1.000  H
  H48      1.0000 0.34713  0.91238  0.80882  Biso   1.000  H
  N34      1.0000 0.31853  0.96506  0.92343  Biso   1.000  N
  C50      1.0000 0.30017  0.81886  0.09931  Biso   1.000  C
  O16      1.0000 0.13686  0.73116  0.16319  Biso   1.000  O
  C51      1.0000 0.67942  0.93581  0.96843  Biso   1.000  C
  C52      1.0000 0.75217  0.02862  0.85469  Biso   1.000  C
  H49      1.0000 0.74353  0.78306  0.12965  Biso   1.000  H
  H50      1.0000 0.69788  0.76757  0.04657  Biso   1.000  H
  N35      1.0000 0.72615  0.89267  0.04477  Biso   1.000  N
  C53      1.0000 0.34621  0.96523  0.01004  Biso   1.000  C
  C54      1.0000 0.28036  0.04726  0.89049  Biso   1.000  C
  H51      1.0000 0.28048  0.80291  0.16219  Biso   1.000  H
  H52      1.0000 0.36592  0.79560  0.08664  Biso   1.000  H
  N36      1.0000 0.28985  0.91501  0.08191  Biso   1.000  N
  H53      1.0000 0.62407  0.90777  0.96283  Biso   1.000  H
  C55      1.0000 0.65378  0.03479  0.98990  Biso   1.000  C
  N37      1.0000 0.71020  0.08501  0.91803  Biso   1.000  N
  O17      1.0000 0.79283  0.05647  0.78228  Biso   1.000  O
  C56      1.0000 0.71962  0.95276  0.10945  Biso   1.000  C
  H54      1.0000 0.41332  0.94508  0.01017  Biso   1.000  H
  C57      1.0000 0.32062  0.06420  0.03157  Biso   1.000  C
  N38      1.0000 0.27383  0.10734  0.95523  Biso   1.000  N
  O18      1.0000 0.25523  0.06908  0.81715  Biso   1.000  O
  C58      1.0000 0.24782  0.97140  0.14525  Biso   1.000  C
  H55      1.0000 0.58666  0.05494  0.98977  Biso   1.000  H
  N39      1.0000 0.68145  0.03496  0.07651  Biso   1.000  N
  C59      1.0000 0.69980  0.18115  0.90069  Biso   1.000  C
  O19      1.0000 0.74474  0.93093  0.18285  Biso   1.000  O
  H56      1.0000 0.37591  0.09224  0.03717  Biso   1.000  H
  N40      1.0000 0.25790  0.05817  0.11438  Biso   1.000  N
  C60      1.0000 0.25409  0.20330  0.93443  Biso   1.000  C
  O20      1.0000 0.20714  0.94354  0.21772  Biso   1.000  O
  C61      1.0000 0.65831  0.11062  0.12865  Biso   1.000  C
  H57      1.0000 0.71949  0.19710  0.83782  Biso   1.000  H
  H58      1.0000 0.63406  0.20442  0.91329  Biso   1.000  H
  N41      1.0000 0.75329  0.22463  0.95276  Biso   1.000  N
  C62      1.0000 0.22267  0.13458  0.16579  Biso   1.000  C
  H59      1.0000 0.25646  0.21696  0.87029  Biso   1.000  H
  H60      1.0000 0.30210  0.23244  0.95343  Biso   1.000  H
  N42      1.0000 0.16239  0.24070  0.97703  Biso   1.000  N
  H61      1.0000 0.59731  0.14134  0.11685  Biso   1.000  H
  H62      1.0000 0.65291  0.08763  0.19119  Biso   1.000  H
  N43      1.0000 0.72409  0.17668  0.11305  Biso   1.000  N
  C63      1.0000 0.82868  0.26960  0.91529  Biso   1.000  C
  C64      1.0000 0.71979  0.25104  0.04344  Biso   1.000  C
  H63      1.0000 0.20689  0.11218  0.22779  Biso   1.000  H
  H64      1.0000 0.27166  0.17281  0.16265  Biso   1.000  H
  N44      1.0000 0.14199  0.18779  0.13452  Biso   1.000  N
  C65      1.0000 0.09099  0.27460  0.93070  Biso   1.000  C
  C66      1.0000 0.14791  0.26432  0.06731  Biso   1.000  C
  C67      1.0000 0.79162  0.17803  0.16499  Biso   1.000  C
  N45      1.0000 0.85446  0.31462  0.97650  Biso   1.000  N
  O21      1.0000 0.86312  0.26886  0.83675  Biso   1.000  O
  C68      1.0000 0.79626  0.30624  0.05984  Biso   1.000  C
  H65      1.0000 0.65789  0.28699  0.04684  Biso   1.000  H
  C69      1.0000 0.05549  0.18919  0.18392  Biso   1.000  C
  N46      1.0000 0.01753  0.31385  0.98977  Biso   1.000  N
  O22      1.0000 0.08682  0.27326  0.85275  Biso   1.000  O
  H66      1.0000 0.19337  0.30292  0.07758  Biso   1.000  H
  C70      1.0000 0.04568  0.31524  0.07564  Biso   1.000  C
  N47      1.0000 0.83771  0.25070  0.13238  Biso   1.000  N
  O23      1.0000 0.80385  0.12704  0.23193  Biso   1.000  O
  C71      1.0000 0.93360  0.36441  0.96070  Biso   1.000  C
  H67      1.0000 0.76869  0.36579  0.07778  Biso   1.000  H
  N48      1.0000 0.99812  0.26216  0.14852  Biso   1.000  N
  O24      1.0000 0.03304  0.13457  0.24893  Biso   1.000  O
  H68      1.0000 0.04450  0.37743  0.08958  Biso   1.000  H
  C72      1.0000 0.90170  0.28158  0.18325  Biso   1.000  C
  H69      1.0000 0.94578  0.38323  0.89743  Biso   1.000  H
  H70      1.0000 0.91806  0.41873  0.99137  Biso   1.000  H
  H71      1.0000 0.89232  0.25339  0.24406  Biso   1.000  H
  H72      1.0000 0.88637  0.34652  0.18499  Biso   1.000  H
  Ne1      1.0000 0.50000  0.50000  0.49999  Biso   1.000  Ne
  He1      1.0000 0.29753  0.54505  0.56340  Biso   1.000  He
  He2      1.0000 0.71746  0.45225  0.43250  Biso   1.000  He
  Ar1      1.0000 0.50000  0.50000  0.49999  Biso   1.000  Ar
  Ne2      1.0000 1.00000  0.00000  0.99998  Biso   1.000  Ne
  He3      1.0000 0.97675  0.91925  0.21101  Biso   1.000  He
  He4      1.0000 0.01926  0.07345  0.81166  Biso   1.000  He
  Ar2      1.0000 1.00000  0.00000  0.99998  Biso   1.000  Ar
