data_image0
_cell_length_a       16.827
_cell_length_b       14.107
_cell_length_c       16.76
_cell_angle_alpha    90
_cell_angle_beta     93.95
_cell_angle_gamma    90

_symmetry_space_group_name_H-M    "P 1"
_symmetry_int_tables_number       1

loop_
  _symmetry_equiv_pos_as_xyz
  'x, y, z'

loop_
  _atom_site_label
  _atom_site_occupancy
  _atom_site_fract_x
  _atom_site_fract_y
  _atom_site_fract_z
  _atom_site_thermal_displace_type
  _atom_site_B_iso_or_equiv
  _atom_site_type_symbol
  N1       1.0000 0.55023  0.38711  0.51770  Biso   1.000  N
  N2       1.0000 0.56820  0.39541  0.43929  Biso   1.000  N
  C1       1.0000 0.59041  0.44708  0.56118  Biso   1.000  C
  C2       1.0000 0.52868  0.33097  0.38211  Biso   1.000  C
  C3       1.0000 0.62111  0.46353  0.42039  Biso   1.000  C
  S1       1.0000 0.65277  0.52137  0.51208  Biso   1.000  S
  S2       1.0000 0.58106  0.45573  0.66393  Biso   1.000  S
  H1       1.0000 0.54309  0.34720  0.32870  Biso   1.000  H
  H2       1.0000 0.47143  0.33827  0.38343  Biso   1.000  H
  C4       1.0000 0.55080  0.23003  0.39958  Biso   1.000  C
  O1       1.0000 0.64182  0.48324  0.35508  Biso   1.000  O
  C5       1.0000 0.50871  0.36259  0.67571  Biso   1.000  C
  H3       1.0000 0.54090  0.21443  0.45448  Biso   1.000  H
  H4       1.0000 0.51921  0.18792  0.36441  Biso   1.000  H
  O2       1.0000 0.63241  0.21918  0.38762  Biso   1.000  O
  C6       1.0000 0.53861  0.26363  0.66363  Biso   1.000  C
  H5       1.0000 0.49009  0.36698  0.72912  Biso   1.000  H
  H6       1.0000 0.46340  0.37357  0.63797  Biso   1.000  H
  C7       1.0000 0.66241  0.12753  0.40311  Biso   1.000  C
  C8       1.0000 0.48912  0.19742  0.62398  Biso   1.000  C
  C9       1.0000 0.61341  0.23719  0.69198  Biso   1.000  C
  H7       1.0000 0.64341  0.08443  0.36088  Biso   1.000  H
  H8       1.0000 0.64489  0.10420  0.45352  Biso   1.000  H
  C10      1.0000 0.75193  0.13348  0.40681  Biso   1.000  C
  C11      1.0000 0.51797  0.10697  0.61489  Biso   1.000  C
  H9       1.0000 0.43790  0.21379  0.60418  Biso   1.000  H
  C12      1.0000 0.64192  0.14681  0.68133  Biso   1.000  C
  H10      1.0000 0.64600  0.28149  0.71919  Biso   1.000  H
  H11      1.0000 0.77459  0.07060  0.41399  Biso   1.000  H
  H12      1.0000 0.76878  0.15942  0.35711  Biso   1.000  H
  N3       1.0000 0.77977  0.19380  0.47308  Biso   1.000  N
  C13      1.0000 0.59280  0.08017  0.64192  Biso   1.000  C
  H13      1.0000 0.48482  0.06210  0.58911  Biso   1.000  H
  C14      1.0000 0.72390  0.11852  0.71459  Biso   1.000  C
  C15      1.0000 0.79780  0.28688  0.46483  Biso   1.000  C
  N4       1.0000 0.77830  0.15829  0.54952  Biso   1.000  N
  H14      1.0000 0.61057  0.01871  0.63408  Biso   1.000  H
  S3       1.0000 0.80036  0.20635  0.70472  Biso   1.000  S
  H15      1.0000 0.73929  0.06110  0.68779  Biso   1.000  H
  H16      1.0000 0.72140  0.10371  0.77092  Biso   1.000  H
  S4       1.0000 0.81148  0.33402  0.56285  Biso   1.000  S
  O3       1.0000 0.80431  0.33047  0.40293  Biso   1.000  O
  C16      1.0000 0.79491  0.22358  0.60191  Biso   1.000  C
  N5       1.0000 0.44980  0.61289  0.48229  Biso   1.000  N
  C17      1.0000 0.40962  0.55292  0.43881  Biso   1.000  C
  N6       1.0000 0.43183  0.60459  0.56070  Biso   1.000  N
  S5       1.0000 0.41897  0.54427  0.33606  Biso   1.000  S
  S6       1.0000 0.34720  0.47870  0.48797  Biso   1.000  S
  C18      1.0000 0.37892  0.53647  0.57960  Biso   1.000  C
  C19      1.0000 0.47129  0.66903  0.61788  Biso   1.000  C
  C20      1.0000 0.49132  0.63741  0.32428  Biso   1.000  C
  O4       1.0000 0.35821  0.51684  0.64491  Biso   1.000  O
  H17      1.0000 0.45689  0.65280  0.67128  Biso   1.000  H
  H18      1.0000 0.52861  0.66173  0.61662  Biso   1.000  H
  C21      1.0000 0.44923  0.76997  0.60041  Biso   1.000  C
  C22      1.0000 0.46143  0.73637  0.33642  Biso   1.000  C
  H19      1.0000 0.50988  0.63302  0.27087  Biso   1.000  H
  H20      1.0000 0.53658  0.62643  0.36202  Biso   1.000  H
  H21      1.0000 0.45907  0.78564  0.54551  Biso   1.000  H
  H22      1.0000 0.48082  0.81208  0.63558  Biso   1.000  H
  O5       1.0000 0.36762  0.78082  0.61237  Biso   1.000  O
  C23      1.0000 0.51091  0.80258  0.37601  Biso   1.000  C
  C24      1.0000 0.38662  0.76281  0.30801  Biso   1.000  C
  C25      1.0000 0.33762  0.87247  0.59688  Biso   1.000  C
  C26      1.0000 0.48200  0.89303  0.38510  Biso   1.000  C
  H23      1.0000 0.56207  0.78621  0.39581  Biso   1.000  H
  C27      1.0000 0.35805  0.85319  0.31866  Biso   1.000  C
  H24      1.0000 0.35403  0.71851  0.28080  Biso   1.000  H
  H25      1.0000 0.35662  0.91557  0.63911  Biso   1.000  H
  H26      1.0000 0.35508  0.89580  0.54652  Biso   1.000  H
  C28      1.0000 0.24810  0.86652  0.59318  Biso   1.000  C
  C29      1.0000 0.40723  0.91983  0.35813  Biso   1.000  C
  H27      1.0000 0.51521  0.93790  0.41088  Biso   1.000  H
  C30      1.0000 0.27613  0.88148  0.28540  Biso   1.000  C
  N7       1.0000 0.22020  0.80620  0.52691  Biso   1.000  N
  H28      1.0000 0.22538  0.92940  0.58600  Biso   1.000  H
  H29      1.0000 0.23119  0.84058  0.64288  Biso   1.000  H
  H30      1.0000 0.38940  0.98129  0.36590  Biso   1.000  H
  S7       1.0000 0.19961  0.79365  0.29527  Biso   1.000  S
  H31      1.0000 0.26068  0.93890  0.31220  Biso   1.000  H
  H32      1.0000 0.27857  0.89629  0.22912  Biso   1.000  H
  N8       1.0000 0.22167  0.84171  0.45047  Biso   1.000  N
  C31      1.0000 0.20223  0.71312  0.53522  Biso   1.000  C
  C32      1.0000 0.20512  0.77642  0.39808  Biso   1.000  C
  S8       1.0000 0.18849  0.66598  0.43714  Biso   1.000  S
  O6       1.0000 0.19572  0.66953  0.59712  Biso   1.000  O
  O7       1.0000 0.70762  0.71248  0.39330  Biso   1.000  O
  C33      1.0000 0.71442  0.69717  0.32272  Biso   1.000  C
  S9       1.0000 0.66389  0.75877  0.24109  Biso   1.000  S
  N9       1.0000 0.75997  0.63061  0.29109  Biso   1.000  N
  C34      1.0000 0.71058  0.68484  0.17578  Biso   1.000  C
  N10      1.0000 0.75851  0.62324  0.20831  Biso   1.000  N
  C35      1.0000 0.81843  0.57312  0.33750  Biso   1.000  C
  S10      1.0000 0.69016  0.70022  0.07309  Biso   1.000  S
  C36      1.0000 0.90140  0.60310  0.32129  Biso   1.000  C
  H33      1.0000 0.81092  0.50677  0.32338  Biso   1.000  H
  H34      1.0000 0.81077  0.58000  0.39401  Biso   1.000  H
  C37      1.0000 0.76013  0.61820  0.03260  Biso   1.000  C
  O8       1.0000 0.90960  0.69852  0.34539  Biso   1.000  O
  H35      1.0000 0.94031  0.56390  0.35131  Biso   1.000  H
  H36      1.0000 0.90959  0.59701  0.26483  Biso   1.000  H
  H37      1.0000 0.75057  0.55540  0.05359  Biso   1.000  H
  C38      1.0000 0.84637  0.64301  0.05102  Biso   1.000  C
  H38      1.0000 0.74976  0.61551  0.97500  Biso   1.000  H
  C39      1.0000 0.98323  0.73949  0.32978  Biso   1.000  C
  C40      1.0000 0.89981  0.57397  0.07721  Biso   1.000  C
  C41      1.0000 0.87458  0.73403  0.03941  Biso   1.000  C
  C42      1.0000 0.97791  0.84369  0.34581  Biso   1.000  C
  H39      1.0000 0.99453  0.72857  0.27452  Biso   1.000  H
  H40      1.0000 0.02569  0.71149  0.36399  Biso   1.000  H
  H41      1.0000 0.88229  0.51223  0.08421  Biso   1.000  H
  C43      1.0000 0.97851  0.59573  0.09300  Biso   1.000  C
  C44      1.0000 0.95332  0.75750  0.05682  Biso   1.000  C
  H42      1.0000 0.83938  0.78032  0.01920  Biso   1.000  H
  H43      1.0000 0.95692  0.85341  0.39760  Biso   1.000  H
  N11      1.0000 0.92700  0.89183  0.28469  Biso   1.000  N
  H44      1.0000 0.03091  0.87099  0.34748  Biso   1.000  H
  H45      1.0000 0.01443  0.54852  0.10981  Biso   1.000  H
  C45      1.0000 0.00489  0.68789  0.08421  Biso   1.000  C
  C46      1.0000 0.98450  0.85560  0.04432  Biso   1.000  C
  C47      1.0000 0.85298  0.92401  0.29539  Biso   1.000  C
  N12      1.0000 0.95450  0.89707  0.20909  Biso   1.000  N
  H46      1.0000 0.05812  0.70249  0.09701  Biso   1.000  H
  S11      1.0000 0.91532  0.95059  0.05891  Biso   1.000  S
  H47      1.0000 0.00153  0.85993  0.99031  Biso   1.000  H
  H48      1.0000 0.03121  0.86510  0.08068  Biso   1.000  H
  S12      1.0000 0.81375  0.96654  0.20012  Biso   1.000  S
  O9       1.0000 0.81933  0.92550  0.35669  Biso   1.000  O
  C48      1.0000 0.90148  0.93443  0.16040  Biso   1.000  C
  O10      1.0000 0.29241  0.28752  0.60669  Biso   1.000  O
  C49      1.0000 0.28561  0.30283  0.67732  Biso   1.000  C
  N13      1.0000 0.24000  0.36939  0.70890  Biso   1.000  N
  S13      1.0000 0.33608  0.24123  0.75890  Biso   1.000  S
  C50      1.0000 0.18160  0.42688  0.66249  Biso   1.000  C
  N14      1.0000 0.24152  0.37683  0.79168  Biso   1.000  N
  C51      1.0000 0.28939  0.31523  0.82421  Biso   1.000  C
  C52      1.0000 0.09863  0.39690  0.67870  Biso   1.000  C
  H49      1.0000 0.18911  0.49323  0.67661  Biso   1.000  H
  H50      1.0000 0.18920  0.42000  0.60597  Biso   1.000  H
  S14      1.0000 0.30987  0.29978  0.92690  Biso   1.000  S
  O11      1.0000 0.09044  0.30148  0.65460  Biso   1.000  O
  H51      1.0000 0.05972  0.43610  0.64868  Biso   1.000  H
  H52      1.0000 0.09038  0.40299  0.73522  Biso   1.000  H
  C53      1.0000 0.23991  0.38180  0.96739  Biso   1.000  C
  C54      1.0000 0.01680  0.26051  0.67021  Biso   1.000  C
  H53      1.0000 0.24940  0.44460  0.94640  Biso   1.000  H
  C55      1.0000 0.15360  0.35699  0.94897  Biso   1.000  C
  H54      1.0000 0.25028  0.38449  0.02499  Biso   1.000  H
  C56      1.0000 0.02212  0.15631  0.65418  Biso   1.000  C
  H55      1.0000 0.00550  0.27143  0.72547  Biso   1.000  H
  H56      1.0000 0.97428  0.28851  0.63600  Biso   1.000  H
  C57      1.0000 0.10022  0.42603  0.92278  Biso   1.000  C
  C58      1.0000 0.12539  0.26597  0.96058  Biso   1.000  C
  H57      1.0000 0.04311  0.14659  0.60239  Biso   1.000  H
  N15      1.0000 0.07303  0.10817  0.71530  Biso   1.000  N
  H58      1.0000 0.96912  0.12901  0.65250  Biso   1.000  H
  H59      1.0000 0.11769  0.48777  0.91578  Biso   1.000  H
  C59      1.0000 0.02152  0.40434  0.90699  Biso   1.000  C
  C60      1.0000 0.04671  0.24250  0.94317  Biso   1.000  C
  H60      1.0000 0.16060  0.21968  0.98079  Biso   1.000  H
  C61      1.0000 0.14699  0.07599  0.70460  Biso   1.000  C
  N16      1.0000 0.04553  0.10293  0.79090  Biso   1.000  N
  H61      1.0000 0.98560  0.45148  0.89018  Biso   1.000  H
  C62      1.0000 0.99508  0.31211  0.91578  Biso   1.000  C
  C63      1.0000 0.01547  0.14440  0.95567  Biso   1.000  C
  S15      1.0000 0.18628  0.03353  0.79987  Biso   1.000  S
  O12      1.0000 0.18070  0.07450  0.64329  Biso   1.000  O
  C64      1.0000 0.09849  0.06557  0.83958  Biso   1.000  C
  H62      1.0000 0.94191  0.29751  0.90298  Biso   1.000  H
  S16      1.0000 0.08466  0.04941  0.94108  Biso   1.000  S
  H63      1.0000 0.96882  0.13490  0.91931  Biso   1.000  H
  H64      1.0000 0.99850  0.14007  0.00968  Biso   1.000  H
  S17      1.0000 0.69012  0.79974  0.57308  Biso   1.000  S
  C65      1.0000 0.71060  0.81520  0.67583  Biso   1.000  C
  C66      1.0000 0.76008  0.88183  0.53259  Biso   1.000  C
  S18      1.0000 0.66391  0.74126  0.74108  Biso   1.000  S
  N17      1.0000 0.75853  0.87680  0.70831  Biso   1.000  N
  H65      1.0000 0.75059  0.94464  0.55358  Biso   1.000  H
  H66      1.0000 0.74971  0.88453  0.47499  Biso   1.000  H
  C67      1.0000 0.84639  0.85702  0.55101  Biso   1.000  C
  C68      1.0000 0.71438  0.80279  0.82272  Biso   1.000  C
  N18      1.0000 0.75999  0.86943  0.79108  Biso   1.000  N
  C69      1.0000 0.89983  0.92599  0.57721  Biso   1.000  C
  C70      1.0000 0.87459  0.76600  0.53941  Biso   1.000  C
  O13      1.0000 0.70757  0.78748  0.89329  Biso   1.000  O
  C71      1.0000 0.81838  0.92692  0.83749  Biso   1.000  C
  H67      1.0000 0.88230  0.98781  0.58420  Biso   1.000  H
  C72      1.0000 0.97852  0.90430  0.59300  Biso   1.000  C
  C73      1.0000 0.95328  0.74254  0.55681  Biso   1.000  C
  H68      1.0000 0.83939  0.71971  0.51919  Biso   1.000  H
  C74      1.0000 0.90142  0.89693  0.82128  Biso   1.000  C
  H69      1.0000 0.81088  0.99319  0.82338  Biso   1.000  H
  H70      1.0000 0.81079  0.92004  0.89401  Biso   1.000  H
  H71      1.0000 0.01438  0.95151  0.60980  Biso   1.000  H
  C75      1.0000 0.00490  0.81208  0.58420  Biso   1.000  C
  C76      1.0000 0.98451  0.64443  0.54431  Biso   1.000  C
  O14      1.0000 0.90955  0.80152  0.84539  Biso   1.000  O
  H72      1.0000 0.94033  0.93613  0.85131  Biso   1.000  H
  H73      1.0000 0.90961  0.90303  0.76482  Biso   1.000  H
  H74      1.0000 0.05808  0.79748  0.59700  Biso   1.000  H
  S19      1.0000 0.91533  0.54944  0.55891  Biso   1.000  S
  H75      1.0000 0.00149  0.64011  0.49031  Biso   1.000  H
  H76      1.0000 0.03122  0.63493  0.58068  Biso   1.000  H
  C77      1.0000 0.98318  0.76047  0.82978  Biso   1.000  C
  C78      1.0000 0.90149  0.56561  0.66040  Biso   1.000  C
  C79      1.0000 0.97792  0.65627  0.84580  Biso   1.000  C
  H77      1.0000 0.99448  0.77139  0.77451  Biso   1.000  H
  H78      1.0000 0.02570  0.78847  0.86399  Biso   1.000  H
  S20      1.0000 0.81371  0.53349  0.70011  Biso   1.000  S
  N19      1.0000 0.95452  0.60289  0.70908  Biso   1.000  N
  H79      1.0000 0.95687  0.64663  0.89760  Biso   1.000  H
  N20      1.0000 0.92702  0.60821  0.78468  Biso   1.000  N
  H80      1.0000 0.03087  0.62898  0.84748  Biso   1.000  H
  C80      1.0000 0.85299  0.57603  0.79539  Biso   1.000  C
  O15      1.0000 0.81928  0.57454  0.85669  Biso   1.000  O
  S21      1.0000 0.30985  0.20026  0.42691  Biso   1.000  S
  C81      1.0000 0.28938  0.18480  0.32422  Biso   1.000  C
  C82      1.0000 0.23989  0.11817  0.46740  Biso   1.000  C
  S22      1.0000 0.33606  0.25874  0.25891  Biso   1.000  S
  N21      1.0000 0.24150  0.12320  0.29168  Biso   1.000  N
  H81      1.0000 0.24938  0.05543  0.44641  Biso   1.000  H
  H82      1.0000 0.25032  0.11547  0.52499  Biso   1.000  H
  C83      1.0000 0.15358  0.14298  0.44898  Biso   1.000  C
  C84      1.0000 0.28559  0.19721  0.17727  Biso   1.000  C
  N22      1.0000 0.23998  0.13057  0.20891  Biso   1.000  N
  C85      1.0000 0.10020  0.07401  0.42278  Biso   1.000  C
  C86      1.0000 0.12538  0.23400  0.46058  Biso   1.000  C
  O16      1.0000 0.29240  0.21252  0.10670  Biso   1.000  O
  C87      1.0000 0.18159  0.07308  0.16250  Biso   1.000  C
  H83      1.0000 0.11767  0.01219  0.41578  Biso   1.000  H
  C88      1.0000 0.02151  0.09570  0.40699  Biso   1.000  C
  C89      1.0000 0.04669  0.25753  0.44318  Biso   1.000  C
  H84      1.0000 0.16058  0.28029  0.48080  Biso   1.000  H
  C90      1.0000 0.09861  0.10307  0.17871  Biso   1.000  C
  H85      1.0000 0.18910  0.00681  0.17661  Biso   1.000  H
  H86      1.0000 0.18918  0.08003  0.10598  Biso   1.000  H
  H87      1.0000 0.98559  0.04849  0.39019  Biso   1.000  H
  C91      1.0000 0.99507  0.18792  0.41578  Biso   1.000  C
  C92      1.0000 0.01552  0.35557  0.45568  Biso   1.000  C
  O17      1.0000 0.09042  0.19848  0.15460  Biso   1.000  O
  H88      1.0000 0.05971  0.06387  0.14868  Biso   1.000  H
  H89      1.0000 0.09042  0.09697  0.23522  Biso   1.000  H
  H90      1.0000 0.94189  0.20252  0.40299  Biso   1.000  H
  S23      1.0000 0.08470  0.45063  0.44108  Biso   1.000  S
  H91      1.0000 0.99848  0.35989  0.50968  Biso   1.000  H
  H92      1.0000 0.96881  0.36514  0.41931  Biso   1.000  H
  C93      1.0000 0.01679  0.23953  0.17021  Biso   1.000  C
  C94      1.0000 0.09848  0.43439  0.33959  Biso   1.000  C
  C95      1.0000 0.02211  0.34373  0.15418  Biso   1.000  C
  H93      1.0000 0.00549  0.22861  0.22548  Biso   1.000  H
  H94      1.0000 0.97433  0.21153  0.13600  Biso   1.000  H
  N23      1.0000 0.04551  0.39711  0.29091  Biso   1.000  N
  S24      1.0000 0.18626  0.46651  0.29988  Biso   1.000  S
  H95      1.0000 0.04310  0.35337  0.10239  Biso   1.000  H
  N24      1.0000 0.07301  0.39179  0.21531  Biso   1.000  N
  H96      1.0000 0.96910  0.37102  0.15251  Biso   1.000  H
  C96      1.0000 0.14698  0.42397  0.20460  Biso   1.000  C
  O18      1.0000 0.18069  0.42553  0.14330  Biso   1.000  O
  C97      1.0000 0.64191  0.35323  0.18134  Biso   1.000  C
  C98      1.0000 0.59278  0.41979  0.14186  Biso   1.000  C
  C99      1.0000 0.61340  0.26278  0.19198  Biso   1.000  C
  C100     1.0000 0.72388  0.38151  0.21459  Biso   1.000  C
  C101     1.0000 0.51802  0.39300  0.11489  Biso   1.000  C
  H97      1.0000 0.61061  0.48132  0.13409  Biso   1.000  H
  C102     1.0000 0.53859  0.23641  0.16357  Biso   1.000  C
  H98      1.0000 0.64599  0.21847  0.21920  Biso   1.000  H
  S25      1.0000 0.80040  0.29361  0.20472  Biso   1.000  S
  H99      1.0000 0.73928  0.43893  0.18780  Biso   1.000  H
  H100     1.0000 0.72138  0.39633  0.27087  Biso   1.000  H
  C103     1.0000 0.48910  0.30262  0.12398  Biso   1.000  C
  H101     1.0000 0.48481  0.43787  0.08911  Biso   1.000  H
  C104     1.0000 0.50870  0.13738  0.17572  Biso   1.000  C
  C105     1.0000 0.79489  0.27639  0.10191  Biso   1.000  C
  H102     1.0000 0.43788  0.28617  0.10419  Biso   1.000  H
  H103     1.0000 0.49008  0.13298  0.22912  Biso   1.000  H
  H104     1.0000 0.46338  0.12639  0.13798  Biso   1.000  H
  S26      1.0000 0.58105  0.04423  0.16393  Biso   1.000  S
  S27      1.0000 0.81153  0.16602  0.06286  Biso   1.000  S
  N25      1.0000 0.77828  0.34167  0.04952  Biso   1.000  N
  C106     1.0000 0.59040  0.05288  0.06118  Biso   1.000  C
  C107     1.0000 0.79785  0.21309  0.96483  Biso   1.000  C
  N26      1.0000 0.77981  0.30623  0.97309  Biso   1.000  N
  N27      1.0000 0.55021  0.11292  0.01770  Biso   1.000  N
  S28      1.0000 0.65275  0.97866  0.01202  Biso   1.000  S
  O19      1.0000 0.80436  0.16949  0.90293  Biso   1.000  O
  C108     1.0000 0.75191  0.36648  0.90682  Biso   1.000  C
  N28      1.0000 0.56825  0.10463  0.93929  Biso   1.000  N
  C109     1.0000 0.62115  0.03651  0.92040  Biso   1.000  C
  C110     1.0000 0.66246  0.37251  0.90311  Biso   1.000  C
  H105     1.0000 0.77463  0.42943  0.91400  Biso   1.000  H
  H106     1.0000 0.76883  0.34061  0.85712  Biso   1.000  H
  C111     1.0000 0.52873  0.16899  0.88212  Biso   1.000  C
  O20      1.0000 0.64181  0.01680  0.85509  Biso   1.000  O
  O21      1.0000 0.63245  0.28078  0.88762  Biso   1.000  O
  H107     1.0000 0.64345  0.41561  0.86089  Biso   1.000  H
  H108     1.0000 0.64494  0.39583  0.95353  Biso   1.000  H
  H109     1.0000 0.54313  0.15283  0.82871  Biso   1.000  H
  H110     1.0000 0.47141  0.16169  0.88343  Biso   1.000  H
  C112     1.0000 0.55084  0.27001  0.89958  Biso   1.000  C
  H111     1.0000 0.54094  0.28560  0.95449  Biso   1.000  H
  H112     1.0000 0.51925  0.31211  0.86442  Biso   1.000  H
  C113     1.0000 0.35806  0.64677  0.81865  Biso   1.000  C
  C114     1.0000 0.27609  0.61849  0.78540  Biso   1.000  C
  C115     1.0000 0.40725  0.58021  0.85812  Biso   1.000  C
  C116     1.0000 0.38657  0.73722  0.80801  Biso   1.000  C
  S29      1.0000 0.19963  0.70639  0.79527  Biso   1.000  S
  H113     1.0000 0.26069  0.56107  0.81219  Biso   1.000  H
  H114     1.0000 0.27859  0.60367  0.72912  Biso   1.000  H
  H115     1.0000 0.38942  0.51868  0.86590  Biso   1.000  H
  C117     1.0000 0.48202  0.60700  0.88510  Biso   1.000  C
  C118     1.0000 0.46138  0.76359  0.83641  Biso   1.000  C
  H116     1.0000 0.35398  0.78153  0.78079  Biso   1.000  H
  C119     1.0000 0.20508  0.72361  0.89808  Biso   1.000  C
  H117     1.0000 0.51522  0.56213  0.91087  Biso   1.000  H
  C120     1.0000 0.51093  0.69738  0.87601  Biso   1.000  C
  C121     1.0000 0.49127  0.86262  0.82427  Biso   1.000  C
  S30      1.0000 0.18850  0.83398  0.93713  Biso   1.000  S
  N29      1.0000 0.22169  0.65833  0.95053  Biso   1.000  N
  H118     1.0000 0.56209  0.71383  0.89580  Biso   1.000  H
  H119     1.0000 0.50990  0.86702  0.77092  Biso   1.000  H
  H120     1.0000 0.53659  0.87361  0.86201  Biso   1.000  H
  S31      1.0000 0.41892  0.95577  0.83606  Biso   1.000  S
  C122     1.0000 0.20219  0.78691  0.03522  Biso   1.000  C
  N30      1.0000 0.22016  0.69384  0.02690  Biso   1.000  N
  C123     1.0000 0.40957  0.94712  0.93881  Biso   1.000  C
  O22      1.0000 0.19568  0.83051  0.09712  Biso   1.000  O
  C124     1.0000 0.24806  0.63352  0.09317  Biso   1.000  C
  N31      1.0000 0.44982  0.88708  0.98229  Biso   1.000  N
  S32      1.0000 0.34722  0.02134  0.98797  Biso   1.000  S
  C125     1.0000 0.33758  0.62749  0.09688  Biso   1.000  C
  H121     1.0000 0.22540  0.57064  0.08599  Biso   1.000  H
  H122     1.0000 0.23114  0.65939  0.14287  Biso   1.000  H
  N32      1.0000 0.43178  0.89537  0.06069  Biso   1.000  N
  C126     1.0000 0.37888  0.96349  0.07959  Biso   1.000  C
  O23      1.0000 0.36758  0.71922  0.11237  Biso   1.000  O
  H123     1.0000 0.35658  0.58439  0.13910  Biso   1.000  H
  H124     1.0000 0.35509  0.60424  0.04646  Biso   1.000  H
  C127     1.0000 0.47124  0.83101  0.11787  Biso   1.000  C
  O24      1.0000 0.35816  0.98320  0.14490  Biso   1.000  O
  C128     1.0000 0.44919  0.72999  0.10041  Biso   1.000  C
  H125     1.0000 0.45684  0.84724  0.17128  Biso   1.000  H
  H126     1.0000 0.52856  0.83831  0.11661  Biso   1.000  H
  H127     1.0000 0.45909  0.71440  0.04550  Biso   1.000  H
  H128     1.0000 0.48078  0.68789  0.13557  Biso   1.000  H
