data_image0
_cell_length_a       11.974
_cell_length_b       17.586
_cell_length_c       13.095
_cell_angle_alpha    90
_cell_angle_beta     114.88
_cell_angle_gamma    90

_symmetry_space_group_name_H-M    "P 1"
_symmetry_int_tables_number       1

loop_
  _symmetry_equiv_pos_as_xyz
  'x, y, z'

loop_
  _atom_site_label
  _atom_site_occupancy
  _atom_site_fract_x
  _atom_site_fract_y
  _atom_site_fract_z
  _atom_site_thermal_displace_type
  _atom_site_B_iso_or_equiv
  _atom_site_type_symbol
  C1       1.0000 0.56774  0.47407  0.38991  Biso   1.000  C
  C2       1.0000 0.44256  0.48982  0.29462  Biso   1.000  C
  N1       1.0000 0.63960  0.53480  0.43318  Biso   1.000  N
  O1       1.0000 0.60139  0.40959  0.42257  Biso   1.000  O
  C3       1.0000 0.45193  0.53548  0.19883  Biso   1.000  C
  H1       1.0000 0.40170  0.44177  0.26499  Biso   1.000  H
  H2       1.0000 0.39240  0.51768  0.32375  Biso   1.000  H
  C4       1.0000 0.76302  0.53827  0.51247  Biso   1.000  C
  H3       1.0000 0.60531  0.57807  0.40893  Biso   1.000  H
  C5       1.0000 0.33275  0.54560  0.09083  Biso   1.000  C
  H4       1.0000 0.48339  0.58558  0.22745  Biso   1.000  H
  H5       1.0000 0.51233  0.51086  0.17854  Biso   1.000  H
  C6       1.0000 0.81726  0.48641  0.59951  Biso   1.000  C
  C7       1.0000 0.83176  0.60008  0.50397  Biso   1.000  C
  C8       1.0000 0.23522  0.58859  0.11137  Biso   1.000  C
  C9       1.0000 0.36397  0.58751  0.00530  Biso   1.000  C
  C10      1.0000 0.27957  0.46691  0.04057  Biso   1.000  C
  H6       1.0000 0.77368  0.44433  0.60625  Biso   1.000  H
  C11      1.0000 0.93729  0.49869  0.67561  Biso   1.000  C
  C12      1.0000 0.95027  0.61378  0.58183  Biso   1.000  C
  O2       1.0000 0.77306  0.64921  0.41306  Biso   1.000  O
  C13      1.0000 0.11077  0.58177  0.06650  Biso   1.000  C
  N2       1.0000 0.26177  0.64978  0.18376  Biso   1.000  N
  N3       1.0000 0.43239  0.65347  0.03022  Biso   1.000  N
  C14      1.0000 0.33819  0.57199  0.89537  Biso   1.000  C
  H7       1.0000 0.34254  0.43711  0.03241  Biso   1.000  H
  H8       1.0000 0.25132  0.44115  0.08990  Biso   1.000  H
  H9       1.0000 0.21210  0.47373  0.96818  Biso   1.000  H
  H10      1.0000 0.97492  0.46383  0.73344  Biso   1.000  H
  C15      1.0000 0.00332  0.56107  0.66828  Biso   1.000  C
  C16      1.0000 0.01479  0.68446  0.57813  Biso   1.000  C
  C17      1.0000 0.79035  0.62749  0.31432  Biso   1.000  C
  Li1      1.0000 0.74147  0.74997  0.46129  Biso   1.000  Li
  H11      1.0000 0.06492  0.54532  0.01423  Biso   1.000  H
  C18      1.0000 0.06229  0.63869  0.11179  Biso   1.000  C
  C19      1.0000 0.15689  0.68071  0.18561  Biso   1.000  C
  H12      1.0000 0.33502  0.66661  0.22299  Biso   1.000  H
  H13      1.0000 0.46019  0.67594  0.09445  Biso   1.000  H
  C20      1.0000 0.45040  0.67901  0.93830  Biso   1.000  C
  C21      1.0000 0.39130  0.62851  0.85378  Biso   1.000  C
  H14      1.0000 0.29272  0.53065  0.85463  Biso   1.000  H
  H15      1.0000 0.08388  0.56812  0.72157  Biso   1.000  H
  N4       1.0000 0.95385  0.74997  0.56710  Biso   1.000  N
  C22      1.0000 0.13780  0.68230  0.59446  Biso   1.000  C
  H16      1.0000 0.76072  0.57665  0.29294  Biso   1.000  H
  H17      1.0000 0.74535  0.66172  0.25371  Biso   1.000  H
  H18      1.0000 0.87629  0.62982  0.33065  Biso   1.000  H
  O3       1.0000 0.77290  0.85085  0.41306  Biso   1.000  O
  O4       1.0000 0.70211  0.74997  0.57939  Biso   1.000  O
  H19      1.0000 0.97925  0.64631  0.09411  Biso   1.000  H
  C23      1.0000 0.15772  0.74980  0.25312  Biso   1.000  C
  C24      1.0000 0.52365  0.74991  0.94158  Biso   1.000  C
  H20      1.0000 0.38677  0.63090  0.78114  Biso   1.000  H
  C25      1.0000 0.01610  0.81571  0.57897  Biso   1.000  C
  H21      1.0000 0.17789  0.63602  0.60136  Biso   1.000  H
  C26      1.0000 0.19843  0.74940  0.60044  Biso   1.000  C
  C27      1.0000 0.83131  0.89969  0.50389  Biso   1.000  C
  C28      1.0000 0.78997  0.87228  0.31440  Biso   1.000  C
  C29      1.0000 0.59314  0.74940  0.58579  Biso   1.000  C
  C30      1.0000 0.15602  0.81917  0.18536  Biso   1.000  C
  C31      1.0000 0.04170  0.74991  0.27560  Biso   1.000  C
  C32      1.0000 0.27039  0.74997  0.36659  Biso   1.000  C
  C33      1.0000 0.64604  0.74980  0.04714  Biso   1.000  C
  C34      1.0000 0.45045  0.82060  0.93788  Biso   1.000  C
  C35      1.0000 0.55336  0.74980  0.83863  Biso   1.000  C
  C36      1.0000 0.94992  0.88622  0.58108  Biso   1.000  C
  C37      1.0000 0.13855  0.81718  0.59463  Biso   1.000  C
  H22      1.0000 0.27928  0.74912  0.60827  Biso   1.000  H
  C38      1.0000 0.76411  0.96167  0.51357  Biso   1.000  C
  H23      1.0000 0.87610  0.87103  0.33115  Biso   1.000  H
  H24      1.0000 0.74653  0.83731  0.25447  Biso   1.000  H
  H25      1.0000 0.75863  0.92272  0.29184  Biso   1.000  H
  H26      1.0000 0.59947  0.71921  0.64909  Biso   1.000  H
  H27      1.0000 0.57056  0.80047  0.59497  Biso   1.000  H
  H28      1.0000 0.53165  0.72802  0.51803  Biso   1.000  H
  C39      1.0000 0.06218  0.86177  0.11137  Biso   1.000  C
  N5       1.0000 0.26130  0.84977  0.18401  Biso   1.000  N
  H29      1.0000 0.04163  0.70550  0.31827  Biso   1.000  H
  H30      1.0000 0.04117  0.79467  0.31726  Biso   1.000  H
  H31      1.0000 0.96991  0.74952  0.20522  Biso   1.000  H
  H32      1.0000 0.34399  0.74929  0.35430  Biso   1.000  H
  H33      1.0000 0.26954  0.79501  0.40776  Biso   1.000  H
  H34      1.0000 0.26853  0.70590  0.40902  Biso   1.000  H
  H35      1.0000 0.63002  0.74940  0.11305  Biso   1.000  H
  H36      1.0000 0.69244  0.70533  0.04689  Biso   1.000  H
  H37      1.0000 0.69221  0.79444  0.04748  Biso   1.000  H
  N6       1.0000 0.43286  0.84630  0.02997  Biso   1.000  N
  C40      1.0000 0.39130  0.87132  0.85378  Biso   1.000  C
  H38      1.0000 0.60029  0.79438  0.84006  Biso   1.000  H
  H39      1.0000 0.60033  0.70522  0.84015  Biso   1.000  H
  H40      1.0000 0.47816  0.74974  0.77121  Biso   1.000  H
  C41      1.0000 0.00374  0.93842  0.66828  Biso   1.000  C
  H41      1.0000 0.17916  0.86324  0.60103  Biso   1.000  H
  N7       1.0000 0.64029  0.96497  0.43360  Biso   1.000  N
  C42      1.0000 0.81851  0.01370  0.60094  Biso   1.000  C
  C43      1.0000 0.11141  0.91869  0.06608  Biso   1.000  C
  H42      1.0000 0.97910  0.85460  0.09344  Biso   1.000  H
  C44      1.0000 0.23561  0.91118  0.11221  Biso   1.000  C
  H43      1.0000 0.33422  0.83259  0.22307  Biso   1.000  H
  C45      1.0000 0.36432  0.91209  0.00497  Biso   1.000  C
  H44      1.0000 0.46128  0.82401  0.09445  Biso   1.000  H
  C46      1.0000 0.33827  0.92830  0.89570  Biso   1.000  C
  H45      1.0000 0.38669  0.86893  0.78114  Biso   1.000  H
  C47      1.0000 0.93839  0.00108  0.67637  Biso   1.000  C
  H46      1.0000 0.08422  0.93097  0.72140  Biso   1.000  H
  H47      1.0000 0.60635  0.92170  0.40885  Biso   1.000  H
  C48      1.0000 0.56788  0.02542  0.39058  Biso   1.000  C
  H48      1.0000 0.77499  0.05561  0.60801  Biso   1.000  H
  H49      1.0000 0.06615  0.95519  0.01364  Biso   1.000  H
  C49      1.0000 0.33223  0.95440  0.09041  Biso   1.000  C
  H50      1.0000 0.29312  0.96981  0.85530  Biso   1.000  H
  H51      1.0000 0.97644  0.03577  0.73436  Biso   1.000  H
  C50      1.0000 0.44252  0.01018  0.29437  Biso   1.000  C
  O5       1.0000 0.60186  0.09041  0.42232  Biso   1.000  O
  C51      1.0000 0.45157  0.96452  0.19841  Biso   1.000  C
  C52      1.0000 0.27957  0.03292  0.04057  Biso   1.000  C
  H52      1.0000 0.39192  0.98237  0.32324  Biso   1.000  H
  H53      1.0000 0.40232  0.05828  0.26507  Biso   1.000  H
  H54      1.0000 0.51185  0.98908  0.17804  Biso   1.000  H
  H55      1.0000 0.48315  0.91442  0.22694  Biso   1.000  H
  H56      1.0000 0.21163  0.02627  0.96843  Biso   1.000  H
  H57      1.0000 0.25189  0.05880  0.09024  Biso   1.000  H
  H58      1.0000 0.34243  0.06249  0.03199  Biso   1.000  H
  C53      1.0000 0.43230  0.52587  0.61012  Biso   1.000  C
  N8       1.0000 0.36041  0.46520  0.56677  Biso   1.000  N
  C54      1.0000 0.55757  0.51018  0.70541  Biso   1.000  C
  O6       1.0000 0.39861  0.59041  0.57737  Biso   1.000  O
  C55      1.0000 0.23698  0.46167  0.48747  Biso   1.000  C
  H59      1.0000 0.39482  0.42193  0.59109  Biso   1.000  H
  C56      1.0000 0.54811  0.46452  0.80120  Biso   1.000  C
  H60      1.0000 0.59839  0.55823  0.73495  Biso   1.000  H
  H61      1.0000 0.60760  0.48232  0.67620  Biso   1.000  H
  C57      1.0000 0.16824  0.39992  0.49597  Biso   1.000  C
  C58      1.0000 0.18286  0.51359  0.40052  Biso   1.000  C
  C59      1.0000 0.66737  0.45440  0.90920  Biso   1.000  C
  H62      1.0000 0.51661  0.41442  0.77250  Biso   1.000  H
  H63      1.0000 0.48779  0.48908  0.82149  Biso   1.000  H
  O7       1.0000 0.22694  0.35079  0.58689  Biso   1.000  O
  C60      1.0000 0.04985  0.38622  0.41819  Biso   1.000  C
  C61      1.0000 0.06275  0.50131  0.32442  Biso   1.000  C
  H64      1.0000 0.22645  0.55567  0.39378  Biso   1.000  H
  C62      1.0000 0.76486  0.41141  0.88858  Biso   1.000  C
  C63      1.0000 0.63607  0.41249  0.99473  Biso   1.000  C
  C64      1.0000 0.72043  0.53309  0.95937  Biso   1.000  C
  Li2      1.0000 0.25857  0.24997  0.53874  Biso   1.000  Li
  C65      1.0000 0.20977  0.37251  0.68571  Biso   1.000  C
  C66      1.0000 0.98533  0.31548  0.42190  Biso   1.000  C
  C67      1.0000 0.99668  0.43887  0.33166  Biso   1.000  C
  H65      1.0000 0.02520  0.53617  0.26659  Biso   1.000  H
  C68      1.0000 0.88927  0.41817  0.93353  Biso   1.000  C
  N9       1.0000 0.73823  0.35022  0.81618  Biso   1.000  N
  N10      1.0000 0.56765  0.34647  0.96981  Biso   1.000  N
  C69      1.0000 0.66184  0.42801  0.10466  Biso   1.000  C
  H66      1.0000 0.65750  0.56283  0.96762  Biso   1.000  H
  H67      1.0000 0.74872  0.55885  0.91013  Biso   1.000  H
  H68      1.0000 0.78802  0.52627  0.03185  Biso   1.000  H
  O8       1.0000 0.29793  0.24997  0.42063  Biso   1.000  O
  N11      1.0000 0.04628  0.24997  0.43292  Biso   1.000  N
  O9       1.0000 0.22710  0.14915  0.58689  Biso   1.000  O
  H69      1.0000 0.23940  0.42335  0.70709  Biso   1.000  H
  H70      1.0000 0.25469  0.33828  0.74632  Biso   1.000  H
  H71      1.0000 0.12384  0.37018  0.66938  Biso   1.000  H
  C70      1.0000 0.86220  0.31770  0.40548  Biso   1.000  C
  H72      1.0000 0.91621  0.43188  0.27837  Biso   1.000  H
  H73      1.0000 0.93516  0.45462  0.98572  Biso   1.000  H
  C71      1.0000 0.93775  0.36131  0.88824  Biso   1.000  C
  C72      1.0000 0.84315  0.31929  0.81442  Biso   1.000  C
  H74      1.0000 0.66511  0.33339  0.77704  Biso   1.000  H
  H75      1.0000 0.53981  0.32406  0.90550  Biso   1.000  H
  C73      1.0000 0.54964  0.32099  0.06173  Biso   1.000  C
  C74      1.0000 0.60874  0.37149  0.14624  Biso   1.000  C
  H76      1.0000 0.70728  0.46935  0.14532  Biso   1.000  H
  C75      1.0000 0.40690  0.25060  0.41424  Biso   1.000  C
  C76      1.0000 0.98390  0.18429  0.42097  Biso   1.000  C
  C77      1.0000 0.16873  0.10031  0.49614  Biso   1.000  C
  C78      1.0000 0.21007  0.12772  0.68563  Biso   1.000  C
  H77      1.0000 0.82215  0.36398  0.39866  Biso   1.000  H
  C79      1.0000 0.80161  0.25060  0.39959  Biso   1.000  C
  H78      1.0000 0.02076  0.35369  0.90583  Biso   1.000  H
  C80      1.0000 0.84232  0.25020  0.74691  Biso   1.000  C
  C81      1.0000 0.47648  0.25009  0.05845  Biso   1.000  C
  H79      1.0000 0.61323  0.36910  0.21881  Biso   1.000  H
  H80      1.0000 0.40061  0.28079  0.35085  Biso   1.000  H
  H81      1.0000 0.42957  0.19953  0.40506  Biso   1.000  H
  H82      1.0000 0.46847  0.27192  0.48200  Biso   1.000  H
  C82      1.0000 0.05008  0.11378  0.41887  Biso   1.000  C
  C83      1.0000 0.86149  0.18282  0.40540  Biso   1.000  C
  C84      1.0000 0.23590  0.03833  0.48638  Biso   1.000  C
  H83      1.0000 0.12394  0.12891  0.66887  Biso   1.000  H
  H84      1.0000 0.25351  0.16269  0.74556  Biso   1.000  H
  H85      1.0000 0.24137  0.07728  0.70810  Biso   1.000  H
  H86      1.0000 0.72072  0.25088  0.39168  Biso   1.000  H
  C85      1.0000 0.84406  0.18083  0.81459  Biso   1.000  C
  C86      1.0000 0.95834  0.25009  0.72443  Biso   1.000  C
  C87      1.0000 0.72965  0.24997  0.63344  Biso   1.000  C
  C88      1.0000 0.54967  0.17940  0.06215  Biso   1.000  C
  C89      1.0000 0.35408  0.25020  0.95289  Biso   1.000  C
  C90      1.0000 0.44664  0.25020  0.16131  Biso   1.000  C
  C91      1.0000 0.99626  0.06158  0.33166  Biso   1.000  C
  H87      1.0000 0.82084  0.13676  0.39892  Biso   1.000  H
  N12      1.0000 0.35975  0.03503  0.56643  Biso   1.000  N
  C92      1.0000 0.18153  0.98630  0.39909  Biso   1.000  C
  N13      1.0000 0.73874  0.15018  0.81602  Biso   1.000  N
  C93      1.0000 0.93782  0.13818  0.88858  Biso   1.000  C
  H88      1.0000 0.95841  0.29444  0.68175  Biso   1.000  H
  H89      1.0000 0.95887  0.20533  0.68276  Biso   1.000  H
  H90      1.0000 0.03013  0.25048  0.79480  Biso   1.000  H
  H91      1.0000 0.65605  0.25071  0.64573  Biso   1.000  H
  H92      1.0000 0.73058  0.20499  0.59227  Biso   1.000  H
  H93      1.0000 0.73151  0.29410  0.59101  Biso   1.000  H
  N14      1.0000 0.56714  0.15370  0.96998  Biso   1.000  N
  C94      1.0000 0.60874  0.12868  0.14624  Biso   1.000  C
  H94      1.0000 0.37007  0.25060  0.88689  Biso   1.000  H
  H95      1.0000 0.30760  0.29467  0.95314  Biso   1.000  H
  H96      1.0000 0.30787  0.20550  0.95247  Biso   1.000  H
  H97      1.0000 0.39975  0.20562  0.15997  Biso   1.000  H
  H98      1.0000 0.39967  0.29478  0.15980  Biso   1.000  H
  H99      1.0000 0.52196  0.25026  0.22882  Biso   1.000  H
  H100     1.0000 0.91582  0.06903  0.27863  Biso   1.000  H
  C95      1.0000 0.06161  0.99886  0.32358  Biso   1.000  C
  H101     1.0000 0.39373  0.07830  0.59109  Biso   1.000  H
  C96      1.0000 0.43212  0.97458  0.60936  Biso   1.000  C
  H102     1.0000 0.22505  0.94439  0.39201  Biso   1.000  H
  C97      1.0000 0.76443  0.08882  0.88782  Biso   1.000  C
  H103     1.0000 0.66578  0.16741  0.77687  Biso   1.000  H
  C98      1.0000 0.88859  0.08131  0.93386  Biso   1.000  C
  H104     1.0000 0.02094  0.14534  0.90659  Biso   1.000  H
  C99      1.0000 0.63576  0.08791  0.99498  Biso   1.000  C
  H105     1.0000 0.53881  0.17599  0.90550  Biso   1.000  H
  C100     1.0000 0.66186  0.07170  0.10432  Biso   1.000  C
  H106     1.0000 0.61335  0.13107  0.21889  Biso   1.000  H
  H107     1.0000 0.02356  0.96423  0.26558  Biso   1.000  H
  C101     1.0000 0.55756  0.98976  0.70558  Biso   1.000  C
  O10      1.0000 0.39826  0.90959  0.57771  Biso   1.000  O
  C102     1.0000 0.66790  0.04560  0.90962  Biso   1.000  C
  H108     1.0000 0.93389  0.04481  0.98639  Biso   1.000  H
  H109     1.0000 0.70692  0.03019  0.14473  Biso   1.000  H
  H110     1.0000 0.60808  0.01763  0.67670  Biso   1.000  H
  C103     1.0000 0.54847  0.03548  0.80162  Biso   1.000  C
  H111     1.0000 0.59776  0.94166  0.73487  Biso   1.000  H
  C104     1.0000 0.72043  0.96708  0.95937  Biso   1.000  C
  H112     1.0000 0.48819  0.01086  0.82199  Biso   1.000  H
  H113     1.0000 0.51685  0.08558  0.77300  Biso   1.000  H
  H114     1.0000 0.74811  0.94120  0.90971  Biso   1.000  H
  H115     1.0000 0.65757  0.93751  0.96796  Biso   1.000  H
  H116     1.0000 0.78841  0.97373  0.03159  Biso   1.000  H
