data_image0
_cell_length_a       20.725
_cell_length_b       14.877
_cell_length_c       22.521
_cell_angle_alpha    90
_cell_angle_beta     90.99
_cell_angle_gamma    90

_symmetry_space_group_name_H-M    "P 1"
_symmetry_int_tables_number       1

loop_
  _symmetry_equiv_pos_as_xyz
  'x, y, z'

loop_
  _atom_site_label
  _atom_site_occupancy
  _atom_site_fract_x
  _atom_site_fract_y
  _atom_site_fract_z
  _atom_site_thermal_displace_type
  _atom_site_B_iso_or_equiv
  _atom_site_type_symbol
  O1       1.0000 0.51623  0.39948  0.54961  Biso   1.000  O
  C1       1.0000 0.46589  0.38502  0.52323  Biso   1.000  C
  C2       1.0000 0.46332  0.33999  0.46319  Biso   1.000  C
  N1       1.0000 0.40836  0.40996  0.54553  Biso   1.000  N
  C3       1.0000 0.41578  0.37944  0.41878  Biso   1.000  C
  H1       1.0000 0.45242  0.27579  0.46901  Biso   1.000  H
  H2       1.0000 0.50690  0.34247  0.44601  Biso   1.000  H
  C4       1.0000 0.39711  0.44875  0.60188  Biso   1.000  C
  H3       1.0000 0.37309  0.40801  0.52261  Biso   1.000  H
  C5       1.0000 0.41673  0.33508  0.35634  Biso   1.000  C
  H4       1.0000 0.42510  0.44431  0.41439  Biso   1.000  H
  H5       1.0000 0.37178  0.37373  0.43477  Biso   1.000  H
  C6       1.0000 0.34510  0.50770  0.60712  Biso   1.000  C
  C7       1.0000 0.43293  0.42468  0.65167  Biso   1.000  C
  C8       1.0000 0.36819  0.38516  0.31788  Biso   1.000  C
  C9       1.0000 0.40257  0.23506  0.36061  Biso   1.000  C
  C10      1.0000 0.48376  0.34705  0.32894  Biso   1.000  C
  C11      1.0000 0.32574  0.53815  0.66304  Biso   1.000  C
  O2       1.0000 0.30985  0.53203  0.55699  Biso   1.000  O
  C12      1.0000 0.41645  0.45943  0.70651  Biso   1.000  C
  H6       1.0000 0.46848  0.38475  0.64838  Biso   1.000  H
  N2       1.0000 0.30585  0.40149  0.33600  Biso   1.000  N
  C13      1.0000 0.37424  0.42892  0.26477  Biso   1.000  C
  C14      1.0000 0.43908  0.16267  0.34444  Biso   1.000  C
  N3       1.0000 0.34777  0.20172  0.38676  Biso   1.000  N
  H7       1.0000 0.51591  0.31391  0.35266  Biso   1.000  H
  H8       1.0000 0.49505  0.41097  0.32854  Biso   1.000  H
  H9       1.0000 0.48295  0.32386  0.28822  Biso   1.000  H
  C15      1.0000 0.36310  0.51415  0.71246  Biso   1.000  C
  C16      1.0000 0.26317  0.58459  0.67130  Biso   1.000  C
  C17      1.0000 0.34027  0.59810  0.52217  Biso   1.000  C
  H10      1.0000 0.44223  0.44525  0.74053  Biso   1.000  H
  C18      1.0000 0.27291  0.45385  0.29555  Biso   1.000  C
  H11      1.0000 0.28876  0.37998  0.36358  Biso   1.000  H
  C19      1.0000 0.31534  0.47167  0.25047  Biso   1.000  C
  H12      1.0000 0.41196  0.43019  0.24141  Biso   1.000  H
  C20      1.0000 0.40518  0.08315  0.36056  Biso   1.000  C
  H13      1.0000 0.47980  0.16495  0.32579  Biso   1.000  H
  C21      1.0000 0.34853  0.10896  0.38645  Biso   1.000  C
  H14      1.0000 0.31657  0.23150  0.39831  Biso   1.000  H
  H15      1.0000 0.35185  0.53566  0.75066  Biso   1.000  H
  C22      1.0000 0.25756  0.66136  0.70638  Biso   1.000  C
  N4       1.0000 0.21113  0.54373  0.64683  Biso   1.000  N
  H16      1.0000 0.33946  0.65591  0.54300  Biso   1.000  H
  H17      1.0000 0.31736  0.60382  0.48393  Biso   1.000  H
  H18      1.0000 0.38512  0.58049  0.51542  Biso   1.000  H
  C23      1.0000 0.20438  0.48478  0.30527  Biso   1.000  C
  H19      1.0000 0.30639  0.50655  0.21596  Biso   1.000  H
  H20      1.0000 0.41925  0.02312  0.35452  Biso   1.000  H
  C24      1.0000 0.29430  0.05357  0.41217  Biso   1.000  C
  H21      1.0000 0.29483  0.68939  0.72312  Biso   1.000  H
  C25      1.0000 0.19675  0.69597  0.71633  Biso   1.000  C
  C26      1.0000 0.15225  0.57801  0.65642  Biso   1.000  C
  C27      1.0000 0.15634  0.41057  0.29319  Biso   1.000  C
  C28      1.0000 0.19037  0.56362  0.26304  Biso   1.000  C
  C29      1.0000 0.19735  0.51805  0.37002  Biso   1.000  C
  C30      1.0000 0.23267  0.06332  0.37566  Biso   1.000  C
  C31      1.0000 0.28273  0.08342  0.47696  Biso   1.000  C
  C32      1.0000 0.31414  0.95449  0.41283  Biso   1.000  C
  H22      1.0000 0.19180  0.74780  0.74049  Biso   1.000  H
  C33      1.0000 0.14330  0.65484  0.69110  Biso   1.000  C
  C34      1.0000 0.09623  0.52638  0.63293  Biso   1.000  C
  C35      1.0000 0.11026  0.39988  0.24963  Biso   1.000  C
  N5       1.0000 0.15183  0.33770  0.33054  Biso   1.000  N
  H23      1.0000 0.19196  0.54258  0.22187  Biso   1.000  H
  H24      1.0000 0.22281  0.61067  0.26943  Biso   1.000  H
  H25      1.0000 0.14743  0.58795  0.27085  Biso   1.000  H
  H26      1.0000 0.15311  0.53909  0.37597  Biso   1.000  H
  H27      1.0000 0.22760  0.56759  0.37757  Biso   1.000  H
  H28      1.0000 0.20693  0.46858  0.39751  Biso   1.000  H
  C36      1.0000 0.20382  0.00807  0.33476  Biso   1.000  C
  N6       1.0000 0.19270  0.13659  0.38228  Biso   1.000  N
  H29      1.0000 0.32235  0.07468  0.50063  Biso   1.000  H
  H30      1.0000 0.24792  0.04739  0.49370  Biso   1.000  H
  H31      1.0000 0.27063  0.14714  0.47749  Biso   1.000  H
  H32      1.0000 0.32100  0.93406  0.37206  Biso   1.000  H
  H33      1.0000 0.27988  0.91853  0.43064  Biso   1.000  H
  H34      1.0000 0.35415  0.94737  0.43615  Biso   1.000  H
  H35      1.0000 0.10129  0.67823  0.69719  Biso   1.000  H
  C37      1.0000 0.09342  0.48793  0.57621  Biso   1.000  C
  C38      1.0000 0.04508  0.50944  0.67130  Biso   1.000  C
  H36      1.0000 0.10203  0.43981  0.21747  Biso   1.000  H
  C39      1.0000 0.07689  0.31855  0.26091  Biso   1.000  C
  C40      1.0000 0.10388  0.28131  0.31100  Biso   1.000  C
  H37      1.0000 0.17628  0.32923  0.35572  Biso   1.000  H
  C41      1.0000 0.14557  0.04867  0.31593  Biso   1.000  C
  H38      1.0000 0.22012  0.95207  0.32130  Biso   1.000  H
  C42      1.0000 0.13895  0.12825  0.34613  Biso   1.000  C
  H39      1.0000 0.20478  0.18223  0.40120  Biso   1.000  H
  C43      1.0000 0.04275  0.42993  0.56009  Biso   1.000  C
  O3       1.0000 0.13855  0.50185  0.53300  Biso   1.000  O
  C44      1.0000 0.99474  0.45338  0.65509  Biso   1.000  C
  H40      1.0000 0.04502  0.53721  0.70931  Biso   1.000  H
  H41      1.0000 0.04220  0.29441  0.23786  Biso   1.000  H
  C45      1.0000 0.08552  0.19796  0.34546  Biso   1.000  C
  H42      1.0000 0.11598  0.02507  0.28724  Biso   1.000  H
  N7       1.0000 0.04330  0.39457  0.50201  Biso   1.000  N
  C46      1.0000 0.99341  0.41198  0.59980  Biso   1.000  C
  C47      1.0000 0.15830  0.59273  0.52115  Biso   1.000  C
  H43      1.0000 0.96074  0.44297  0.68200  Biso   1.000  H
  C48      1.0000 0.02542  0.15527  0.31584  Biso   1.000  C
  C49      1.0000 0.07077  0.22505  0.41048  Biso   1.000  C
  C50      1.0000 0.01042  0.32231  0.48033  Biso   1.000  C
  H44      1.0000 0.06947  0.41810  0.48020  Biso   1.000  H
  H45      1.0000 0.95938  0.37198  0.58914  Biso   1.000  H
  H46      1.0000 0.12296  0.63393  0.53025  Biso   1.000  H
  H47      1.0000 0.16924  0.59851  0.47914  Biso   1.000  H
  H48      1.0000 0.19616  0.60751  0.54593  Biso   1.000  H
  H49      1.0000 0.01372  0.10056  0.33738  Biso   1.000  H
  H50      1.0000 0.03483  0.14001  0.27454  Biso   1.000  H
  H51      1.0000 0.98944  0.19802  0.31673  Biso   1.000  H
  C51      1.0000 0.02161  0.30100  0.41599  Biso   1.000  C
  H52      1.0000 0.05443  0.17161  0.43166  Biso   1.000  H
  H53      1.0000 0.11153  0.24373  0.43042  Biso   1.000  H
  O4       1.0000 0.97514  0.27586  0.51093  Biso   1.000  O
  H54      1.0000 0.03773  0.35525  0.39556  Biso   1.000  H
  H55      1.0000 0.98043  0.28299  0.39662  Biso   1.000  H
  O5       1.0000 0.48368  0.60052  0.45036  Biso   1.000  O
  C52      1.0000 0.53407  0.61498  0.47674  Biso   1.000  C
  N8       1.0000 0.59160  0.59004  0.45444  Biso   1.000  N
  C53      1.0000 0.53664  0.66001  0.53678  Biso   1.000  C
  C54      1.0000 0.60284  0.55125  0.39813  Biso   1.000  C
  H56      1.0000 0.62686  0.59199  0.47740  Biso   1.000  H
  C55      1.0000 0.58413  0.62056  0.58123  Biso   1.000  C
  H57      1.0000 0.54753  0.72421  0.53101  Biso   1.000  H
  H58      1.0000 0.49306  0.65753  0.55401  Biso   1.000  H
  C56      1.0000 0.56702  0.57532  0.34835  Biso   1.000  C
  C57      1.0000 0.65481  0.49230  0.39289  Biso   1.000  C
  C58      1.0000 0.58323  0.66492  0.64367  Biso   1.000  C
  H59      1.0000 0.57485  0.55569  0.58559  Biso   1.000  H
  H60      1.0000 0.62813  0.62634  0.56525  Biso   1.000  H
  C59      1.0000 0.58351  0.54063  0.29350  Biso   1.000  C
  H61      1.0000 0.53143  0.61525  0.35164  Biso   1.000  H
  C60      1.0000 0.67422  0.46185  0.33694  Biso   1.000  C
  O6       1.0000 0.69010  0.46804  0.44303  Biso   1.000  O
  C61      1.0000 0.59739  0.76494  0.63941  Biso   1.000  C
  C62      1.0000 0.63172  0.61484  0.68213  Biso   1.000  C
  C63      1.0000 0.51619  0.65295  0.67107  Biso   1.000  C
  C64      1.0000 0.63686  0.48585  0.28755  Biso   1.000  C
  H62      1.0000 0.55773  0.55482  0.25949  Biso   1.000  H
  C65      1.0000 0.73679  0.41541  0.32872  Biso   1.000  C
  C66      1.0000 0.65964  0.40190  0.47785  Biso   1.000  C
  C67      1.0000 0.56087  0.83740  0.65557  Biso   1.000  C
  N9       1.0000 0.65214  0.79828  0.61325  Biso   1.000  N
  C68      1.0000 0.62567  0.57115  0.73520  Biso   1.000  C
  N10      1.0000 0.69406  0.59857  0.66401  Biso   1.000  N
  H63      1.0000 0.48405  0.68616  0.64736  Biso   1.000  H
  H64      1.0000 0.50491  0.58903  0.67147  Biso   1.000  H
  H65      1.0000 0.51701  0.67614  0.71180  Biso   1.000  H
  H66      1.0000 0.64811  0.46434  0.24936  Biso   1.000  H
  C69      1.0000 0.74235  0.33864  0.29364  Biso   1.000  C
  N11      1.0000 0.78878  0.45627  0.35319  Biso   1.000  N
  H67      1.0000 0.66050  0.34409  0.45698  Biso   1.000  H
  H68      1.0000 0.68260  0.39618  0.51608  Biso   1.000  H
  H69      1.0000 0.61479  0.41951  0.48460  Biso   1.000  H
  C70      1.0000 0.59478  0.91685  0.63941  Biso   1.000  C
  H70      1.0000 0.52016  0.83505  0.67423  Biso   1.000  H
  C71      1.0000 0.65137  0.89104  0.61352  Biso   1.000  C
  H71      1.0000 0.68338  0.76850  0.60171  Biso   1.000  H
  H72      1.0000 0.58799  0.56981  0.75861  Biso   1.000  H
  C72      1.0000 0.68461  0.52833  0.74950  Biso   1.000  C
  C73      1.0000 0.72700  0.54615  0.70447  Biso   1.000  C
  H73      1.0000 0.71115  0.62002  0.63639  Biso   1.000  H
  H74      1.0000 0.70508  0.31061  0.27689  Biso   1.000  H
  C74      1.0000 0.80320  0.30409  0.28364  Biso   1.000  C
  C75      1.0000 0.84771  0.42199  0.34360  Biso   1.000  C
  H75      1.0000 0.58071  0.97688  0.64549  Biso   1.000  H
  C76      1.0000 0.70561  0.94643  0.58781  Biso   1.000  C
  H76      1.0000 0.69351  0.49345  0.78401  Biso   1.000  H
  C77      1.0000 0.79558  0.51522  0.69470  Biso   1.000  C
  H77      1.0000 0.80811  0.25220  0.25953  Biso   1.000  H
  C78      1.0000 0.85661  0.34516  0.30891  Biso   1.000  C
  C79      1.0000 0.90368  0.47362  0.36705  Biso   1.000  C
  C80      1.0000 0.76728  0.93668  0.62436  Biso   1.000  C
  C81      1.0000 0.71718  0.91658  0.52306  Biso   1.000  C
  C82      1.0000 0.68581  0.04557  0.58718  Biso   1.000  C
  C83      1.0000 0.84362  0.58943  0.70678  Biso   1.000  C
  C84      1.0000 0.80954  0.43638  0.73698  Biso   1.000  C
  C85      1.0000 0.80256  0.48195  0.63000  Biso   1.000  C
  H78      1.0000 0.89867  0.32177  0.30283  Biso   1.000  H
  C86      1.0000 0.90649  0.51207  0.42380  Biso   1.000  C
  C87      1.0000 0.95488  0.49056  0.32868  Biso   1.000  C
  C88      1.0000 0.79613  0.99193  0.66526  Biso   1.000  C
  N12      1.0000 0.80726  0.86348  0.61774  Biso   1.000  N
  H79      1.0000 0.67760  0.92532  0.49934  Biso   1.000  H
  H80      1.0000 0.75204  0.95261  0.50631  Biso   1.000  H
  H81      1.0000 0.72928  0.85293  0.52252  Biso   1.000  H
  H82      1.0000 0.67891  0.06594  0.62795  Biso   1.000  H
  H83      1.0000 0.72003  0.08147  0.56933  Biso   1.000  H
  H84      1.0000 0.64576  0.05263  0.56387  Biso   1.000  H
  C89      1.0000 0.88970  0.60012  0.75039  Biso   1.000  C
  N13      1.0000 0.84808  0.66230  0.66943  Biso   1.000  N
  H85      1.0000 0.80800  0.45748  0.77815  Biso   1.000  H
  H86      1.0000 0.77709  0.38933  0.73058  Biso   1.000  H
  H87      1.0000 0.85253  0.41211  0.72912  Biso   1.000  H
  H88      1.0000 0.84679  0.46091  0.62404  Biso   1.000  H
  H89      1.0000 0.77231  0.43248  0.62240  Biso   1.000  H
  H90      1.0000 0.79303  0.53142  0.60251  Biso   1.000  H
  C90      1.0000 0.95721  0.57007  0.43992  Biso   1.000  C
  O7       1.0000 0.86136  0.49815  0.46701  Biso   1.000  O
  H91      1.0000 0.95489  0.46286  0.29071  Biso   1.000  H
  C91      1.0000 0.00522  0.54662  0.34489  Biso   1.000  C
  C92      1.0000 0.85439  0.95133  0.68409  Biso   1.000  C
  H92      1.0000 0.77983  0.04793  0.67867  Biso   1.000  H
  C93      1.0000 0.86101  0.87175  0.65384  Biso   1.000  C
  H93      1.0000 0.79518  0.81784  0.59882  Biso   1.000  H
  H94      1.0000 0.89793  0.56019  0.78254  Biso   1.000  H
  C94      1.0000 0.92307  0.68145  0.73911  Biso   1.000  C
  C95      1.0000 0.89607  0.71869  0.68902  Biso   1.000  C
  H95      1.0000 0.82368  0.67083  0.64429  Biso   1.000  H
  N14      1.0000 0.95666  0.60543  0.49801  Biso   1.000  N
  C96      1.0000 0.00650  0.58802  0.40022  Biso   1.000  C
  C97      1.0000 0.84166  0.40734  0.47887  Biso   1.000  C
  H96      1.0000 0.03922  0.55703  0.31802  Biso   1.000  H
  H97      1.0000 0.88397  0.97493  0.71273  Biso   1.000  H
  C98      1.0000 0.91444  0.80204  0.65455  Biso   1.000  C
  H98      1.0000 0.95776  0.70559  0.76216  Biso   1.000  H
  C99      1.0000 0.98954  0.67769  0.51968  Biso   1.000  C
  H99      1.0000 0.93048  0.58190  0.51981  Biso   1.000  H
  H100     1.0000 0.04052  0.62802  0.41088  Biso   1.000  H
  H101     1.0000 0.87700  0.36607  0.46972  Biso   1.000  H
  H102     1.0000 0.83072  0.40149  0.52084  Biso   1.000  H
  H103     1.0000 0.80380  0.39249  0.45409  Biso   1.000  H
  C100     1.0000 0.92919  0.77495  0.58954  Biso   1.000  C
  C101     1.0000 0.97453  0.84473  0.68417  Biso   1.000  C
  C102     1.0000 0.97830  0.69900  0.58399  Biso   1.000  C
  O8       1.0000 0.02477  0.72414  0.48908  Biso   1.000  O
  H104     1.0000 0.94553  0.82839  0.56835  Biso   1.000  H
  H105     1.0000 0.88843  0.75634  0.56955  Biso   1.000  H
  H106     1.0000 0.98624  0.89944  0.66259  Biso   1.000  H
  H107     1.0000 0.96508  0.85999  0.72548  Biso   1.000  H
  H108     1.0000 0.01046  0.80204  0.68329  Biso   1.000  H
  H109     1.0000 0.96223  0.64475  0.60446  Biso   1.000  H
  H110     1.0000 0.01953  0.71701  0.60339  Biso   1.000  H
  C103     1.0000 0.56089  0.66263  0.15557  Biso   1.000  C
  C104     1.0000 0.59480  0.58311  0.13940  Biso   1.000  C
  H111     1.0000 0.52018  0.66499  0.17422  Biso   1.000  H
  C105     1.0000 0.59741  0.73509  0.13940  Biso   1.000  C
  C106     1.0000 0.65140  0.60893  0.11351  Biso   1.000  C
  H112     1.0000 0.58073  0.52309  0.14549  Biso   1.000  H
  N15      1.0000 0.65221  0.70175  0.11324  Biso   1.000  N
  C107     1.0000 0.58325  0.83505  0.14367  Biso   1.000  C
  C108     1.0000 0.70568  0.55361  0.08784  Biso   1.000  C
  H113     1.0000 0.68341  0.73153  0.10170  Biso   1.000  H
  C109     1.0000 0.63179  0.88519  0.18212  Biso   1.000  C
  C110     1.0000 0.51622  0.84708  0.17107  Biso   1.000  C
  C111     1.0000 0.58420  0.87941  0.08123  Biso   1.000  C
  C112     1.0000 0.76730  0.56329  0.12435  Biso   1.000  C
  C113     1.0000 0.68583  0.45446  0.08718  Biso   1.000  C
  C114     1.0000 0.71725  0.58345  0.02305  Biso   1.000  C
  C115     1.0000 0.62574  0.92888  0.23519  Biso   1.000  C
  N16      1.0000 0.69408  0.90146  0.16400  Biso   1.000  N
  H114     1.0000 0.48407  0.81387  0.14735  Biso   1.000  H
  H115     1.0000 0.50493  0.91100  0.17147  Biso   1.000  H
  H116     1.0000 0.51703  0.82389  0.21179  Biso   1.000  H
  H117     1.0000 0.57488  0.94434  0.08558  Biso   1.000  H
  H118     1.0000 0.62820  0.87370  0.06524  Biso   1.000  H
  C116     1.0000 0.53666  0.84002  0.03677  Biso   1.000  C
  C117     1.0000 0.79615  0.50810  0.16525  Biso   1.000  C
  N17      1.0000 0.80728  0.63655  0.11773  Biso   1.000  N
  H119     1.0000 0.67893  0.43403  0.12794  Biso   1.000  H
  H120     1.0000 0.72005  0.41850  0.06932  Biso   1.000  H
  H121     1.0000 0.64583  0.44733  0.06386  Biso   1.000  H
  H122     1.0000 0.75206  0.54742  0.00631  Biso   1.000  H
  H123     1.0000 0.72935  0.64711  0.02252  Biso   1.000  H
  H124     1.0000 0.67757  0.57471  0.99933  Biso   1.000  H
  H125     1.0000 0.58802  0.93016  0.25860  Biso   1.000  H
  C118     1.0000 0.68464  0.97170  0.24949  Biso   1.000  C
  C119     1.0000 0.72707  0.95389  0.20446  Biso   1.000  C
  H126     1.0000 0.71117  0.88002  0.13638  Biso   1.000  H
  H127     1.0000 0.54755  0.77583  0.03100  Biso   1.000  H
  H128     1.0000 0.49308  0.84251  0.05400  Biso   1.000  H
  C120     1.0000 0.53399  0.88499  0.97673  Biso   1.000  C
  C121     1.0000 0.85441  0.54870  0.18408  Biso   1.000  C
  H129     1.0000 0.77986  0.45211  0.17866  Biso   1.000  H
  C122     1.0000 0.86103  0.62829  0.15388  Biso   1.000  C
  H130     1.0000 0.79520  0.68219  0.09881  Biso   1.000  H
  H131     1.0000 0.69358  0.00659  0.28400  Biso   1.000  H
  C123     1.0000 0.79560  0.98481  0.19469  Biso   1.000  C
  N18      1.0000 0.59157  0.90993  0.95444  Biso   1.000  N
  O9       1.0000 0.48365  0.89951  0.95035  Biso   1.000  O
  H132     1.0000 0.88399  0.52511  0.21277  Biso   1.000  H
  C124     1.0000 0.91446  0.69799  0.15455  Biso   1.000  C
  C125     1.0000 0.84364  0.91053  0.20677  Biso   1.000  C
  C126     1.0000 0.80961  0.06359  0.23697  Biso   1.000  C
  C127     1.0000 0.80259  0.01808  0.12999  Biso   1.000  C
  C128     1.0000 0.60282  0.94871  0.89812  Biso   1.000  C
  H133     1.0000 0.62684  0.90798  0.97740  Biso   1.000  H
  C129     1.0000 0.89609  0.78134  0.18901  Biso   1.000  C
  C130     1.0000 0.97456  0.65524  0.18417  Biso   1.000  C
  C131     1.0000 0.92921  0.72508  0.08953  Biso   1.000  C
  N19      1.0000 0.84815  0.83774  0.16942  Biso   1.000  N
  C132     1.0000 0.88972  0.89991  0.25038  Biso   1.000  C
  H134     1.0000 0.80802  0.04255  0.27814  Biso   1.000  H
  H135     1.0000 0.77712  0.11071  0.23057  Biso   1.000  H
  H136     1.0000 0.85255  0.08792  0.22915  Biso   1.000  H
  H137     1.0000 0.79305  0.96854  0.10250  Biso   1.000  H
  H138     1.0000 0.84682  0.03912  0.12404  Biso   1.000  H
  H139     1.0000 0.77238  0.06755  0.12244  Biso   1.000  H
  C133     1.0000 0.56700  0.92472  0.84834  Biso   1.000  C
  C134     1.0000 0.65478  0.00766  0.89284  Biso   1.000  C
  C135     1.0000 0.92309  0.81858  0.23910  Biso   1.000  C
  H140     1.0000 0.98626  0.60059  0.16263  Biso   1.000  H
  H141     1.0000 0.96515  0.64005  0.22547  Biso   1.000  H
  H142     1.0000 0.01053  0.69799  0.18328  Biso   1.000  H
  C136     1.0000 0.97832  0.80104  0.08398  Biso   1.000  C
  H143     1.0000 0.94555  0.67164  0.06835  Biso   1.000  H
  H144     1.0000 0.88845  0.74370  0.06955  Biso   1.000  H
  H145     1.0000 0.82370  0.82920  0.14429  Biso   1.000  H
  H146     1.0000 0.89795  0.93984  0.28253  Biso   1.000  H
  C137     1.0000 0.58348  0.95940  0.79350  Biso   1.000  C
  H147     1.0000 0.53140  0.88479  0.85163  Biso   1.000  H
  C138     1.0000 0.67419  0.03818  0.83693  Biso   1.000  C
  O10      1.0000 0.69003  0.03200  0.94302  Biso   1.000  O
  H148     1.0000 0.95778  0.79445  0.26215  Biso   1.000  H
  C139     1.0000 0.98956  0.82234  0.01967  Biso   1.000  C
  H149     1.0000 0.96225  0.85528  0.10445  Biso   1.000  H
  H150     1.0000 0.01955  0.78295  0.10339  Biso   1.000  H
  H151     1.0000 0.55766  0.94522  0.75948  Biso   1.000  H
  C140     1.0000 0.63683  0.01418  0.78754  Biso   1.000  C
  C141     1.0000 0.73676  0.08456  0.82871  Biso   1.000  C
  C142     1.0000 0.65961  0.09807  0.97784  Biso   1.000  C
  N20      1.0000 0.95663  0.89460  0.99800  Biso   1.000  N
  O11      1.0000 0.02474  0.77590  0.98908  Biso   1.000  O
  H152     1.0000 0.64808  0.03569  0.74935  Biso   1.000  H
  C143     1.0000 0.74233  0.16139  0.79363  Biso   1.000  C
  N21      1.0000 0.78875  0.04369  0.85318  Biso   1.000  N
  H153     1.0000 0.66042  0.15588  0.95697  Biso   1.000  H
  H154     1.0000 0.61476  0.08053  0.98459  Biso   1.000  H
  H155     1.0000 0.68262  0.10378  0.01608  Biso   1.000  H
  H156     1.0000 0.93050  0.91813  0.01981  Biso   1.000  H
  C144     1.0000 0.95718  0.92996  0.93987  Biso   1.000  C
  H157     1.0000 0.70505  0.18935  0.77689  Biso   1.000  H
  C145     1.0000 0.80313  0.19594  0.78364  Biso   1.000  C
  C146     1.0000 0.84768  0.07804  0.84359  Biso   1.000  C
  C147     1.0000 0.90646  0.98790  0.92379  Biso   1.000  C
  C148     1.0000 0.00647  0.91201  0.90021  Biso   1.000  C
  H158     1.0000 0.80808  0.24777  0.75952  Biso   1.000  H
  C149     1.0000 0.85658  0.15487  0.80886  Biso   1.000  C
  C150     1.0000 0.90366  0.02642  0.86704  Biso   1.000  C
  O12      1.0000 0.86133  0.00181  0.96700  Biso   1.000  O
  H159     1.0000 0.04050  0.87202  0.91087  Biso   1.000  H
  C151     1.0000 0.00515  0.95342  0.84488  Biso   1.000  C
  H160     1.0000 0.89859  0.17826  0.80282  Biso   1.000  H
  C152     1.0000 0.95485  0.00941  0.82867  Biso   1.000  C
  C153     1.0000 0.84163  0.09269  0.97886  Biso   1.000  C
  H161     1.0000 0.03919  0.94300  0.81801  Biso   1.000  H
  H162     1.0000 0.95486  0.03717  0.79070  Biso   1.000  H
  H163     1.0000 0.87697  0.13390  0.96971  Biso   1.000  H
  H164     1.0000 0.80377  0.10755  0.95408  Biso   1.000  H
  H165     1.0000 0.83074  0.09854  0.02083  Biso   1.000  H
  C154     1.0000 0.43906  0.33737  0.84445  Biso   1.000  C
  C155     1.0000 0.40250  0.26491  0.86061  Biso   1.000  C
  C156     1.0000 0.40516  0.41689  0.86057  Biso   1.000  C
  H166     1.0000 0.47977  0.33501  0.82580  Biso   1.000  H
  C157     1.0000 0.41670  0.16495  0.85631  Biso   1.000  C
  N22      1.0000 0.34775  0.29825  0.88673  Biso   1.000  N
  C158     1.0000 0.34851  0.39107  0.88646  Biso   1.000  C
  H167     1.0000 0.41918  0.47691  0.85453  Biso   1.000  H
  C159     1.0000 0.36817  0.11488  0.81789  Biso   1.000  C
  C160     1.0000 0.48369  0.15299  0.82895  Biso   1.000  C
  C161     1.0000 0.41575  0.12059  0.91875  Biso   1.000  C
  H168     1.0000 0.31655  0.26854  0.89832  Biso   1.000  H
  C162     1.0000 0.29428  0.44646  0.91217  Biso   1.000  C
  C163     1.0000 0.37421  0.07112  0.76478  Biso   1.000  C
  N23      1.0000 0.30583  0.09854  0.83601  Biso   1.000  N
  H169     1.0000 0.51589  0.18613  0.85266  Biso   1.000  H
  H170     1.0000 0.49503  0.08900  0.82855  Biso   1.000  H
  H171     1.0000 0.48293  0.17618  0.78823  Biso   1.000  H
  H172     1.0000 0.42503  0.05566  0.91439  Biso   1.000  H
  H173     1.0000 0.37176  0.12630  0.93478  Biso   1.000  H
  C164     1.0000 0.46325  0.15998  0.96320  Biso   1.000  C
  C165     1.0000 0.23265  0.43671  0.87567  Biso   1.000  C
  C166     1.0000 0.31412  0.54554  0.91280  Biso   1.000  C
  C167     1.0000 0.28271  0.41655  0.97697  Biso   1.000  C
  C168     1.0000 0.31527  0.02830  0.75048  Biso   1.000  C
  H174     1.0000 0.41194  0.06984  0.74142  Biso   1.000  H
  C169     1.0000 0.27289  0.04611  0.79555  Biso   1.000  C
  H175     1.0000 0.28874  0.11998  0.86359  Biso   1.000  H
  H176     1.0000 0.45240  0.22424  0.96902  Biso   1.000  H
  H177     1.0000 0.50688  0.15749  0.94601  Biso   1.000  H
  C170     1.0000 0.46592  0.11501  0.02329  Biso   1.000  C
  N24      1.0000 0.19268  0.36345  0.88229  Biso   1.000  N
  C171     1.0000 0.20375  0.49197  0.83477  Biso   1.000  C
  H178     1.0000 0.32098  0.56597  0.87203  Biso   1.000  H
  H179     1.0000 0.27986  0.58150  0.93065  Biso   1.000  H
  H180     1.0000 0.35413  0.55267  0.93616  Biso   1.000  H
  H181     1.0000 0.24785  0.45258  0.99371  Biso   1.000  H
  H182     1.0000 0.27061  0.35289  0.97750  Biso   1.000  H
  H183     1.0000 0.32238  0.42529  0.00068  Biso   1.000  H
  H184     1.0000 0.30637  0.99348  0.71597  Biso   1.000  H
  C172     1.0000 0.20436  0.01519  0.80528  Biso   1.000  C
  N25      1.0000 0.40839  0.09007  0.04554  Biso   1.000  N
  O13      1.0000 0.51631  0.10049  0.04967  Biso   1.000  O
  C173     1.0000 0.13888  0.37171  0.84614  Biso   1.000  C
  H185     1.0000 0.20476  0.31781  0.90120  Biso   1.000  H
  C174     1.0000 0.14555  0.45130  0.81594  Biso   1.000  C
  H186     1.0000 0.22010  0.54789  0.82131  Biso   1.000  H
  C175     1.0000 0.15627  0.08947  0.79320  Biso   1.000  C
  C176     1.0000 0.19035  0.93641  0.76305  Biso   1.000  C
  C177     1.0000 0.19732  0.98199  0.87003  Biso   1.000  C
  C178     1.0000 0.39714  0.05129  0.10189  Biso   1.000  C
  H187     1.0000 0.37312  0.09202  0.02262  Biso   1.000  H
  C179     1.0000 0.08550  0.30201  0.84547  Biso   1.000  C
  H188     1.0000 0.11591  0.47489  0.78725  Biso   1.000  H
  C180     1.0000 0.11019  0.10015  0.74963  Biso   1.000  C
  N26      1.0000 0.15181  0.16233  0.83055  Biso   1.000  N
  H189     1.0000 0.19194  0.95745  0.72188  Biso   1.000  H
  H190     1.0000 0.22279  0.88929  0.76944  Biso   1.000  H
  H191     1.0000 0.14740  0.91208  0.77086  Biso   1.000  H
  H192     1.0000 0.20691  0.03146  0.89752  Biso   1.000  H
  H193     1.0000 0.15309  0.96095  0.87594  Biso   1.000  H
  H194     1.0000 0.22757  0.93245  0.87758  Biso   1.000  H
  C181     1.0000 0.34513  0.99234  0.10713  Biso   1.000  C
  C182     1.0000 0.43296  0.07528  0.15167  Biso   1.000  C
  C183     1.0000 0.10386  0.21866  0.81101  Biso   1.000  C
  C184     1.0000 0.02540  0.34476  0.81585  Biso   1.000  C
  C185     1.0000 0.07075  0.27492  0.91049  Biso   1.000  C
  H195     1.0000 0.10201  0.06016  0.71748  Biso   1.000  H
  C186     1.0000 0.07687  0.18142  0.76091  Biso   1.000  C
  H196     1.0000 0.17626  0.17080  0.85568  Biso   1.000  H
  C187     1.0000 0.32577  0.96189  0.16309  Biso   1.000  C
  O14      1.0000 0.30988  0.96800  0.05699  Biso   1.000  O
  C188     1.0000 0.41648  0.04060  0.20652  Biso   1.000  C
  H197     1.0000 0.46851  0.11521  0.14839  Biso   1.000  H
  H198     1.0000 0.01365  0.39941  0.83739  Biso   1.000  H
  H199     1.0000 0.03481  0.35995  0.77455  Biso   1.000  H
  H200     1.0000 0.98942  0.30201  0.81674  Biso   1.000  H
  C189     1.0000 0.02159  0.19896  0.91599  Biso   1.000  C
  H201     1.0000 0.05440  0.32836  0.93167  Biso   1.000  H
  H202     1.0000 0.11151  0.25630  0.93043  Biso   1.000  H
  H203     1.0000 0.04218  0.20562  0.73787  Biso   1.000  H
  C190     1.0000 0.36313  0.98582  0.21247  Biso   1.000  C
  C191     1.0000 0.26320  0.91544  0.17130  Biso   1.000  C
  C192     1.0000 0.34035  0.90193  0.02218  Biso   1.000  C
  H204     1.0000 0.44225  0.05478  0.24054  Biso   1.000  H
  C193     1.0000 0.01040  0.17766  0.98030  Biso   1.000  C
  H205     1.0000 0.03771  0.14472  0.89556  Biso   1.000  H
  H206     1.0000 0.98036  0.21705  0.89663  Biso   1.000  H
  H207     1.0000 0.35188  0.96437  0.25066  Biso   1.000  H
  C194     1.0000 0.25758  0.83868  0.20639  Biso   1.000  C
  N27      1.0000 0.21121  0.95631  0.14683  Biso   1.000  N
  H208     1.0000 0.31734  0.89622  0.98394  Biso   1.000  H
  H209     1.0000 0.33949  0.84412  0.04305  Biso   1.000  H
  H210     1.0000 0.38514  0.91954  0.01543  Biso   1.000  H
  O15      1.0000 0.97522  0.22417  0.01094  Biso   1.000  O
  N28      1.0000 0.04332  0.10540  0.00201  Biso   1.000  N
  H211     1.0000 0.29491  0.81065  0.22313  Biso   1.000  H
  C195     1.0000 0.19678  0.80406  0.21638  Biso   1.000  C
  C196     1.0000 0.15228  0.92196  0.15643  Biso   1.000  C
  H212     1.0000 0.06945  0.08187  0.98021  Biso   1.000  H
  C197     1.0000 0.04277  0.07004  0.06010  Biso   1.000  C
  H213     1.0000 0.19188  0.75223  0.24049  Biso   1.000  H
  C198     1.0000 0.14338  0.84513  0.19111  Biso   1.000  C
  C199     1.0000 0.09630  0.97365  0.13298  Biso   1.000  C
  C200     1.0000 0.99344  0.08806  0.09980  Biso   1.000  C
  C201     1.0000 0.09350  0.01210  0.07622  Biso   1.000  C
  H214     1.0000 0.10132  0.82174  0.19719  Biso   1.000  H
  C202     1.0000 0.04510  0.99059  0.17135  Biso   1.000  C
  H215     1.0000 0.95941  0.12798  0.08915  Biso   1.000  H
  C203     1.0000 0.99476  0.04665  0.15514  Biso   1.000  C
  O16      1.0000 0.13857  0.99819  0.03301  Biso   1.000  O
  H216     1.0000 0.04509  0.96283  0.20932  Biso   1.000  H
  H217     1.0000 0.96077  0.05700  0.18201  Biso   1.000  H
  C204     1.0000 0.15833  0.90731  0.02116  Biso   1.000  C
  H218     1.0000 0.16922  0.90153  0.97914  Biso   1.000  H
  H219     1.0000 0.12299  0.86610  0.03026  Biso   1.000  H
  H220     1.0000 0.19619  0.89245  0.04594  Biso   1.000  H
  Ne1      1.0000 0.23729  0.36852  0.46337  Biso   1.000  Ne
  He1      1.0000 0.24292  0.33242  0.51270  Biso   1.000  He
  He2      1.0000 0.33636  0.52229  0.41118  Biso   1.000  He
  He3      1.0000 0.07486  0.47666  0.40210  Biso   1.000  He
  He4      1.0000 0.24360  0.27860  0.38344  Biso   1.000  He
  Ar1      1.0000 0.24282  0.34000  0.49190  Biso   1.000  Ar
  Ne2      1.0000 0.76264  0.63149  0.53663  Biso   1.000  Ne
  He5      1.0000 0.75246  0.71492  0.62112  Biso   1.000  He
  He6      1.0000 0.66646  0.48234  0.58605  Biso   1.000  He
  He7      1.0000 0.92771  0.52018  0.59816  Biso   1.000  He
  He8      1.0000 0.75701  0.67337  0.47235  Biso   1.000  He
  Ar2      1.0000 0.75924  0.66474  0.49927  Biso   1.000  Ar
  Ne3      1.0000 0.76265  0.86852  0.03663  Biso   1.000  Ne
  He9      1.0000 0.75501  0.76949  0.13020  Biso   1.000  He
  He10     1.0000 0.66561  0.01904  0.08688  Biso   1.000  He
  He11     1.0000 0.87845  0.91279  0.08508  Biso   1.000  He
  He12     1.0000 0.75700  0.83221  0.98684  Biso   1.000  He
  Ar3      1.0000 0.75698  0.84008  0.00811  Biso   1.000  Ar
  Ne4      1.0000 0.23729  0.13149  0.96338  Biso   1.000  Ne
  He13     1.0000 0.24294  0.16926  0.01706  Biso   1.000  He
  He14     1.0000 0.33292  0.98322  0.91450  Biso   1.000  He
  He15     1.0000 0.07634  0.02512  0.90224  Biso   1.000  He
  He16     1.0000 0.24773  0.21565  0.87737  Biso   1.000  He
  Ar4      1.0000 0.24303  0.16314  0.00086  Biso   1.000  Ar
