data_image0
_cell_length_a       11.063
_cell_length_b       18.425
_cell_length_c       22.445
_cell_angle_alpha    90
_cell_angle_beta     100.97
_cell_angle_gamma    90

_symmetry_space_group_name_H-M    "P 1"
_symmetry_int_tables_number       1

loop_
  _symmetry_equiv_pos_as_xyz
  'x, y, z'

loop_
  _atom_site_label
  _atom_site_occupancy
  _atom_site_fract_x
  _atom_site_fract_y
  _atom_site_fract_z
  _atom_site_thermal_displace_type
  _atom_site_B_iso_or_equiv
  _atom_site_type_symbol
  C1       1.0000 0.63751  0.44125  0.51736  Biso   1.000  C
  C2       1.0000 0.58178  0.42008  0.45755  Biso   1.000  C
  C3       1.0000 0.73828  0.49297  0.52553  Biso   1.000  C
  N1       1.0000 0.59970  0.41455  0.56669  Biso   1.000  N
  C4       1.0000 0.48323  0.37118  0.45069  Biso   1.000  C
  C5       1.0000 0.62770  0.44749  0.40649  Biso   1.000  C
  C6       1.0000 0.78067  0.51805  0.47330  Biso   1.000  C
  N2       1.0000 0.78620  0.51609  0.58221  Biso   1.000  N
  C7       1.0000 0.50505  0.36863  0.55871  Biso   1.000  C
  H1       1.0000 0.44436  0.35582  0.41135  Biso   1.000  H
  C8       1.0000 0.44272  0.34573  0.50075  Biso   1.000  C
  C9       1.0000 0.72349  0.49341  0.41393  Biso   1.000  C
  H2       1.0000 0.58973  0.43305  0.36669  Biso   1.000  H
  C10      1.0000 0.87997  0.56700  0.48233  Biso   1.000  C
  C11      1.0000 0.87839  0.56288  0.58780  Biso   1.000  C
  C12      1.0000 0.47433  0.33655  0.61516  Biso   1.000  C
  H3       1.0000 0.37461  0.31343  0.49667  Biso   1.000  H
  H4       1.0000 0.75376  0.50991  0.37949  Biso   1.000  H
  C13      1.0000 0.92916  0.58953  0.53951  Biso   1.000  C
  H5       1.0000 0.91254  0.58421  0.44870  Biso   1.000  H
  C14      1.0000 0.93579  0.58931  0.65079  Biso   1.000  C
  O1       1.0000 0.35218  0.32505  0.60831  Biso   1.000  O
  O2       1.0000 0.54953  0.32261  0.65941  Biso   1.000  O
  H6       1.0000 0.99642  0.62247  0.54654  Biso   1.000  H
  O3       1.0000 0.86328  0.57943  0.69150  Biso   1.000  O
  O4       1.0000 0.03607  0.61720  0.66236  Biso   1.000  O
  C15      1.0000 0.31134  0.28581  0.65750  Biso   1.000  C
  C16      1.0000 0.91859  0.60109  0.75303  Biso   1.000  C
  H7       1.0000 0.22564  0.26909  0.64321  Biso   1.000  H
  H8       1.0000 0.36366  0.24233  0.66776  Biso   1.000  H
  C17      1.0000 0.31646  0.33123  0.71432  Biso   1.000  C
  C18      1.0000 0.82955  0.58225  0.79424  Biso   1.000  C
  H9       1.0000 0.99752  0.57520  0.76642  Biso   1.000  H
  H10      1.0000 0.93526  0.65389  0.75453  Biso   1.000  H
  H11      1.0000 0.40305  0.34301  0.73211  Biso   1.000  H
  H12      1.0000 0.27141  0.37737  0.70393  Biso   1.000  H
  C19      1.0000 0.25795  0.28879  0.76061  Biso   1.000  C
  C20      1.0000 0.88923  0.59821  0.86032  Biso   1.000  C
  H13      1.0000 0.75333  0.61123  0.78271  Biso   1.000  H
  H14      1.0000 0.80719  0.53020  0.78970  Biso   1.000  H
  C21      1.0000 0.31222  0.30318  0.82860  Biso   1.000  C
  H15      1.0000 0.16891  0.30030  0.75335  Biso   1.000  H
  H16      1.0000 0.26575  0.23631  0.75272  Biso   1.000  H
  C22      1.0000 0.83099  0.55978  0.90965  Biso   1.000  C
  H17      1.0000 0.97714  0.58415  0.86631  Biso   1.000  H
  H18      1.0000 0.88615  0.65129  0.86685  Biso   1.000  H
  C23      1.0000 0.29696  0.38111  0.84525  Biso   1.000  C
  C24      1.0000 0.44633  0.28071  0.84162  Biso   1.000  C
  C25      1.0000 0.23959  0.25536  0.86595  Biso   1.000  C
  C26      1.0000 0.69889  0.58361  0.90534  Biso   1.000  C
  C27      1.0000 0.84167  0.47875  0.90266  Biso   1.000  C
  C28      1.0000 0.90517  0.58318  0.97160  Biso   1.000  C
  C29      1.0000 0.22122  0.41265  0.87947  Biso   1.000  C
  N3       1.0000 0.36023  0.43642  0.82301  Biso   1.000  N
  C30      1.0000 0.50863  0.23316  0.81149  Biso   1.000  C
  N4       1.0000 0.52679  0.30442  0.89222  Biso   1.000  N
  H19      1.0000 0.27088  0.26328  0.90929  Biso   1.000  H
  H20      1.0000 0.15218  0.26822  0.85610  Biso   1.000  H
  H21      1.0000 0.24980  0.20412  0.85610  Biso   1.000  H
  C31      1.0000 0.65086  0.63881  0.93497  Biso   1.000  C
  N5       1.0000 0.60411  0.55588  0.86259  Biso   1.000  N
  C32      1.0000 0.92009  0.43929  0.87539  Biso   1.000  C
  N6       1.0000 0.77538  0.42991  0.93066  Biso   1.000  N
  H22      1.0000 0.99226  0.57113  0.97382  Biso   1.000  H
  H23      1.0000 0.89677  0.63571  0.97654  Biso   1.000  H
  H24      1.0000 0.87418  0.55777  0.00395  Biso   1.000  H
  C33      1.0000 0.23845  0.48906  0.87775  Biso   1.000  C
  H25      1.0000 0.16691  0.38784  0.90057  Biso   1.000  H
  C34      1.0000 0.32429  0.50280  0.84253  Biso   1.000  C
  H26      1.0000 0.41520  0.43023  0.79987  Biso   1.000  H
  H27      1.0000 0.47580  0.20787  0.77514  Biso   1.000  H
  C35      1.0000 0.63213  0.22860  0.84480  Biso   1.000  C
  C36      1.0000 0.64119  0.27289  0.89449  Biso   1.000  C
  H28      1.0000 0.50845  0.33514  0.91918  Biso   1.000  H
  H29      1.0000 0.69425  0.66773  0.96706  Biso   1.000  H
  C37      1.0000 0.52303  0.64434  0.90824  Biso   1.000  C
  C38      1.0000 0.49635  0.59246  0.86395  Biso   1.000  C
  H30      1.0000 0.61155  0.51978  0.83785  Biso   1.000  H
  C39      1.0000 0.90241  0.36494  0.88696  Biso   1.000  C
  H31      1.0000 0.97681  0.45840  0.85256  Biso   1.000  H
  C40      1.0000 0.81205  0.36011  0.92122  Biso   1.000  C
  H32      1.0000 0.71832  0.44168  0.95145  Biso   1.000  H
  H33      1.0000 0.19757  0.52440  0.89758  Biso   1.000  H
  C41      1.0000 0.37540  0.57319  0.82251  Biso   1.000  C
  H34      1.0000 0.69635  0.19989  0.83436  Biso   1.000  H
  C42      1.0000 0.75271  0.29330  0.94219  Biso   1.000  C
  H35      1.0000 0.46645  0.67826  0.91927  Biso   1.000  H
  H36      1.0000 0.94529  0.32537  0.87348  Biso   1.000  H
  C43      1.0000 0.28308  0.63479  0.82569  Biso   1.000  C
  C44      1.0000 0.39245  0.56695  0.75685  Biso   1.000  C
  C45      1.0000 0.84563  0.23001  0.94827  Biso   1.000  C
  C46      1.0000 0.71977  0.30562  0.00436  Biso   1.000  C
  H37      1.0000 0.31820  0.68098  0.81553  Biso   1.000  H
  H38      1.0000 0.20656  0.62518  0.79678  Biso   1.000  H
  H39      1.0000 0.26570  0.63750  0.86685  Biso   1.000  H
  H40      1.0000 0.45243  0.52868  0.75371  Biso   1.000  H
  H41      1.0000 0.31335  0.55479  0.73084  Biso   1.000  H
  H42      1.0000 0.42220  0.61330  0.74378  Biso   1.000  H
  H43      1.0000 0.86657  0.21981  0.90861  Biso   1.000  H
  H44      1.0000 0.92034  0.24331  0.97718  Biso   1.000  H
  H45      1.0000 0.80879  0.18670  0.96288  Biso   1.000  H
  H46      1.0000 0.66070  0.34567  0.00191  Biso   1.000  H
  H47      1.0000 0.68302  0.26138  0.01734  Biso   1.000  H
  H48      1.0000 0.79440  0.31777  0.03377  Biso   1.000  H
  C47      1.0000 0.36251  0.55875  0.48264  Biso   1.000  C
  C48      1.0000 0.26173  0.50703  0.47448  Biso   1.000  C
  C49      1.0000 0.41823  0.57992  0.54246  Biso   1.000  C
  N7       1.0000 0.40032  0.58545  0.43331  Biso   1.000  N
  N8       1.0000 0.21382  0.48391  0.41779  Biso   1.000  N
  C50      1.0000 0.21928  0.48195  0.52676  Biso   1.000  C
  C51      1.0000 0.37232  0.55251  0.59351  Biso   1.000  C
  C52      1.0000 0.51679  0.62882  0.54931  Biso   1.000  C
  C53      1.0000 0.49499  0.63137  0.44135  Biso   1.000  C
  C54      1.0000 0.12165  0.43712  0.41226  Biso   1.000  C
  C55      1.0000 0.12007  0.43300  0.51773  Biso   1.000  C
  C56      1.0000 0.27653  0.50659  0.58607  Biso   1.000  C
  H49      1.0000 0.41029  0.56695  0.63331  Biso   1.000  H
  H50      1.0000 0.55568  0.64418  0.58870  Biso   1.000  H
  C57      1.0000 0.55732  0.65427  0.49930  Biso   1.000  C
  C58      1.0000 0.52569  0.66345  0.38484  Biso   1.000  C
  C59      1.0000 0.06425  0.41069  0.34926  Biso   1.000  C
  C60      1.0000 0.07085  0.41047  0.46050  Biso   1.000  C
  H51      1.0000 0.08747  0.41579  0.55131  Biso   1.000  H
  H52      1.0000 0.24618  0.49009  0.62056  Biso   1.000  H
  H53      1.0000 0.62540  0.68657  0.50334  Biso   1.000  H
  O5       1.0000 0.64775  0.67495  0.39170  Biso   1.000  O
  O6       1.0000 0.45049  0.67739  0.34060  Biso   1.000  O
  O7       1.0000 0.13674  0.42057  0.30851  Biso   1.000  O
  O8       1.0000 0.96396  0.38280  0.33769  Biso   1.000  O
  H54      1.0000 0.00362  0.37753  0.45351  Biso   1.000  H
  C61      1.0000 0.68868  0.71419  0.34250  Biso   1.000  C
  C62      1.0000 0.08143  0.39891  0.24697  Biso   1.000  C
  C63      1.0000 0.68356  0.66877  0.28568  Biso   1.000  C
  H55      1.0000 0.77438  0.73091  0.35680  Biso   1.000  H
  H56      1.0000 0.63636  0.75767  0.33225  Biso   1.000  H
  C64      1.0000 0.17048  0.41775  0.20581  Biso   1.000  C
  H57      1.0000 0.00250  0.42480  0.23358  Biso   1.000  H
  H58      1.0000 0.06478  0.34611  0.24552  Biso   1.000  H
  C65      1.0000 0.74207  0.71121  0.23939  Biso   1.000  C
  H59      1.0000 0.59687  0.65699  0.26789  Biso   1.000  H
  H60      1.0000 0.72863  0.62263  0.29612  Biso   1.000  H
  C66      1.0000 0.11080  0.40179  0.13973  Biso   1.000  C
  H61      1.0000 0.24669  0.38877  0.21729  Biso   1.000  H
  H62      1.0000 0.19283  0.46980  0.21030  Biso   1.000  H
  C67      1.0000 0.68782  0.69682  0.17146  Biso   1.000  C
  H63      1.0000 0.83110  0.69970  0.24665  Biso   1.000  H
  H64      1.0000 0.73427  0.76369  0.24729  Biso   1.000  H
  C68      1.0000 0.16903  0.44022  0.09036  Biso   1.000  C
  H65      1.0000 0.02287  0.41585  0.13370  Biso   1.000  H
  H66      1.0000 0.11378  0.34871  0.13315  Biso   1.000  H
  C69      1.0000 0.70306  0.61889  0.15475  Biso   1.000  C
  C70      1.0000 0.55369  0.71929  0.15839  Biso   1.000  C
  C71      1.0000 0.76035  0.74464  0.13411  Biso   1.000  C
  C72      1.0000 0.30112  0.41639  0.09467  Biso   1.000  C
  C73      1.0000 0.15826  0.52125  0.09735  Biso   1.000  C
  C74      1.0000 0.09476  0.41682  0.02841  Biso   1.000  C
  N9       1.0000 0.63979  0.56358  0.17699  Biso   1.000  N
  C75      1.0000 0.77881  0.58735  0.12058  Biso   1.000  C
  N10      1.0000 0.47314  0.69558  0.10778  Biso   1.000  N
  C76      1.0000 0.49139  0.76684  0.18852  Biso   1.000  C
  H67      1.0000 0.72914  0.73672  0.09072  Biso   1.000  H
  H68      1.0000 0.84784  0.73178  0.14391  Biso   1.000  H
  H69      1.0000 0.75013  0.79588  0.14391  Biso   1.000  H
  C77      1.0000 0.34916  0.36119  0.06503  Biso   1.000  C
  N11      1.0000 0.39591  0.44412  0.13742  Biso   1.000  N
  C78      1.0000 0.07993  0.56071  0.12462  Biso   1.000  C
  N12      1.0000 0.22464  0.57009  0.06934  Biso   1.000  N
  H70      1.0000 0.00776  0.42887  0.02619  Biso   1.000  H
  H71      1.0000 0.10325  0.36429  0.02346  Biso   1.000  H
  H72      1.0000 0.12585  0.44223  0.99610  Biso   1.000  H
  C79      1.0000 0.67564  0.49720  0.15748  Biso   1.000  C
  H73      1.0000 0.58483  0.56977  0.20018  Biso   1.000  H
  C80      1.0000 0.76157  0.51094  0.12226  Biso   1.000  C
  H74      1.0000 0.83311  0.61216  0.09943  Biso   1.000  H
  C81      1.0000 0.35882  0.72711  0.10551  Biso   1.000  C
  H75      1.0000 0.49159  0.66486  0.08087  Biso   1.000  H
  C82      1.0000 0.36789  0.77140  0.15521  Biso   1.000  C
  H76      1.0000 0.52422  0.79213  0.22487  Biso   1.000  H
  H77      1.0000 0.30577  0.33227  0.03295  Biso   1.000  H
  C83      1.0000 0.47699  0.35566  0.09176  Biso   1.000  C
  C84      1.0000 0.50367  0.40754  0.13606  Biso   1.000  C
  H78      1.0000 0.38846  0.48022  0.16215  Biso   1.000  H
  C85      1.0000 0.09761  0.63506  0.11305  Biso   1.000  C
  H79      1.0000 0.02321  0.54160  0.14745  Biso   1.000  H
  C86      1.0000 0.18797  0.63989  0.07878  Biso   1.000  C
  H80      1.0000 0.28161  0.55832  0.04856  Biso   1.000  H
  C87      1.0000 0.62461  0.42681  0.17749  Biso   1.000  C
  H81      1.0000 0.80245  0.47560  0.10243  Biso   1.000  H
  C88      1.0000 0.24732  0.70670  0.05786  Biso   1.000  C
  H82      1.0000 0.30367  0.80011  0.16565  Biso   1.000  H
  H83      1.0000 0.53357  0.32174  0.08074  Biso   1.000  H
  H84      1.0000 0.05474  0.67463  0.12657  Biso   1.000  H
  C89      1.0000 0.71685  0.36521  0.17431  Biso   1.000  C
  C90      1.0000 0.60757  0.43305  0.24316  Biso   1.000  C
  C91      1.0000 0.15439  0.76999  0.05174  Biso   1.000  C
  C92      1.0000 0.28025  0.69438  0.99564  Biso   1.000  C
  H85      1.0000 0.68182  0.31902  0.18448  Biso   1.000  H
  H86      1.0000 0.79346  0.37482  0.20322  Biso   1.000  H
  H87      1.0000 0.73431  0.36250  0.13315  Biso   1.000  H
  H88      1.0000 0.54759  0.47132  0.24629  Biso   1.000  H
  H89      1.0000 0.68667  0.44521  0.26916  Biso   1.000  H
  H90      1.0000 0.57782  0.38670  0.25623  Biso   1.000  H
  H91      1.0000 0.13336  0.78019  0.09140  Biso   1.000  H
  H92      1.0000 0.07968  0.75669  0.02283  Biso   1.000  H
  H93      1.0000 0.19114  0.81330  0.03712  Biso   1.000  H
  H94      1.0000 0.33932  0.65433  0.99809  Biso   1.000  H
  H95      1.0000 0.31700  0.73862  0.98266  Biso   1.000  H
  H96      1.0000 0.20562  0.68223  0.96624  Biso   1.000  H
  C93      1.0000 0.63209  0.27142  0.34482  Biso   1.000  C
  C94      1.0000 0.50859  0.26687  0.31151  Biso   1.000  C
  C95      1.0000 0.64122  0.22708  0.39447  Biso   1.000  C
  H97      1.0000 0.69630  0.30014  0.33438  Biso   1.000  H
  C96      1.0000 0.44626  0.21932  0.34160  Biso   1.000  C
  H98      1.0000 0.47573  0.29210  0.27511  Biso   1.000  H
  N13      1.0000 0.52681  0.19555  0.39220  Biso   1.000  N
  C97      1.0000 0.75265  0.20668  0.44216  Biso   1.000  C
  C98      1.0000 0.31225  0.19685  0.32857  Biso   1.000  C
  H99      1.0000 0.50839  0.16483  0.41915  Biso   1.000  H
  C99      1.0000 0.81199  0.13986  0.42120  Biso   1.000  C
  C100     1.0000 0.71980  0.19441  0.50434  Biso   1.000  C
  C101     1.0000 0.84559  0.26996  0.44829  Biso   1.000  C
  C102     1.0000 0.25791  0.21123  0.26063  Biso   1.000  C
  C103     1.0000 0.29691  0.11886  0.34527  Biso   1.000  C
  C104     1.0000 0.23962  0.24467  0.36592  Biso   1.000  C
  C105     1.0000 0.90235  0.13509  0.38693  Biso   1.000  C
  N14      1.0000 0.77542  0.07012  0.43068  Biso   1.000  N
  H100     1.0000 0.66064  0.15436  0.50189  Biso   1.000  H
  H101     1.0000 0.68306  0.23864  0.51736  Biso   1.000  H
  H102     1.0000 0.79444  0.18225  0.53379  Biso   1.000  H
  H103     1.0000 0.86661  0.28016  0.40863  Biso   1.000  H
  H104     1.0000 0.92029  0.25666  0.47720  Biso   1.000  H
  H105     1.0000 0.80883  0.31327  0.46290  Biso   1.000  H
  C106     1.0000 0.31640  0.16874  0.21430  Biso   1.000  C
  H106     1.0000 0.16887  0.19967  0.25337  Biso   1.000  H
  H107     1.0000 0.26578  0.26372  0.25269  Biso   1.000  H
  C107     1.0000 0.22125  0.08738  0.37944  Biso   1.000  C
  N15      1.0000 0.36019  0.06361  0.32303  Biso   1.000  N
  H108     1.0000 0.27083  0.23674  0.40931  Biso   1.000  H
  H109     1.0000 0.15213  0.23175  0.35612  Biso   1.000  H
  H110     1.0000 0.24983  0.29585  0.35607  Biso   1.000  H
  H111     1.0000 0.94532  0.17460  0.37345  Biso   1.000  H
  C108     1.0000 0.92013  0.06073  0.37541  Biso   1.000  C
  C109     1.0000 0.84170  0.02122  0.40263  Biso   1.000  C
  H112     1.0000 0.71835  0.05829  0.45142  Biso   1.000  H
  C110     1.0000 0.31127  0.21422  0.15748  Biso   1.000  C
  H113     1.0000 0.40310  0.15696  0.23213  Biso   1.000  H
  H114     1.0000 0.27135  0.12266  0.20390  Biso   1.000  H
  C111     1.0000 0.23841  0.01091  0.37777  Biso   1.000  C
  H115     1.0000 0.16684  0.11213  0.40055  Biso   1.000  H
  H116     1.0000 0.41514  0.06974  0.29984  Biso   1.000  H
  C112     1.0000 0.32431  0.99723  0.34250  Biso   1.000  C
  H117     1.0000 0.97685  0.04157  0.35258  Biso   1.000  H
  C113     1.0000 0.83104  0.94019  0.40967  Biso   1.000  C
  H118     1.0000 0.22559  0.23094  0.14323  Biso   1.000  H
  H119     1.0000 0.36368  0.25764  0.16773  Biso   1.000  H
  O9       1.0000 0.35221  0.17498  0.10828  Biso   1.000  O
  H120     1.0000 0.19760  0.97558  0.39755  Biso   1.000  H
  C114     1.0000 0.37543  0.92684  0.32249  Biso   1.000  C
  C115     1.0000 0.69894  0.91642  0.40536  Biso   1.000  C
  C116     1.0000 0.88917  0.90176  0.36029  Biso   1.000  C
  C117     1.0000 0.90521  0.91680  0.47162  Biso   1.000  C
  C118     1.0000 0.47426  0.16342  0.11514  Biso   1.000  C
  C119     1.0000 0.49630  0.90757  0.36397  Biso   1.000  C
  C120     1.0000 0.28312  0.86524  0.32571  Biso   1.000  C
  C121     1.0000 0.39238  0.93308  0.25682  Biso   1.000  C
  N16      1.0000 0.60405  0.94415  0.36256  Biso   1.000  N
  C122     1.0000 0.65079  0.86117  0.43495  Biso   1.000  C
  H121     1.0000 0.97710  0.91582  0.36633  Biso   1.000  H
  H122     1.0000 0.88620  0.84874  0.36687  Biso   1.000  H
  C123     1.0000 0.82949  0.91777  0.29422  Biso   1.000  C
  H123     1.0000 0.87412  0.94220  0.50393  Biso   1.000  H
  H124     1.0000 0.99220  0.92885  0.47379  Biso   1.000  H
  H125     1.0000 0.89671  0.86426  0.47652  Biso   1.000  H
  C124     1.0000 0.50498  0.13140  0.05868  Biso   1.000  C
  O10      1.0000 0.54948  0.17742  0.15943  Biso   1.000  O
  C125     1.0000 0.52297  0.85563  0.40822  Biso   1.000  C
  H126     1.0000 0.31825  0.81905  0.31555  Biso   1.000  H
  H127     1.0000 0.20661  0.87484  0.29680  Biso   1.000  H
  H128     1.0000 0.26566  0.86252  0.36687  Biso   1.000  H
  H129     1.0000 0.45246  0.97129  0.25369  Biso   1.000  H
  H130     1.0000 0.31337  0.94518  0.23082  Biso   1.000  H
  H131     1.0000 0.42215  0.88673  0.24380  Biso   1.000  H
  H132     1.0000 0.61158  0.98024  0.33783  Biso   1.000  H
  H133     1.0000 0.69420  0.83224  0.46708  Biso   1.000  H
  H134     1.0000 0.75327  0.88874  0.28269  Biso   1.000  H
  H135     1.0000 0.80724  0.96977  0.28972  Biso   1.000  H
  C126     1.0000 0.91862  0.89894  0.25301  Biso   1.000  C
  C127     1.0000 0.44266  0.15430  0.00073  Biso   1.000  C
  N17      1.0000 0.59965  0.08543  0.06671  Biso   1.000  N
  H136     1.0000 0.46639  0.82176  0.41924  Biso   1.000  H
  O11      1.0000 0.86331  0.92060  0.19147  Biso   1.000  O
  H137     1.0000 0.99756  0.92478  0.26644  Biso   1.000  H
  H138     1.0000 0.93519  0.84608  0.25451  Biso   1.000  H
  C128     1.0000 0.48319  0.12879  0.95071  Biso   1.000  C
  H139     1.0000 0.37457  0.18659  0.99669  Biso   1.000  H
  C129     1.0000 0.63744  0.05872  0.01734  Biso   1.000  C
  C130     1.0000 0.93582  0.91072  0.15076  Biso   1.000  C
  C131     1.0000 0.58183  0.07995  0.95757  Biso   1.000  C
  H140     1.0000 0.44430  0.14421  0.91132  Biso   1.000  H
  C132     1.0000 0.73831  0.00700  0.02551  Biso   1.000  C
  C133     1.0000 0.87841  0.93710  0.08777  Biso   1.000  C
  O12      1.0000 0.03601  0.88277  0.16233  Biso   1.000  O
  C134     1.0000 0.62772  0.05248  0.90647  Biso   1.000  C
  C135     1.0000 0.78070  0.98198  0.97327  Biso   1.000  C
  N18      1.0000 0.78615  0.98388  0.08223  Biso   1.000  N
  C136     1.0000 0.92919  0.91050  0.03948  Biso   1.000  C
  C137     1.0000 0.72354  0.00662  0.91395  Biso   1.000  C
  H141     1.0000 0.58969  0.06697  0.86671  Biso   1.000  H
  C138     1.0000 0.88000  0.93303  0.98230  Biso   1.000  C
  H142     1.0000 0.99645  0.87756  0.04652  Biso   1.000  H
  H143     1.0000 0.75379  0.99007  0.87946  Biso   1.000  H
  H144     1.0000 0.91259  0.91577  0.94872  Biso   1.000  H
  C139     1.0000 0.36795  0.72858  0.65523  Biso   1.000  C
  C140     1.0000 0.35880  0.77292  0.60554  Biso   1.000  C
  C141     1.0000 0.49143  0.73313  0.68850  Biso   1.000  C
  H145     1.0000 0.30364  0.69986  0.66567  Biso   1.000  H
  C142     1.0000 0.24728  0.79332  0.55784  Biso   1.000  C
  N19      1.0000 0.47320  0.80445  0.60781  Biso   1.000  N
  C143     1.0000 0.55375  0.78068  0.65841  Biso   1.000  C
  H146     1.0000 0.52419  0.70790  0.72490  Biso   1.000  H
  C144     1.0000 0.15445  0.73004  0.55176  Biso   1.000  C
  C145     1.0000 0.18803  0.86014  0.57881  Biso   1.000  C
  C146     1.0000 0.28022  0.80559  0.49567  Biso   1.000  C
  H147     1.0000 0.49163  0.83517  0.58085  Biso   1.000  H
  C147     1.0000 0.68777  0.80315  0.67144  Biso   1.000  C
  H148     1.0000 0.13341  0.71984  0.59138  Biso   1.000  H
  H149     1.0000 0.07973  0.74334  0.52281  Biso   1.000  H
  H150     1.0000 0.19120  0.68673  0.53715  Biso   1.000  H
  C148     1.0000 0.09758  0.86491  0.61307  Biso   1.000  C
  N20      1.0000 0.22461  0.92988  0.56937  Biso   1.000  N
  H151     1.0000 0.33929  0.84564  0.49812  Biso   1.000  H
  H152     1.0000 0.31697  0.76136  0.48269  Biso   1.000  H
  H153     1.0000 0.20559  0.81775  0.46626  Biso   1.000  H
  C149     1.0000 0.70313  0.88114  0.65478  Biso   1.000  C
  C150     1.0000 0.74211  0.78877  0.73937  Biso   1.000  C
  C151     1.0000 0.76040  0.75533  0.63409  Biso   1.000  C
  H154     1.0000 0.05470  0.82540  0.62655  Biso   1.000  H
  C152     1.0000 0.07990  0.93927  0.62465  Biso   1.000  C
  C153     1.0000 0.15832  0.97878  0.59737  Biso   1.000  C
  H155     1.0000 0.28167  0.94171  0.54859  Biso   1.000  H
  C154     1.0000 0.77877  0.91262  0.62056  Biso   1.000  C
  N21      1.0000 0.63985  0.93639  0.67702  Biso   1.000  N
  C155     1.0000 0.68362  0.83126  0.78571  Biso   1.000  C
  H156     1.0000 0.83117  0.80033  0.74668  Biso   1.000  H
  H157     1.0000 0.73424  0.73628  0.74732  Biso   1.000  H
  H158     1.0000 0.72920  0.76326  0.59075  Biso   1.000  H
  H159     1.0000 0.84781  0.76825  0.64393  Biso   1.000  H
  H160     1.0000 0.75019  0.70415  0.64393  Biso   1.000  H
  H161     1.0000 0.02317  0.95843  0.64743  Biso   1.000  H
  C156     1.0000 0.16900  0.05981  0.59038  Biso   1.000  C
  C157     1.0000 0.76163  0.98909  0.62229  Biso   1.000  C
  H162     1.0000 0.83317  0.88787  0.59946  Biso   1.000  H
  H163     1.0000 0.58479  0.93026  0.70016  Biso   1.000  H
  C158     1.0000 0.67570  0.00277  0.65750  Biso   1.000  C
  C159     1.0000 0.68874  0.78578  0.84253  Biso   1.000  C
  H164     1.0000 0.59694  0.84304  0.76792  Biso   1.000  H
  H165     1.0000 0.72867  0.87734  0.79610  Biso   1.000  H
  C160     1.0000 0.30110  0.08358  0.59469  Biso   1.000  C
  C161     1.0000 0.11085  0.09824  0.63971  Biso   1.000  C
  C162     1.0000 0.09482  0.08320  0.52844  Biso   1.000  C
  H166     1.0000 0.80242  0.02442  0.60245  Biso   1.000  H
  C163     1.0000 0.62459  0.07316  0.67752  Biso   1.000  C
  H167     1.0000 0.77435  0.76906  0.85682  Biso   1.000  H
  H168     1.0000 0.63634  0.74236  0.83227  Biso   1.000  H
  O13      1.0000 0.64781  0.82502  0.89172  Biso   1.000  O
  C164     1.0000 0.34922  0.13883  0.56506  Biso   1.000  C
  N22      1.0000 0.39588  0.05585  0.63744  Biso   1.000  N
  H169     1.0000 0.02294  0.08418  0.63372  Biso   1.000  H
  H170     1.0000 0.11382  0.15126  0.63313  Biso   1.000  H
  C165     1.0000 0.17053  0.08223  0.70579  Biso   1.000  C
  H171     1.0000 0.12590  0.05780  0.49608  Biso   1.000  H
  H172     1.0000 0.00773  0.07115  0.52621  Biso   1.000  H
  H173     1.0000 0.10331  0.13574  0.52349  Biso   1.000  H
  C166     1.0000 0.50373  0.09243  0.63608  Biso   1.000  C
  C167     1.0000 0.71690  0.13476  0.67430  Biso   1.000  C
  C168     1.0000 0.60764  0.06692  0.74319  Biso   1.000  C
  C169     1.0000 0.52576  0.83658  0.88487  Biso   1.000  C
  H174     1.0000 0.30581  0.16776  0.53293  Biso   1.000  H
  C170     1.0000 0.47705  0.14437  0.59179  Biso   1.000  C
  H175     1.0000 0.38844  0.01976  0.66218  Biso   1.000  H
  H176     1.0000 0.24675  0.11126  0.71732  Biso   1.000  H
  H177     1.0000 0.19278  0.03023  0.71028  Biso   1.000  H
  C171     1.0000 0.08140  0.10106  0.74700  Biso   1.000  C
  H178     1.0000 0.68177  0.18095  0.68446  Biso   1.000  H
  H179     1.0000 0.79343  0.12516  0.70325  Biso   1.000  H
  H180     1.0000 0.73438  0.13748  0.63318  Biso   1.000  H
  H181     1.0000 0.54756  0.02871  0.74632  Biso   1.000  H
  H182     1.0000 0.68664  0.05482  0.76919  Biso   1.000  H
  H183     1.0000 0.57788  0.11327  0.75626  Biso   1.000  H
  C172     1.0000 0.49503  0.86860  0.94133  Biso   1.000  C
  O14      1.0000 0.45055  0.82258  0.84062  Biso   1.000  O
  H184     1.0000 0.53363  0.17824  0.58076  Biso   1.000  H
  H185     1.0000 0.00247  0.07522  0.73361  Biso   1.000  H
  H186     1.0000 0.06483  0.15392  0.74550  Biso   1.000  H
  O15      1.0000 0.13671  0.07940  0.80854  Biso   1.000  O
  C173     1.0000 0.55736  0.84570  0.99928  Biso   1.000  C
  N23      1.0000 0.40029  0.91457  0.93334  Biso   1.000  N
  C174     1.0000 0.06420  0.08928  0.84925  Biso   1.000  C
  C175     1.0000 0.51683  0.87121  0.04929  Biso   1.000  C
  H187     1.0000 0.62536  0.81341  0.00332  Biso   1.000  H
  C176     1.0000 0.36248  0.94128  0.98267  Biso   1.000  C
  O16      1.0000 0.96401  0.11723  0.83767  Biso   1.000  O
  C177     1.0000 0.12161  0.06290  0.91224  Biso   1.000  C
  C178     1.0000 0.41819  0.92005  0.04244  Biso   1.000  C
  H188     1.0000 0.55572  0.85579  0.08868  Biso   1.000  H
  C179     1.0000 0.26171  0.99300  0.97450  Biso   1.000  C
  C180     1.0000 0.07083  0.08950  0.96052  Biso   1.000  C
  N24      1.0000 0.21386  0.01612  0.91777  Biso   1.000  N
  C181     1.0000 0.37229  0.94752  0.09354  Biso   1.000  C
  C182     1.0000 0.21932  0.01802  0.02674  Biso   1.000  C
  H189     1.0000 0.00357  0.12244  0.95349  Biso   1.000  H
  C183     1.0000 0.12002  0.06697  0.01771  Biso   1.000  C
  C184     1.0000 0.27648  0.99338  0.08605  Biso   1.000  C
  H190     1.0000 0.41033  0.93303  0.13330  Biso   1.000  H
  H191     1.0000 0.08743  0.08423  0.05129  Biso   1.000  H
  H192     1.0000 0.24623  0.00993  0.12054  Biso   1.000  H
