data_image0
_cell_length_a       10.608
_cell_length_b       12.113
_cell_length_c       16.418
_cell_angle_alpha    90
_cell_angle_beta     100.19
_cell_angle_gamma    90

_symmetry_space_group_name_H-M    "P 1"
_symmetry_int_tables_number       1

loop_
  _symmetry_equiv_pos_as_xyz
  'x, y, z'

loop_
  _atom_site_label
  _atom_site_occupancy
  _atom_site_fract_x
  _atom_site_fract_y
  _atom_site_fract_z
  _atom_site_thermal_displace_type
  _atom_site_B_iso_or_equiv
  _atom_site_type_symbol
  C1       1.0000 0.30834  0.38372  0.45578  Biso   1.000  C
  N1       1.0000 0.21622  0.32692  0.39476  Biso   1.000  N
  H1       1.0000 0.27618  0.38752  0.50808  Biso   1.000  H
  H2       1.0000 0.32151  0.45860  0.43641  Biso   1.000  H
  H3       1.0000 0.38977  0.34352  0.46432  Biso   1.000  H
  C2       1.0000 0.25877  0.23710  0.35083  Biso   1.000  C
  C3       1.0000 0.08817  0.35714  0.37849  Biso   1.000  C
  C4       1.0000 0.23891  0.23925  0.26487  Biso   1.000  C
  N2       1.0000 0.32114  0.15628  0.39582  Biso   1.000  N
  N3       1.0000 0.00928  0.28292  0.33653  Biso   1.000  N
  C5       1.0000 0.04402  0.45777  0.40485  Biso   1.000  C
  H4       1.0000 0.19236  0.29778  0.23498  Biso   1.000  H
  C6       1.0000 0.28793  0.15504  0.22427  Biso   1.000  C
  C7       1.0000 0.36395  0.07232  0.35454  Biso   1.000  C
  C8       1.0000 0.88371  0.30447  0.31827  Biso   1.000  C
  H5       1.0000 0.10069  0.50929  0.43592  Biso   1.000  H
  C9       1.0000 0.91460  0.47874  0.38356  Biso   1.000  C
  H6       1.0000 0.27753  0.15512  0.16560  Biso   1.000  H
  C10      1.0000 0.35254  0.07026  0.26982  Biso   1.000  C
  N4       1.0000 0.42027  0.98192  0.40392  Biso   1.000  N
  N5       1.0000 0.81099  0.22067  0.27576  Biso   1.000  N
  C11      1.0000 0.83156  0.40329  0.33987  Biso   1.000  C
  H7       1.0000 0.88174  0.54693  0.39953  Biso   1.000  H
  H8       1.0000 0.38849  0.01164  0.24308  Biso   1.000  H
  C12      1.0000 0.33592  0.90671  0.42880  Biso   1.000  C
  C13      1.0000 0.54806  0.94518  0.39346  Biso   1.000  C
  C14      1.0000 0.87944  0.12045  0.26858  Biso   1.000  C
  C15      1.0000 0.67385  0.21176  0.27446  Biso   1.000  C
  H9       1.0000 0.74248  0.41823  0.32508  Biso   1.000  H
  N6       1.0000 0.21201  0.92983  0.40454  Biso   1.000  N
  C16      1.0000 0.37732  0.81351  0.47670  Biso   1.000  C
  H10      1.0000 0.59699  0.00842  0.37867  Biso   1.000  H
  H11      1.0000 0.59254  0.91274  0.44539  Biso   1.000  H
  H12      1.0000 0.53996  0.88979  0.34940  Biso   1.000  H
  N7       1.0000 0.89546  0.05218  0.33362  Biso   1.000  N
  C17      1.0000 0.93047  0.10171  0.19915  Biso   1.000  C
  H13      1.0000 0.62982  0.27343  0.24277  Biso   1.000  H
  H14      1.0000 0.65716  0.21398  0.33127  Biso   1.000  H
  H15      1.0000 0.64243  0.14183  0.24853  Biso   1.000  H
  C18      1.0000 0.12410  0.86287  0.42707  Biso   1.000  C
  C19      1.0000 0.28499  0.74713  0.49997  Biso   1.000  C
  H16      1.0000 0.46582  0.79691  0.49248  Biso   1.000  H
  C20      1.0000 0.97245  0.96623  0.32972  Biso   1.000  C
  N8       1.0000 0.00416  0.01156  0.19320  Biso   1.000  N
  H17      1.0000 0.91426  0.15248  0.15440  Biso   1.000  H
  N9       1.0000 0.99668  0.89359  0.39724  Biso   1.000  N
  C21      1.0000 0.15588  0.77008  0.47633  Biso   1.000  C
  H18      1.0000 0.31027  0.68389  0.53308  Biso   1.000  H
  C22      1.0000 0.02615  0.94609  0.25905  Biso   1.000  C
  C23      1.0000 0.89891  0.87509  0.44848  Biso   1.000  C
  H19      1.0000 0.09198  0.72468  0.49291  Biso   1.000  H
  H20      1.0000 0.08006  0.88360  0.25831  Biso   1.000  H
  H21      1.0000 0.93966  0.87179  0.50678  Biso   1.000  H
  H22      1.0000 0.85457  0.80533  0.43251  Biso   1.000  H
  H23      1.0000 0.83691  0.93577  0.44031  Biso   1.000  H
  N10      1.0000 0.49576  0.51152  0.30676  Biso   1.000  N
  C24      1.0000 0.47377  0.44605  0.24092  Biso   1.000  C
  C25      1.0000 0.56947  0.60175  0.30088  Biso   1.000  C
  C26      1.0000 0.52759  0.46619  0.17031  Biso   1.000  C
  H24      1.0000 0.41988  0.38364  0.24172  Biso   1.000  H
  H25      1.0000 0.58568  0.65252  0.34563  Biso   1.000  H
  C27      1.0000 0.62050  0.62041  0.23145  Biso   1.000  C
  N11      1.0000 0.60456  0.55213  0.16635  Biso   1.000  N
  N12      1.0000 0.50334  0.39354  0.10273  Biso   1.000  N
  N13      1.0000 0.68894  0.72063  0.22421  Biso   1.000  N
  C28      1.0000 0.60112  0.37513  0.05155  Biso   1.000  C
  C29      1.0000 0.37592  0.36283  0.07290  Biso   1.000  C
  C30      1.0000 0.61630  0.80442  0.18169  Biso   1.000  C
  C31      1.0000 0.82607  0.71171  0.22551  Biso   1.000  C
  H26      1.0000 0.64537  0.30529  0.06752  Biso   1.000  H
  H27      1.0000 0.66313  0.43581  0.05972  Biso   1.000  H
  H28      1.0000 0.56035  0.37183  0.99319  Biso   1.000  H
  N14      1.0000 0.28801  0.42987  0.09543  Biso   1.000  N
  C32      1.0000 0.34407  0.27012  0.02370  Biso   1.000  C
  N15      1.0000 0.49075  0.78296  0.16350  Biso   1.000  N
  C33      1.0000 0.66838  0.90324  0.16016  Biso   1.000  C
  H29      1.0000 0.87020  0.77338  0.25719  Biso   1.000  H
  H30      1.0000 0.84276  0.71403  0.16870  Biso   1.000  H
  H31      1.0000 0.85761  0.64179  0.25150  Biso   1.000  H
  C34      1.0000 0.16411  0.40667  0.07123  Biso   1.000  C
  H32      1.0000 0.40796  0.22472  0.00712  Biso   1.000  H
  C35      1.0000 0.21504  0.24717  0.00006  Biso   1.000  C
  C36      1.0000 0.41184  0.85718  0.12148  Biso   1.000  C
  C37      1.0000 0.58542  0.97870  0.11641  Biso   1.000  C
  H33      1.0000 0.75754  0.91819  0.17489  Biso   1.000  H
  N16      1.0000 0.07967  0.48188  0.09611  Biso   1.000  N
  C38      1.0000 0.12270  0.31346  0.02327  Biso   1.000  C
  H34      1.0000 0.18975  0.18393  0.96689  Biso   1.000  H
  N17      1.0000 0.28371  0.82688  0.10520  Biso   1.000  N
  C39      1.0000 0.45602  0.95781  0.09518  Biso   1.000  C
  H35      1.0000 0.61830  0.04689  0.10050  Biso   1.000  H
  C40      1.0000 0.13607  0.57228  0.14543  Biso   1.000  C
  C41      1.0000 0.95196  0.44514  0.10650  Biso   1.000  C
  H36      1.0000 0.03420  0.29687  0.00749  Biso   1.000  H
  C42      1.0000 0.24116  0.73706  0.14914  Biso   1.000  C
  C43      1.0000 0.19168  0.88368  0.04419  Biso   1.000  C
  H37      1.0000 0.39934  0.00933  0.06411  Biso   1.000  H
  N18      1.0000 0.17878  0.65632  0.10415  Biso   1.000  N
  C44      1.0000 0.14750  0.57030  0.23021  Biso   1.000  C
  H38      1.0000 0.90748  0.41270  0.05458  Biso   1.000  H
  H39      1.0000 0.90303  0.50838  0.12129  Biso   1.000  H
  H40      1.0000 0.95998  0.38983  0.15063  Biso   1.000  H
  C45      1.0000 0.26111  0.73929  0.23510  Biso   1.000  C
  H41      1.0000 0.17852  0.95864  0.06362  Biso   1.000  H
  H42      1.0000 0.11017  0.84347  0.03571  Biso   1.000  H
  H43      1.0000 0.22384  0.88748  0.99189  Biso   1.000  H
  C46      1.0000 0.21208  0.65508  0.27570  Biso   1.000  C
  H44      1.0000 0.11153  0.51160  0.25688  Biso   1.000  H
  H45      1.0000 0.30757  0.79782  0.26499  Biso   1.000  H
  H46      1.0000 0.22251  0.65508  0.33443  Biso   1.000  H
  N19      1.0000 0.50420  0.48848  0.69323  Biso   1.000  N
  C47      1.0000 0.43049  0.39825  0.69911  Biso   1.000  C
  C48      1.0000 0.52619  0.55395  0.75908  Biso   1.000  C
  H47      1.0000 0.41428  0.34748  0.65437  Biso   1.000  H
  C49      1.0000 0.37946  0.37959  0.76855  Biso   1.000  C
  C50      1.0000 0.47237  0.53381  0.82969  Biso   1.000  C
  H48      1.0000 0.58008  0.61636  0.75828  Biso   1.000  H
  N20      1.0000 0.39540  0.44787  0.83365  Biso   1.000  N
  N21      1.0000 0.31102  0.27937  0.77579  Biso   1.000  N
  N22      1.0000 0.49662  0.60646  0.89727  Biso   1.000  N
  C51      1.0000 0.38365  0.19558  0.81830  Biso   1.000  C
  C52      1.0000 0.17388  0.28829  0.77449  Biso   1.000  C
  C53      1.0000 0.39894  0.62487  0.94851  Biso   1.000  C
  C54      1.0000 0.62413  0.63717  0.92710  Biso   1.000  C
  N23      1.0000 0.50921  0.21704  0.83650  Biso   1.000  N
  C55      1.0000 0.33158  0.09676  0.83984  Biso   1.000  C
  H49      1.0000 0.12976  0.22662  0.74280  Biso   1.000  H
  H50      1.0000 0.15720  0.28597  0.83130  Biso   1.000  H
  H51      1.0000 0.14244  0.35821  0.74850  Biso   1.000  H
  H52      1.0000 0.35459  0.69471  0.93248  Biso   1.000  H
  H53      1.0000 0.33692  0.56419  0.94028  Biso   1.000  H
  H54      1.0000 0.43970  0.62817  0.00681  Biso   1.000  H
  N24      1.0000 0.71195  0.57013  0.90457  Biso   1.000  N
  C56      1.0000 0.65589  0.72988  0.97630  Biso   1.000  C
  C57      1.0000 0.58821  0.14282  0.87852  Biso   1.000  C
  C58      1.0000 0.41463  0.02130  0.88359  Biso   1.000  C
  H55      1.0000 0.24251  0.08181  0.82511  Biso   1.000  H
  C59      1.0000 0.83594  0.59333  0.92877  Biso   1.000  C
  H56      1.0000 0.59199  0.77528  0.99288  Biso   1.000  H
  C60      1.0000 0.78501  0.75283  0.99994  Biso   1.000  C
  N25      1.0000 0.71625  0.17312  0.89479  Biso   1.000  N
  C61      1.0000 0.54403  0.04219  0.90482  Biso   1.000  C
  H57      1.0000 0.38166  0.95311  0.89950  Biso   1.000  H
  N26      1.0000 0.92029  0.51812  0.90389  Biso   1.000  N
  C62      1.0000 0.87726  0.68654  0.97673  Biso   1.000  C
  H58      1.0000 0.81031  0.81607  0.03311  Biso   1.000  H
  C63      1.0000 0.75880  0.26294  0.85086  Biso   1.000  C
  C64      1.0000 0.80828  0.11632  0.95581  Biso   1.000  C
  H59      1.0000 0.60071  0.99067  0.93589  Biso   1.000  H
  C65      1.0000 0.86389  0.42772  0.85457  Biso   1.000  C
  C66      1.0000 0.04800  0.55486  0.89349  Biso   1.000  C
  H60      1.0000 0.96576  0.70313  0.99251  Biso   1.000  H
  N27      1.0000 0.82118  0.34368  0.89585  Biso   1.000  N
  C67      1.0000 0.73894  0.26071  0.76490  Biso   1.000  C
  H61      1.0000 0.82153  0.04136  0.93638  Biso   1.000  H
  H62      1.0000 0.88978  0.15653  0.96429  Biso   1.000  H
  H63      1.0000 0.77612  0.11252  0.00811  Biso   1.000  H
  C68      1.0000 0.85246  0.42970  0.76979  Biso   1.000  C
  H64      1.0000 0.09248  0.58730  0.94542  Biso   1.000  H
  H65      1.0000 0.09703  0.49162  0.87870  Biso   1.000  H
  H66      1.0000 0.03997  0.61017  0.84937  Biso   1.000  H
  H67      1.0000 0.69239  0.20218  0.73501  Biso   1.000  H
  C69      1.0000 0.78787  0.34492  0.72430  Biso   1.000  C
  H68      1.0000 0.88852  0.48840  0.74311  Biso   1.000  H
  H69      1.0000 0.77745  0.34492  0.66557  Biso   1.000  H
