data_image0
_cell_length_a       10.702
_cell_length_b       17.397
_cell_length_c       18.09
_cell_angle_alpha    85.03
_cell_angle_beta     85.35
_cell_angle_gamma    72.18

_symmetry_space_group_name_H-M    "P 1"
_symmetry_int_tables_number       1

loop_
  _symmetry_equiv_pos_as_xyz
  'x, y, z'

loop_
  _atom_site_label
  _atom_site_occupancy
  _atom_site_fract_x
  _atom_site_fract_y
  _atom_site_fract_z
  _atom_site_thermal_displace_type
  _atom_site_B_iso_or_equiv
  _atom_site_type_symbol
  O1       1.0000 0.56927  0.46801  0.62872  Biso   1.000  O
  H1       1.0000 0.61315  0.44605  0.59281  Biso   1.000  H
  C1       1.0000 0.65181  0.48055  0.67841  Biso   1.000  C
  C2       1.0000 0.78654  0.45592  0.66223  Biso   1.000  C
  C3       1.0000 0.59806  0.51840  0.74232  Biso   1.000  C
  H2       1.0000 0.82084  0.43094  0.61849  Biso   1.000  H
  C4       1.0000 0.86985  0.46873  0.71142  Biso   1.000  C
  C5       1.0000 0.68544  0.52953  0.78979  Biso   1.000  C
  C6       1.0000 0.44809  0.54773  0.75783  Biso   1.000  C
  C7       1.0000 0.82055  0.50482  0.77723  Biso   1.000  C
  O2       1.0000 0.00359  0.44643  0.69469  Biso   1.000  O
  H3       1.0000 0.65096  0.55556  0.83303  Biso   1.000  H
  C8       1.0000 0.39267  0.63563  0.73071  Biso   1.000  C
  H4       1.0000 0.41206  0.51700  0.72804  Biso   1.000  H
  C9       1.0000 0.40587  0.52983  0.83914  Biso   1.000  C
  C10      1.0000 0.91094  0.51592  0.83353  Biso   1.000  C
  H5       1.0000 0.01996  0.42635  0.65429  Biso   1.000  H
  C11      1.0000 0.35462  0.65875  0.65851  Biso   1.000  C
  C12      1.0000 0.37523  0.69853  0.77689  Biso   1.000  C
  H6       1.0000 0.31300  0.55791  0.84754  Biso   1.000  H
  H7       1.0000 0.45355  0.55133  0.87132  Biso   1.000  H
  C13      1.0000 0.42972  0.44063  0.86071  Biso   1.000  C
  C14      1.0000 0.92097  0.60193  0.82792  Biso   1.000  C
  H8       1.0000 0.99906  0.48102  0.81902  Biso   1.000  H
  C15      1.0000 0.87894  0.48546  0.91301  Biso   1.000  C
  O3       1.0000 0.36910  0.60143  0.60682  Biso   1.000  O
  C16      1.0000 0.30140  0.73862  0.63483  Biso   1.000  C
  H9       1.0000 0.40180  0.68496  0.82519  Biso   1.000  H
  C17      1.0000 0.32170  0.77952  0.75622  Biso   1.000  C
  C18      1.0000 0.46256  0.42137  0.94669  Biso   1.000  C
  C19      1.0000 0.31316  0.42033  0.87194  Biso   1.000  C
  C20      1.0000 0.52311  0.38372  0.83992  Biso   1.000  C
  C21      1.0000 0.83695  0.66401  0.86860  Biso   1.000  C
  C22      1.0000 0.01636  0.62284  0.78001  Biso   1.000  C
  H10      1.0000 0.79130  0.51765  0.92913  Biso   1.000  H
  H11      1.0000 0.93998  0.49425  0.94575  Biso   1.000  H
  C23      1.0000 0.88527  0.39712  0.92162  Biso   1.000  C
  H12      1.0000 0.34252  0.62430  0.56703  Biso   1.000  H
  C24      1.0000 0.28492  0.79883  0.68319  Biso   1.000  C
  H13      1.0000 0.27656  0.75222  0.58609  Biso   1.000  H
  C25      1.0000 0.30197  0.84594  0.80980  Biso   1.000  C
  H14      1.0000 0.53798  0.43762  0.95514  Biso   1.000  H
  H15      1.0000 0.38855  0.45054  0.97720  Biso   1.000  H
  H16      1.0000 0.48091  0.36433  0.95914  Biso   1.000  H
  H17      1.0000 0.31748  0.37650  0.84203  Biso   1.000  H
  H18      1.0000 0.30075  0.40424  0.92340  Biso   1.000  H
  H19      1.0000 0.24075  0.46642  0.85804  Biso   1.000  H
  H20      1.0000 0.49053  0.34385  0.82141  Biso   1.000  H
  H21      1.0000 0.57474  0.40313  0.80113  Biso   1.000  H
  H22      1.0000 0.57645  0.36004  0.88100  Biso   1.000  H
  C26      1.0000 0.84355  0.74324  0.86421  Biso   1.000  C
  H23      1.0000 0.77247  0.65176  0.90084  Biso   1.000  H
  O4       1.0000 0.10325  0.56852  0.73454  Biso   1.000  O
  C27      1.0000 0.02773  0.69922  0.77573  Biso   1.000  C
  H24      1.0000 0.80907  0.39404  0.89700  Biso   1.000  H
  C28      1.0000 0.99689  0.33951  0.88694  Biso   1.000  C
  C29      1.0000 0.86139  0.37224  0.00349  Biso   1.000  C
  O5       1.0000 0.23253  0.87952  0.66068  Biso   1.000  O
  C30      1.0000 0.42552  0.87396  0.80880  Biso   1.000  C
  H25      1.0000 0.23103  0.89303  0.79101  Biso   1.000  H
  C31      1.0000 0.25665  0.82164  0.88844  Biso   1.000  C
  C32      1.0000 0.94295  0.75915  0.81613  Biso   1.000  C
  C33      1.0000 0.74855  0.81096  0.90790  Biso   1.000  C
  H26      1.0000 0.08915  0.52466  0.74093  Biso   1.000  H
  H27      1.0000 0.09423  0.71094  0.74494  Biso   1.000  H
  H28      1.0000 0.98726  0.28633  0.89522  Biso   1.000  H
  H29      1.0000 0.07588  0.34044  0.90790  Biso   1.000  H
  H30      1.0000 0.00168  0.35356  0.83442  Biso   1.000  H
  H31      1.0000 0.91988  0.38724  0.03290  Biso   1.000  H
  H32      1.0000 0.77210  0.39912  0.01950  Biso   1.000  H
  H33      1.0000 0.87721  0.31476  0.00944  Biso   1.000  H
  H34      1.0000 0.21555  0.88365  0.61682  Biso   1.000  H
  C34      1.0000 0.43494  0.94325  0.76739  Biso   1.000  C
  C35      1.0000 0.52817  0.83305  0.85193  Biso   1.000  C
  H35      1.0000 0.32541  0.77597  0.90840  Biso   1.000  H
  H36      1.0000 0.17974  0.80393  0.88533  Biso   1.000  H
  C36      1.0000 0.22295  0.88882  0.94230  Biso   1.000  C
  O6       1.0000 0.96010  0.83480  0.80502  Biso   1.000  O
  C37      1.0000 0.63733  0.85942  0.85971  Biso   1.000  C
  H37      1.0000 0.79800  0.84805  0.91701  Biso   1.000  H
  C38      1.0000 0.69743  0.78393  0.98432  Biso   1.000  C
  O7       1.0000 0.34504  0.98500  0.71687  Biso   1.000  O
  C39      1.0000 0.53775  0.97365  0.77551  Biso   1.000  C
  H38      1.0000 0.52491  0.78487  0.87744  Biso   1.000  H
  H39      1.0000 0.30202  0.90504  0.94602  Biso   1.000  H
  C40      1.0000 0.11422  0.96332  0.91440  Biso   1.000  C
  C41      1.0000 0.18531  0.85703  0.01944  Biso   1.000  C
  H40      1.0000 0.90549  0.86633  0.83131  Biso   1.000  H
  C42      1.0000 0.63551  0.93316  0.82280  Biso   1.000  C
  H41      1.0000 0.64518  0.74867  0.97743  Biso   1.000  H
  H42      1.0000 0.77177  0.75277  0.01244  Biso   1.000  H
  C43      1.0000 0.61433  0.85377  0.02962  Biso   1.000  C
  H43      1.0000 0.28800  0.96260  0.71592  Biso   1.000  H
  H44      1.0000 0.54124  0.02140  0.74922  Biso   1.000  H
  H45      1.0000 0.14545  0.98673  0.86943  Biso   1.000  H
  H46      1.0000 0.03885  0.94763  0.90489  Biso   1.000  H
  H47      1.0000 0.09035  0.00241  0.95142  Biso   1.000  H
  H48      1.0000 0.25543  0.81095  0.03573  Biso   1.000  H
  H49      1.0000 0.16965  0.89862  0.05363  Biso   1.000  H
  H50      1.0000 0.10686  0.84153  0.01744  Biso   1.000  H
  O8       1.0000 0.73852  0.96222  0.83364  Biso   1.000  O
  H51      1.0000 0.54100  0.88407  0.99999  Biso   1.000  H
  C44      1.0000 0.55584  0.82367  0.10070  Biso   1.000  C
  C45      1.0000 0.68626  0.91175  0.04635  Biso   1.000  C
  H52      1.0000 0.73079  0.00466  0.80824  Biso   1.000  H
  H53      1.0000 0.62519  0.79327  0.13183  Biso   1.000  H
  H54      1.0000 0.50010  0.86896  0.12621  Biso   1.000  H
  H55      1.0000 0.50517  0.78963  0.08942  Biso   1.000  H
  H56      1.0000 0.75865  0.88385  0.07625  Biso   1.000  H
  H57      1.0000 0.71860  0.93317  0.00060  Biso   1.000  H
  H58      1.0000 0.62728  0.95523  0.07275  Biso   1.000  H
  O9       1.0000 0.43075  0.53204  0.37133  Biso   1.000  O
  C46      1.0000 0.34821  0.51950  0.32158  Biso   1.000  C
  H59      1.0000 0.38687  0.55400  0.40723  Biso   1.000  H
  C47      1.0000 0.21348  0.54413  0.33781  Biso   1.000  C
  C48      1.0000 0.40199  0.48159  0.25772  Biso   1.000  C
  C49      1.0000 0.13016  0.53132  0.28863  Biso   1.000  C
  H60      1.0000 0.17918  0.56911  0.38150  Biso   1.000  H
  C50      1.0000 0.31458  0.47053  0.21020  Biso   1.000  C
  C51      1.0000 0.55192  0.45232  0.24222  Biso   1.000  C
  C52      1.0000 0.17946  0.49523  0.22282  Biso   1.000  C
  O10      1.0000 0.99642  0.55362  0.30536  Biso   1.000  O
  H61      1.0000 0.34906  0.44449  0.16702  Biso   1.000  H
  C53      1.0000 0.60745  0.36442  0.26928  Biso   1.000  C
  H62      1.0000 0.58799  0.48299  0.27201  Biso   1.000  H
  C54      1.0000 0.59415  0.47022  0.16090  Biso   1.000  C
  C55      1.0000 0.08908  0.48413  0.16652  Biso   1.000  C
  H63      1.0000 0.98006  0.57370  0.34571  Biso   1.000  H
  C56      1.0000 0.62479  0.30152  0.22310  Biso   1.000  C
  C57      1.0000 0.64540  0.34131  0.34148  Biso   1.000  C
  H64      1.0000 0.68711  0.44214  0.15251  Biso   1.000  H
  H65      1.0000 0.54647  0.44872  0.12872  Biso   1.000  H
  C58      1.0000 0.57030  0.55942  0.13928  Biso   1.000  C
  C59      1.0000 0.07905  0.39812  0.17213  Biso   1.000  C
  H66      1.0000 0.00096  0.51903  0.18102  Biso   1.000  H
  C60      1.0000 0.12108  0.51459  0.08698  Biso   1.000  C
  C61      1.0000 0.67831  0.22053  0.24383  Biso   1.000  C
  H67      1.0000 0.59822  0.31509  0.17480  Biso   1.000  H
  C62      1.0000 0.69861  0.26143  0.36521  Biso   1.000  C
  O11      1.0000 0.63092  0.39862  0.39317  Biso   1.000  O
  C63      1.0000 0.53746  0.57869  0.05330  Biso   1.000  C
  C64      1.0000 0.68685  0.57972  0.12811  Biso   1.000  C
  C65      1.0000 0.47700  0.61633  0.16013  Biso   1.000  C
  C66      1.0000 0.16311  0.33598  0.13139  Biso   1.000  C
  C67      1.0000 0.98366  0.37722  0.21998  Biso   1.000  C
  H68      1.0000 0.20881  0.48240  0.07092  Biso   1.000  H
  H69      1.0000 0.06004  0.50580  0.05430  Biso   1.000  H
  C68      1.0000 0.11475  0.60293  0.07842  Biso   1.000  C
  C69      1.0000 0.69815  0.15412  0.19019  Biso   1.000  C
  C70      1.0000 0.71511  0.20123  0.31680  Biso   1.000  C
  H70      1.0000 0.72356  0.24784  0.41390  Biso   1.000  H
  H71      1.0000 0.65752  0.37569  0.43302  Biso   1.000  H
  H72      1.0000 0.46207  0.56237  0.04491  Biso   1.000  H
  H73      1.0000 0.61147  0.54951  0.02279  Biso   1.000  H
  H74      1.0000 0.51920  0.63572  0.04091  Biso   1.000  H
  H75      1.0000 0.68257  0.62349  0.15801  Biso   1.000  H
  H76      1.0000 0.69927  0.59581  0.07659  Biso   1.000  H
  H77      1.0000 0.75927  0.53363  0.14201  Biso   1.000  H
  H78      1.0000 0.50949  0.65620  0.17858  Biso   1.000  H
  H79      1.0000 0.42528  0.59692  0.19892  Biso   1.000  H
  H80      1.0000 0.42357  0.64002  0.11900  Biso   1.000  H
  C71      1.0000 0.15647  0.25682  0.13578  Biso   1.000  C
  H81      1.0000 0.22764  0.34829  0.09921  Biso   1.000  H
  C72      1.0000 0.97229  0.30083  0.22432  Biso   1.000  C
  O12      1.0000 0.89677  0.43153  0.26545  Biso   1.000  O
  H82      1.0000 0.19095  0.60601  0.10299  Biso   1.000  H
  C73      1.0000 0.00315  0.66048  0.11310  Biso   1.000  C
  C74      1.0000 0.13863  0.62782  0.99650  Biso   1.000  C
  C75      1.0000 0.57450  0.12609  0.19119  Biso   1.000  C
  H83      1.0000 0.76899  0.10702  0.20898  Biso   1.000  H
  C76      1.0000 0.74336  0.17841  0.11160  Biso   1.000  C
  O13      1.0000 0.76748  0.12053  0.33937  Biso   1.000  O
  C77      1.0000 0.05707  0.24090  0.18391  Biso   1.000  C
  C78      1.0000 0.25147  0.18909  0.09210  Biso   1.000  C
  H84      1.0000 0.90578  0.28911  0.25511  Biso   1.000  H
  H85      1.0000 0.91086  0.47539  0.25911  Biso   1.000  H
  H86      1.0000 0.01275  0.71372  0.10482  Biso   1.000  H
  H87      1.0000 0.92414  0.65962  0.09210  Biso   1.000  H
  H88      1.0000 0.99834  0.64649  0.16563  Biso   1.000  H
  H89      1.0000 0.08014  0.61282  0.96710  Biso   1.000  H
  H90      1.0000 0.22795  0.60088  0.98049  Biso   1.000  H
  H91      1.0000 0.12290  0.68529  0.99061  Biso   1.000  H
  C79      1.0000 0.47194  0.16700  0.14812  Biso   1.000  C
  C80      1.0000 0.56508  0.05680  0.23260  Biso   1.000  C
  H92      1.0000 0.67461  0.22409  0.09160  Biso   1.000  H
  H93      1.0000 0.82028  0.19612  0.11472  Biso   1.000  H
  C81      1.0000 0.77707  0.11123  0.05769  Biso   1.000  C
  H94      1.0000 0.78446  0.11640  0.38322  Biso   1.000  H
  O14      1.0000 0.03995  0.16519  0.19503  Biso   1.000  O
  C82      1.0000 0.36269  0.14063  0.14028  Biso   1.000  C
  H95      1.0000 0.20202  0.15200  0.08298  Biso   1.000  H
  C83      1.0000 0.30259  0.21613  0.01567  Biso   1.000  C
  H96      1.0000 0.47510  0.21518  0.12261  Biso   1.000  H
  C84      1.0000 0.46236  0.02640  0.22449  Biso   1.000  C
  O15      1.0000 0.65508  0.01506  0.28312  Biso   1.000  O
  H97      1.0000 0.69800  0.09501  0.05402  Biso   1.000  H
  C85      1.0000 0.88584  0.03668  0.08559  Biso   1.000  C
  C86      1.0000 0.81480  0.14302  0.98060  Biso   1.000  C
  H98      1.0000 0.09453  0.13373  0.16868  Biso   1.000  H
  C87      1.0000 0.36451  0.06689  0.17719  Biso   1.000  C
  H99      1.0000 0.35493  0.25138  0.02262  Biso   1.000  H
  H100     1.0000 0.22824  0.24728  0.98761  Biso   1.000  H
  C88      1.0000 0.38569  0.14628  0.97038  Biso   1.000  C
  H101     1.0000 0.45881  0.97859  0.25083  Biso   1.000  H
  H102     1.0000 0.71204  0.03739  0.28412  Biso   1.000  H
  H103     1.0000 0.85456  0.01332  0.13061  Biso   1.000  H
  H104     1.0000 0.96117  0.05243  0.09510  Biso   1.000  H
  H105     1.0000 0.90970  0.99758  0.04858  Biso   1.000  H
  H106     1.0000 0.74459  0.18910  0.96432  Biso   1.000  H
  H107     1.0000 0.83039  0.10137  0.94642  Biso   1.000  H
  H108     1.0000 0.89316  0.15852  0.98260  Biso   1.000  H
  O16      1.0000 0.26150  0.03783  0.16641  Biso   1.000  O
  H109     1.0000 0.45903  0.11599  0.00000  Biso   1.000  H
  C89      1.0000 0.44418  0.17638  0.89929  Biso   1.000  C
  C90      1.0000 0.31376  0.08830  0.95370  Biso   1.000  C
  H110     1.0000 0.26923  0.99539  0.19181  Biso   1.000  H
  H111     1.0000 0.37492  0.20678  0.86822  Biso   1.000  H
  H112     1.0000 0.50001  0.13110  0.87378  Biso   1.000  H
  H113     1.0000 0.49485  0.21042  0.91057  Biso   1.000  H
  H114     1.0000 0.24137  0.11620  0.92380  Biso   1.000  H
  H115     1.0000 0.28143  0.06688  0.99939  Biso   1.000  H
  H116     1.0000 0.37273  0.04482  0.92730  Biso   1.000  H
