data_image0
_cell_length_a       14.129
_cell_length_b       13.659
_cell_length_c       23.409
_cell_angle_alpha    90
_cell_angle_beta     98.57
_cell_angle_gamma    90

_symmetry_space_group_name_H-M    "P 1"
_symmetry_int_tables_number       1

loop_
  _symmetry_equiv_pos_as_xyz
  'x, y, z'

loop_
  _atom_site_label
  _atom_site_occupancy
  _atom_site_fract_x
  _atom_site_fract_y
  _atom_site_fract_z
  _atom_site_thermal_displace_type
  _atom_site_B_iso_or_equiv
  _atom_site_type_symbol
  C1       1.0000 0.45856  0.37982  0.31217  Biso   1.000  C
  N1       1.0000 0.39811  0.37909  0.35658  Biso   1.000  N
  N2       1.0000 0.47460  0.28289  0.28914  Biso   1.000  N
  C2       1.0000 0.55682  0.40669  0.34466  Biso   1.000  C
  H1       1.0000 0.43640  0.42690  0.28150  Biso   1.000  H
  C3       1.0000 0.29542  0.38297  0.34543  Biso   1.000  C
  C4       1.0000 0.44775  0.39351  0.41002  Biso   1.000  C
  C5       1.0000 0.40442  0.23398  0.24884  Biso   1.000  C
  C6       1.0000 0.56950  0.25800  0.29770  Biso   1.000  C
  N3       1.0000 0.54254  0.40559  0.40466  Biso   1.000  N
  N4       1.0000 0.61955  0.32909  0.32984  Biso   1.000  N
  H2       1.0000 0.57782  0.47119  0.33312  Biso   1.000  H
  N5       1.0000 0.25009  0.28758  0.33844  Biso   1.000  N
  H3       1.0000 0.27614  0.42111  0.31061  Biso   1.000  H
  H4       1.0000 0.27240  0.41679  0.37719  Biso   1.000  H
  O1       1.0000 0.41321  0.39468  0.45473  Biso   1.000  O
  N6       1.0000 0.33000  0.18442  0.27567  Biso   1.000  N
  H5       1.0000 0.43622  0.18610  0.22771  Biso   1.000  H
  H6       1.0000 0.37409  0.28157  0.22119  Biso   1.000  H
  O2       1.0000 0.60426  0.18449  0.27908  Biso   1.000  O
  C7       1.0000 0.60754  0.45399  0.44946  Biso   1.000  C
  C8       1.0000 0.72210  0.33267  0.34245  Biso   1.000  C
  C9       1.0000 0.24272  0.23223  0.28564  Biso   1.000  C
  C10      1.0000 0.19592  0.24921  0.37645  Biso   1.000  C
  C11      1.0000 0.32033  0.08493  0.27376  Biso   1.000  C
  N7       1.0000 0.68692  0.39373  0.47456  Biso   1.000  N
  H7       1.0000 0.63252  0.51241  0.43339  Biso   1.000  H
  H8       1.0000 0.57213  0.47463  0.47979  Biso   1.000  H
  N8       1.0000 0.76042  0.30881  0.40160  Biso   1.000  N
  H9       1.0000 0.74323  0.39798  0.33399  Biso   1.000  H
  H10      1.0000 0.74866  0.28750  0.31701  Biso   1.000  H
  H11      1.0000 0.21545  0.27184  0.25229  Biso   1.000  H
  C12      1.0000 0.17579  0.14591  0.29575  Biso   1.000  C
  N9       1.0000 0.15654  0.16268  0.35425  Biso   1.000  N
  O3       1.0000 0.18457  0.28450  0.42276  Biso   1.000  O
  N10      1.0000 0.23394  0.06091  0.28962  Biso   1.000  N
  O4       1.0000 0.37940  0.02650  0.26072  Biso   1.000  O
  C13      1.0000 0.70274  0.37001  0.53237  Biso   1.000  C
  C14      1.0000 0.77107  0.37982  0.44735  Biso   1.000  C
  C15      1.0000 0.81351  0.22703  0.41654  Biso   1.000  C
  H12      1.0000 0.11691  0.14591  0.26772  Biso   1.000  H
  C16      1.0000 0.07993  0.11553  0.37822  Biso   1.000  C
  C17      1.0000 0.19129  0.96603  0.27744  Biso   1.000  C
  N11      1.0000 0.79223  0.33319  0.54507  Biso   1.000  N
  O5       1.0000 0.64502  0.38173  0.56572  Biso   1.000  O
  C18      1.0000 0.84332  0.33224  0.49573  Biso   1.000  C
  H13      1.0000 0.79513  0.44220  0.43469  Biso   1.000  H
  N12      1.0000 0.85588  0.23508  0.47262  Biso   1.000  N
  O6       1.0000 0.82255  0.15719  0.38466  Biso   1.000  O
  N13      1.0000 0.10046  0.01589  0.39572  Biso   1.000  N
  H14      1.0000 0.02264  0.11663  0.34971  Biso   1.000  H
  H15      1.0000 0.06684  0.15272  0.41149  Biso   1.000  H
  N14      1.0000 0.17162  0.91442  0.32846  Biso   1.000  N
  H16      1.0000 0.23394  0.92650  0.25808  Biso   1.000  H
  H17      1.0000 0.13192  0.97394  0.25108  Biso   1.000  H
  C19      1.0000 0.83943  0.32001  0.60408  Biso   1.000  C
  H18      1.0000 0.90368  0.36862  0.50312  Biso   1.000  H
  C20      1.0000 0.92773  0.16773  0.49876  Biso   1.000  C
  C21      1.0000 0.10543  0.98470  0.45197  Biso   1.000  C
  C22      1.0000 0.08694  0.93550  0.35528  Biso   1.000  C
  C23      1.0000 0.20241  0.82012  0.33852  Biso   1.000  C
  N15      1.0000 0.84783  0.21971  0.62179  Biso   1.000  N
  H19      1.0000 0.90298  0.34863  0.60779  Biso   1.000  H
  H20      1.0000 0.80383  0.35530  0.62991  Biso   1.000  H
  N16      1.0000 0.90063  0.11509  0.54839  Biso   1.000  N
  H21      1.0000 0.98643  0.20353  0.51120  Biso   1.000  H
  H22      1.0000 0.94051  0.12043  0.46998  Biso   1.000  H
  O7       1.0000 0.11426  0.03748  0.49461  Biso   1.000  O
  N17      1.0000 0.09947  0.88491  0.45162  Biso   1.000  N
  C24      1.0000 0.07935  0.84486  0.39391  Biso   1.000  C
  H23      1.0000 0.02965  0.94407  0.32651  Biso   1.000  H
  N18      1.0000 0.15220  0.78029  0.37822  Biso   1.000  N
  O8       1.0000 0.26475  0.77919  0.31610  Biso   1.000  O
  C25      1.0000 0.92075  0.15514  0.60611  Biso   1.000  C
  C26      1.0000 0.79769  0.17988  0.66149  Biso   1.000  C
  C27      1.0000 0.89467  0.01530  0.54805  Biso   1.000  C
  C28      1.0000 0.07236  0.83227  0.50122  Biso   1.000  C
  H24      1.0000 0.01556  0.81499  0.38639  Biso   1.000  H
  C29      1.0000 0.16066  0.67999  0.39589  Biso   1.000  C
  H25      1.0000 0.98453  0.18501  0.61358  Biso   1.000  H
  C30      1.0000 0.91316  0.06450  0.64473  Biso   1.000  C
  N19      1.0000 0.82848  0.08558  0.67156  Biso   1.000  N
  O9       1.0000 0.73535  0.22081  0.68391  Biso   1.000  O
  N20      1.0000 0.89964  0.98411  0.60430  Biso   1.000  N
  O10      1.0000 0.88584  0.96252  0.50541  Biso   1.000  O
  N21      1.0000 0.14422  0.76492  0.52740  Biso   1.000  N
  H26      1.0000 0.01367  0.79647  0.48882  Biso   1.000  H
  H27      1.0000 0.05951  0.87957  0.52999  Biso   1.000  H
  N22      1.0000 0.20787  0.66681  0.45495  Biso   1.000  N
  H28      1.0000 0.09712  0.65137  0.39222  Biso   1.000  H
  H29      1.0000 0.19627  0.64470  0.37010  Biso   1.000  H
  H30      1.0000 0.97044  0.05593  0.67350  Biso   1.000  H
  C31      1.0000 0.80872  0.03397  0.72254  Biso   1.000  C
  C32      1.0000 0.92017  0.88447  0.62179  Biso   1.000  C
  C33      1.0000 0.15671  0.66776  0.50428  Biso   1.000  C
  C34      1.0000 0.18652  0.77297  0.58347  Biso   1.000  C
  C35      1.0000 0.29736  0.62999  0.46765  Biso   1.000  C
  H31      1.0000 0.76615  0.07350  0.74189  Biso   1.000  H
  H32      1.0000 0.86817  0.02606  0.74889  Biso   1.000  H
  N23      1.0000 0.76616  0.93909  0.71040  Biso   1.000  N
  N24      1.0000 0.84356  0.83732  0.64577  Biso   1.000  N
  H33      1.0000 0.97746  0.88337  0.65030  Biso   1.000  H
  H34      1.0000 0.93325  0.84728  0.58848  Biso   1.000  H
  H35      1.0000 0.09642  0.63138  0.49690  Biso   1.000  H
  C36      1.0000 0.22903  0.62018  0.55267  Biso   1.000  C
  N25      1.0000 0.23967  0.69119  0.59838  Biso   1.000  N
  O11      1.0000 0.17755  0.84281  0.61535  Biso   1.000  O
  N26      1.0000 0.31318  0.60627  0.52545  Biso   1.000  N
  O12      1.0000 0.35500  0.61827  0.43426  Biso   1.000  O
  C37      1.0000 0.67977  0.91507  0.72625  Biso   1.000  C
  C38      1.0000 0.82423  0.85409  0.70422  Biso   1.000  C
  C39      1.0000 0.80418  0.75079  0.62356  Biso   1.000  C
  H36      1.0000 0.20496  0.55780  0.56528  Biso   1.000  H
  C40      1.0000 0.27799  0.66733  0.65752  Biso   1.000  C
  C41      1.0000 0.39255  0.54601  0.55051  Biso   1.000  C
  N27      1.0000 0.67010  0.81558  0.72435  Biso   1.000  N
  O13      1.0000 0.62063  0.97350  0.73930  Biso   1.000  O
  C42      1.0000 0.75737  0.76777  0.71433  Biso   1.000  C
  H37      1.0000 0.88318  0.85409  0.73230  Biso   1.000  H
  N28      1.0000 0.74992  0.71242  0.66154  Biso   1.000  N
  O14      1.0000 0.81552  0.71550  0.57721  Biso   1.000  O
  N29      1.0000 0.38055  0.67091  0.67018  Biso   1.000  N
  H38      1.0000 0.25686  0.60202  0.66599  Biso   1.000  H
  H39      1.0000 0.25144  0.71250  0.68301  Biso   1.000  H
  N30      1.0000 0.45754  0.59441  0.59531  Biso   1.000  N
  H40      1.0000 0.36758  0.48759  0.56662  Biso   1.000  H
  H41      1.0000 0.42796  0.52537  0.52018  Biso   1.000  H
  C43      1.0000 0.59568  0.76602  0.75118  Biso   1.000  C
  H42      1.0000 0.78465  0.72816  0.74772  Biso   1.000  H
  C44      1.0000 0.70468  0.61703  0.65458  Biso   1.000  C
  C45      1.0000 0.44328  0.59331  0.65536  Biso   1.000  C
  C46      1.0000 0.43053  0.74200  0.70232  Biso   1.000  C
  C47      1.0000 0.55235  0.60649  0.59000  Biso   1.000  C
  N31      1.0000 0.52550  0.71711  0.71087  Biso   1.000  N
  H43      1.0000 0.56388  0.81390  0.77230  Biso   1.000  H
  H44      1.0000 0.62600  0.71843  0.77883  Biso   1.000  H
  N32      1.0000 0.60199  0.62091  0.64344  Biso   1.000  N
  H45      1.0000 0.72396  0.57889  0.68940  Biso   1.000  H
  H46      1.0000 0.72762  0.58321  0.62279  Biso   1.000  H
  H47      1.0000 0.42228  0.52881  0.66689  Biso   1.000  H
  C48      1.0000 0.54154  0.62018  0.68785  Biso   1.000  C
  O15      1.0000 0.39584  0.81551  0.72094  Biso   1.000  O
  O16      1.0000 0.58682  0.60532  0.54528  Biso   1.000  O
  H48      1.0000 0.56369  0.57310  0.71852  Biso   1.000  H
  O17      1.0000 0.62062  0.52647  0.23929  Biso   1.000  O
  C49      1.0000 0.67975  0.58489  0.22624  Biso   1.000  C
  N33      1.0000 0.67001  0.68438  0.22434  Biso   1.000  N
  N34      1.0000 0.76615  0.56088  0.21039  Biso   1.000  N
  C50      1.0000 0.59560  0.73402  0.25117  Biso   1.000  C
  C51      1.0000 0.75729  0.73219  0.21436  Biso   1.000  C
  C52      1.0000 0.82422  0.64587  0.20421  Biso   1.000  C
  C53      1.0000 0.80872  0.46599  0.22257  Biso   1.000  C
  N35      1.0000 0.52541  0.78293  0.21086  Biso   1.000  N
  H49      1.0000 0.56380  0.68607  0.27230  Biso   1.000  H
  H50      1.0000 0.62592  0.78161  0.27882  Biso   1.000  H
  N36      1.0000 0.74992  0.78761  0.16157  Biso   1.000  N
  H51      1.0000 0.78464  0.77180  0.24771  Biso   1.000  H
  N37      1.0000 0.84355  0.66271  0.14576  Biso   1.000  N
  H52      1.0000 0.88310  0.64587  0.23229  Biso   1.000  H
  N38      1.0000 0.82840  0.41438  0.17155  Biso   1.000  N
  H53      1.0000 0.76614  0.42653  0.24188  Biso   1.000  H
  H54      1.0000 0.86809  0.47390  0.24888  Biso   1.000  H
  C54      1.0000 0.43051  0.75803  0.20231  Biso   1.000  C
  C55      1.0000 0.54153  0.87979  0.18784  Biso   1.000  C
  C56      1.0000 0.70459  0.88301  0.15457  Biso   1.000  C
  C57      1.0000 0.80409  0.74918  0.12355  Biso   1.000  C
  C58      1.0000 0.92008  0.61549  0.12178  Biso   1.000  C
  C59      1.0000 0.91315  0.43546  0.14472  Biso   1.000  C
  C60      1.0000 0.79760  0.32008  0.16149  Biso   1.000  C
  O18      1.0000 0.39583  0.68453  0.22093  Biso   1.000  O
  N39      1.0000 0.38054  0.82912  0.17017  Biso   1.000  N
  C61      1.0000 0.44320  0.90673  0.15535  Biso   1.000  C
  N40      1.0000 0.60191  0.87913  0.14343  Biso   1.000  N
  H55      1.0000 0.56361  0.92693  0.21851  Biso   1.000  H
  H56      1.0000 0.72395  0.92108  0.18939  Biso   1.000  H
  H57      1.0000 0.72761  0.91683  0.12282  Biso   1.000  H
  O19      1.0000 0.81551  0.78446  0.07720  Biso   1.000  O
  N41      1.0000 0.89962  0.51592  0.10429  Biso   1.000  N
  H58      1.0000 0.97744  0.61659  0.15030  Biso   1.000  H
  H59      1.0000 0.93324  0.65268  0.08852  Biso   1.000  H
  C62      1.0000 0.92074  0.34490  0.10610  Biso   1.000  C
  H60      1.0000 0.97043  0.44410  0.17350  Biso   1.000  H
  N42      1.0000 0.84782  0.28033  0.12178  Biso   1.000  N
  O20      1.0000 0.73533  0.27923  0.18391  Biso   1.000  O
  C63      1.0000 0.27790  0.83271  0.15751  Biso   1.000  C
  N43      1.0000 0.45753  0.90563  0.09530  Biso   1.000  N
  H61      1.0000 0.42219  0.97123  0.16689  Biso   1.000  H
  C64      1.0000 0.55233  0.89348  0.08999  Biso   1.000  C
  C65      1.0000 0.89458  0.48474  0.04804  Biso   1.000  C
  N44      1.0000 0.90061  0.38487  0.04839  Biso   1.000  N
  H62      1.0000 0.98452  0.31503  0.11362  Biso   1.000  H
  C66      1.0000 0.83941  0.18003  0.10407  Biso   1.000  C
  N45      1.0000 0.23960  0.80877  0.09841  Biso   1.000  N
  H63      1.0000 0.25679  0.89802  0.16602  Biso   1.000  H
  H64      1.0000 0.25142  0.78747  0.18300  Biso   1.000  H
  C67      1.0000 0.39247  0.95402  0.05050  Biso   1.000  C
  O21      1.0000 0.58680  0.89472  0.04527  Biso   1.000  O
  O22      1.0000 0.88583  0.53752  0.00540  Biso   1.000  O
  C68      1.0000 0.92778  0.33231  0.99875  Biso   1.000  C
  N46      1.0000 0.79221  0.16678  0.04506  Biso   1.000  N
  H65      1.0000 0.90289  0.15140  0.10779  Biso   1.000  H
  H66      1.0000 0.80382  0.14467  0.12991  Biso   1.000  H
  C69      1.0000 0.22901  0.87979  0.05266  Biso   1.000  C
  C70      1.0000 0.18651  0.72699  0.08346  Biso   1.000  C
  N47      1.0000 0.31310  0.89370  0.02545  Biso   1.000  N
  H67      1.0000 0.42788  0.97460  0.02022  Biso   1.000  H
  H68      1.0000 0.36750  0.01237  0.06662  Biso   1.000  H
  H69      1.0000 0.98641  0.29651  0.01119  Biso   1.000  H
  N48      1.0000 0.85586  0.26488  0.97261  Biso   1.000  N
  H70      1.0000 0.94057  0.37960  0.96998  Biso   1.000  H
  C71      1.0000 0.70273  0.13002  0.03236  Biso   1.000  C
  C72      1.0000 0.84338  0.16780  0.99572  Biso   1.000  C
  C73      1.0000 0.15669  0.83220  0.00428  Biso   1.000  C
  H71      1.0000 0.20489  0.94224  0.06532  Biso   1.000  H
  N49      1.0000 0.14421  0.73512  0.02739  Biso   1.000  N
  O23      1.0000 0.17753  0.65722  0.11535  Biso   1.000  O
  C74      1.0000 0.29734  0.86998  0.96764  Biso   1.000  C
  C75      1.0000 0.81356  0.27301  0.91654  Biso   1.000  C
  O24      1.0000 0.64501  0.11831  0.06575  Biso   1.000  O
  N50      1.0000 0.68697  0.10630  0.97455  Biso   1.000  N
  H72      1.0000 0.90359  0.13142  0.00311  Biso   1.000  H
  C76      1.0000 0.77106  0.12021  0.94734  Biso   1.000  C
  N51      1.0000 0.20786  0.83322  0.95494  Biso   1.000  N
  H73      1.0000 0.09648  0.86858  0.99689  Biso   1.000  H
  C77      1.0000 0.07228  0.66769  0.00121  Biso   1.000  C
  O25      1.0000 0.35506  0.88169  0.93425  Biso   1.000  O
  N52      1.0000 0.76047  0.19123  0.90159  Biso   1.000  N
  O26      1.0000 0.82253  0.34278  0.88461  Biso   1.000  O
  C78      1.0000 0.60752  0.04598  0.94945  Biso   1.000  C
  H74      1.0000 0.79518  0.05776  0.93468  Biso   1.000  H
  C79      1.0000 0.16065  0.81997  0.89589  Biso   1.000  C
  H75      1.0000 0.05949  0.62040  0.02998  Biso   1.000  H
  N53      1.0000 0.09946  0.61513  0.95161  Biso   1.000  N
  H76      1.0000 0.01366  0.70349  0.98881  Biso   1.000  H
  C80      1.0000 0.72216  0.16729  0.84245  Biso   1.000  C
  H77      1.0000 0.63257  0.98763  0.93338  Biso   1.000  H
  N54      1.0000 0.54253  0.09437  0.90466  Biso   1.000  N
  H78      1.0000 0.57212  0.02540  0.97978  Biso   1.000  H
  N55      1.0000 0.15225  0.71967  0.87822  Biso   1.000  N
  H79      1.0000 0.09717  0.84860  0.89217  Biso   1.000  H
  H80      1.0000 0.19625  0.85533  0.87009  Biso   1.000  H
  C81      1.0000 0.07933  0.65510  0.89390  Biso   1.000  C
  C82      1.0000 0.10549  0.51526  0.95196  Biso   1.000  C
  N56      1.0000 0.61953  0.17088  0.82983  Biso   1.000  N
  H81      1.0000 0.74321  0.10198  0.83398  Biso   1.000  H
  H82      1.0000 0.74865  0.21253  0.81700  Biso   1.000  H
  C83      1.0000 0.44774  0.10652  0.91001  Biso   1.000  C
  C84      1.0000 0.55687  0.09327  0.84465  Biso   1.000  C
  C85      1.0000 0.20247  0.67992  0.83851  Biso   1.000  C
  H83      1.0000 0.01555  0.68497  0.88638  Biso   1.000  H
  C86      1.0000 0.08692  0.56454  0.85528  Biso   1.000  C
  N57      1.0000 0.10045  0.48408  0.89571  Biso   1.000  N
  O27      1.0000 0.11424  0.46248  0.99460  Biso   1.000  O
  C87      1.0000 0.56956  0.24197  0.79769  Biso   1.000  C
  N58      1.0000 0.39817  0.12087  0.85657  Biso   1.000  N
  O28      1.0000 0.41327  0.10528  0.95473  Biso   1.000  O
  C88      1.0000 0.45854  0.12021  0.81216  Biso   1.000  C
  H84      1.0000 0.57787  0.02877  0.83307  Biso   1.000  H
  N59      1.0000 0.17167  0.58562  0.82845  Biso   1.000  N
  O29      1.0000 0.26474  0.72077  0.81609  Biso   1.000  O
  H85      1.0000 0.02964  0.55590  0.82650  Biso   1.000  H
  C89      1.0000 0.07991  0.38451  0.87817  Biso   1.000  C
  N60      1.0000 0.47466  0.21707  0.78914  Biso   1.000  N
  O30      1.0000 0.60424  0.31547  0.77907  Biso   1.000  O
  C90      1.0000 0.29548  0.11699  0.84543  Biso   1.000  C
  H86      1.0000 0.43646  0.07307  0.78149  Biso   1.000  H
  C91      1.0000 0.19135  0.53401  0.77743  Biso   1.000  C
  N61      1.0000 0.15652  0.33729  0.85424  Biso   1.000  N
  H87      1.0000 0.02263  0.38341  0.84970  Biso   1.000  H
  H88      1.0000 0.06683  0.34732  0.91148  Biso   1.000  H
  C92      1.0000 0.40448  0.26598  0.74883  Biso   1.000  C
  N62      1.0000 0.25015  0.21239  0.83843  Biso   1.000  N
  H89      1.0000 0.27612  0.07892  0.81061  Biso   1.000  H
  H90      1.0000 0.27246  0.08317  0.87718  Biso   1.000  H
  N63      1.0000 0.23392  0.43912  0.78961  Biso   1.000  N
  H91      1.0000 0.23392  0.57347  0.75807  Biso   1.000  H
  H92      1.0000 0.13190  0.52610  0.75108  Biso   1.000  H
  C93      1.0000 0.19598  0.25082  0.87645  Biso   1.000  C
  C94      1.0000 0.17584  0.35413  0.79575  Biso   1.000  C
  N64      1.0000 0.33006  0.31562  0.77566  Biso   1.000  N
  H93      1.0000 0.43620  0.31393  0.72770  Biso   1.000  H
  H94      1.0000 0.37415  0.21839  0.72118  Biso   1.000  H
  C95      1.0000 0.24271  0.26781  0.78564  Biso   1.000  C
  C96      1.0000 0.32032  0.41511  0.77376  Biso   1.000  C
  O31      1.0000 0.18455  0.21554  0.92276  Biso   1.000  O
  H95      1.0000 0.11697  0.35413  0.76771  Biso   1.000  H
  H96      1.0000 0.21544  0.22820  0.75229  Biso   1.000  H
  O32      1.0000 0.37945  0.47353  0.76071  Biso   1.000  O
