data_image0
_cell_length_a       16.827
_cell_length_b       18.611
_cell_length_c       16.242
_cell_angle_alpha    104.08
_cell_angle_beta     117.78
_cell_angle_gamma    102.2

_symmetry_space_group_name_H-M    "P 1"
_symmetry_int_tables_number       1

loop_
  _symmetry_equiv_pos_as_xyz
  'x, y, z'

loop_
  _atom_site_label
  _atom_site_occupancy
  _atom_site_fract_x
  _atom_site_fract_y
  _atom_site_fract_z
  _atom_site_thermal_displace_type
  _atom_site_B_iso_or_equiv
  _atom_site_type_symbol
  C1       1.0000 0.72622  0.94020  0.94113  Biso   1.000  C
  O1       1.0000 0.77158  0.96541  0.89067  Biso   1.000  O
  H1       1.0000 0.71207  0.98310  0.97166  Biso   1.000  H
  H2       1.0000 0.66585  0.89430  0.89272  Biso   1.000  H
  C2       1.0000 0.79625  0.91844  0.02196  Biso   1.000  C
  C3       1.0000 0.76032  0.03419  0.87522  Biso   1.000  C
  H3       1.0000 0.80646  0.87317  0.98984  Biso   1.000  H
  O2       1.0000 0.88765  0.98279  0.09355  Biso   1.000  O
  H4       1.0000 0.76757  0.90204  0.05749  Biso   1.000  H
  C4       1.0000 0.68039  0.02581  0.78765  Biso   1.000  C
  C5       1.0000 0.83152  0.10920  0.94643  Biso   1.000  C
  C6       1.0000 0.88796  0.05359  0.14688  Biso   1.000  C
  O3       1.0000 0.60849  0.94990  0.71916  Biso   1.000  O
  C7       1.0000 0.66842  0.09199  0.76772  Biso   1.000  C
  C8       1.0000 0.81372  0.17489  0.92742  Biso   1.000  C
  C9       1.0000 0.92415  0.11726  0.03916  Biso   1.000  C
  C10      1.0000 0.91030  0.12149  0.12719  Biso   1.000  C
  C11      1.0000 0.87448  0.05939  0.22620  Biso   1.000  C
  C12      1.0000 0.62849  0.90466  0.65174  Biso   1.000  C
  C13      1.0000 0.73332  0.16882  0.84037  Biso   1.000  C
  O4       1.0000 0.59732  0.08250  0.67075  Biso   1.000  O
  H5       1.0000 0.85815  0.22578  0.97598  Biso   1.000  H
  H6       1.0000 0.93497  0.06766  0.02030  Biso   1.000  H
  C14      1.0000 0.01300  0.18518  0.06848  Biso   1.000  C
  C15      1.0000 0.91938  0.19291  0.18991  Biso   1.000  C
  C16      1.0000 0.88815  0.13086  0.28840  Biso   1.000  C
  O5       1.0000 0.84591  0.98991  0.24014  Biso   1.000  O
  C17      1.0000 0.54911  0.82419  0.58750  Biso   1.000  C
  H7       1.0000 0.63304  0.93212  0.60939  Biso   1.000  H
  H8       1.0000 0.68989  0.89939  0.69015  Biso   1.000  H
  C18      1.0000 0.71571  0.24299  0.82333  Biso   1.000  C
  C19      1.0000 0.49737  0.05061  0.63939  Biso   1.000  C
  H9       1.0000 0.00561  0.23528  0.09022  Biso   1.000  H
  H10      1.0000 0.01507  0.17979  0.00878  Biso   1.000  H
  C20      1.0000 0.10854  0.18968  0.15105  Biso   1.000  C
  C21      1.0000 0.90944  0.19965  0.27067  Biso   1.000  C
  H11      1.0000 0.93290  0.23828  0.17658  Biso   1.000  H
  O6       1.0000 0.88590  0.13599  0.37438  Biso   1.000  O
  C22      1.0000 0.92346  0.97545  0.31408  Biso   1.000  C
  C23      1.0000 0.53810  0.77852  0.49825  Biso   1.000  C
  C24      1.0000 0.48912  0.79099  0.61500  Biso   1.000  C
  C25      1.0000 0.66374  0.27042  0.87439  Biso   1.000  C
  H12      1.0000 0.67073  0.22611  0.75022  Biso   1.000  H
  C26      1.0000 0.80762  0.30948  0.85492  Biso   1.000  C
  H13      1.0000 0.48048  0.99590  0.63424  Biso   1.000  H
  H14      1.0000 0.45642  0.04989  0.57265  Biso   1.000  H
  C27      1.0000 0.47824  0.09670  0.70886  Biso   1.000  C
  H15      1.0000 0.10631  0.19196  0.21029  Biso   1.000  H
  H16      1.0000 0.11968  0.14175  0.12817  Biso   1.000  H
  C28      1.0000 0.19253  0.26327  0.18022  Biso   1.000  C
  C29      1.0000 0.92549  0.28006  0.34158  Biso   1.000  C
  C30      1.0000 0.79608  0.10526  0.36310  Biso   1.000  C
  C31      1.0000 0.88217  0.90423  0.32931  Biso   1.000  C
  H17      1.0000 0.96551  0.96578  0.29105  Biso   1.000  H
  H18      1.0000 0.96165  0.02184  0.37764  Biso   1.000  H
  C32      1.0000 0.46936  0.70290  0.43954  Biso   1.000  C
  H19      1.0000 0.57808  0.79980  0.47856  Biso   1.000  H
  C33      1.0000 0.41790  0.71473  0.55560  Biso   1.000  C
  H20      1.0000 0.49647  0.82061  0.67499  Biso   1.000  H
  C34      1.0000 0.56152  0.23460  0.82022  Biso   1.000  C
  C35      1.0000 0.71070  0.32531  0.97272  Biso   1.000  C
  H21      1.0000 0.84412  0.28569  0.83295  Biso   1.000  H
  H22      1.0000 0.84750  0.33540  0.92825  Biso   1.000  H
  C36      1.0000 0.78892  0.37230  0.81227  Biso   1.000  C
  H23      1.0000 0.40945  0.07610  0.68249  Biso   1.000  H
  H24      1.0000 0.51313  0.09300  0.77393  Biso   1.000  H
  O7       1.0000 0.51054  0.18059  0.72083  Biso   1.000  O
  H25      1.0000 0.18054  0.31081  0.20272  Biso   1.000  H
  H26      1.0000 0.19342  0.26089  0.12029  Biso   1.000  H
  C37      1.0000 0.28808  0.27156  0.25976  Biso   1.000  C
  C38      1.0000 0.83289  0.29929  0.29840  Biso   1.000  C
  H27      1.0000 0.93715  0.27367  0.40385  Biso   1.000  H
  C39      1.0000 0.01497  0.34879  0.37279  Biso   1.000  C
  C40      1.0000 0.72969  0.14657  0.31969  Biso   1.000  C
  H28      1.0000 0.76460  0.04876  0.31931  Biso   1.000  H
  H29      1.0000 0.80725  0.11004  0.42878  Biso   1.000  H
  C41      1.0000 0.78445  0.86411  0.28287  Biso   1.000  C
  C42      1.0000 0.94624  0.87750  0.39249  Biso   1.000  C
  C43      1.0000 0.41009  0.67020  0.46878  Biso   1.000  C
  H30      1.0000 0.46226  0.67327  0.37985  Biso   1.000  H
  C44      1.0000 0.34906  0.67788  0.58143  Biso   1.000  C
  C45      1.0000 0.51219  0.25279  0.86492  Biso   1.000  C
  H31      1.0000 0.77814  0.34979  0.00992  Biso   1.000  H
  C46      1.0000 0.66236  0.34584  0.01946  Biso   1.000  C
  H32      1.0000 0.74673  0.39191  0.82825  Biso   1.000  H
  H33      1.0000 0.75466  0.34711  0.73916  Biso   1.000  H
  C47      1.0000 0.87834  0.44273  0.85068  Biso   1.000  C
  H34      1.0000 0.28658  0.26946  0.31817  Biso   1.000  H
  H35      1.0000 0.30410  0.22739  0.23537  Biso   1.000  H
  C48      1.0000 0.36925  0.35395  0.29264  Biso   1.000  C
  C49      1.0000 0.81329  0.34037  0.23560  Biso   1.000  C
  C50      1.0000 0.76527  0.27614  0.32234  Biso   1.000  C
  H36      1.0000 0.00957  0.35334  0.31234  Biso   1.000  H
  H37      1.0000 0.01679  0.39825  0.41219  Biso   1.000  H
  C51      1.0000 0.10923  0.33855  0.43453  Biso   1.000  C
  O8       1.0000 0.77774  0.23148  0.38105  Biso   1.000  O
  H38      1.0000 0.67084  0.12547  0.31794  Biso   1.000  H
  H39      1.0000 0.71198  0.13708  0.25090  Biso   1.000  H
  C52      1.0000 0.74795  0.79811  0.29719  Biso   1.000  C
  H40      1.0000 0.74133  0.88223  0.24037  Biso   1.000  H
  C53      1.0000 0.91193  0.81101  0.40719  Biso   1.000  C
  H41      1.0000 0.01273  0.90449  0.42506  Biso   1.000  H
  H42      1.0000 0.36483  0.61792  0.42969  Biso   1.000  H
  H43      1.0000 0.34705  0.62440  0.57636  Biso   1.000  H
  H44      1.0000 0.28431  0.67361  0.53378  Biso   1.000  H
  O9       1.0000 0.37925  0.72550  0.68166  Biso   1.000  O
  C54      1.0000 0.56188  0.30748  0.96333  Biso   1.000  C
  O10      1.0000 0.41290  0.21170  0.81272  Biso   1.000  O
  C55      1.0000 0.71340  0.40669  0.12878  Biso   1.000  C
  H45      1.0000 0.92585  0.42270  0.84674  Biso   1.000  H
  H46      1.0000 0.90570  0.47367  0.92143  Biso   1.000  H
  C56      1.0000 0.86301  0.49669  0.79583  Biso   1.000  C
  H47      1.0000 0.43087  0.35899  0.34628  Biso   1.000  H
  H48      1.0000 0.37286  0.35497  0.23567  Biso   1.000  H
  H49      1.0000 0.35284  0.39767  0.31575  Biso   1.000  H
  C57      1.0000 0.73329  0.36306  0.20067  Biso   1.000  C
  H50      1.0000 0.85577  0.35385  0.21537  Biso   1.000  H
  C58      1.0000 0.68701  0.29889  0.29219  Biso   1.000  C
  H51      1.0000 0.10898  0.29086  0.39325  Biso   1.000  H
  H52      1.0000 0.11215  0.32997  0.49226  Biso   1.000  H
  C59      1.0000 0.19930  0.40807  0.47249  Biso   1.000  C
  C60      1.0000 0.64233  0.75173  0.24688  Biso   1.000  C
  C61      1.0000 0.81414  0.77063  0.35938  Biso   1.000  C
  H53      1.0000 0.95540  0.79331  0.44999  Biso   1.000  H
  C62      1.0000 0.31294  0.70109  0.70772  Biso   1.000  C
  O11      1.0000 0.50892  0.32721  0.00431  Biso   1.000  O
  C63      1.0000 0.35764  0.24831  0.75302  Biso   1.000  C
  H54      1.0000 0.66670  0.42955  0.13105  Biso   1.000  H
  C64      1.0000 0.80329  0.47656  0.16310  Biso   1.000  C
  H55      1.0000 0.84274  0.46742  0.72674  Biso   1.000  H
  H56      1.0000 0.81057  0.51213  0.79318  Biso   1.000  H
  C65      1.0000 0.95084  0.57099  0.84242  Biso   1.000  C
  C66      1.0000 0.67192  0.34399  0.23310  Biso   1.000  C
  O12      1.0000 0.62065  0.27448  0.31825  Biso   1.000  O
  H57      1.0000 0.19675  0.41656  0.41484  Biso   1.000  H
  H58      1.0000 0.19970  0.45579  0.51370  Biso   1.000  H
  C67      1.0000 0.29426  0.39700  0.53529  Biso   1.000  C
  O13      1.0000 0.58701  0.78834  0.18719  Biso   1.000  O
  H59      1.0000 0.62535  0.69720  0.20431  Biso   1.000  H
  H60      1.0000 0.62793  0.75003  0.29779  Biso   1.000  H
  H61      1.0000 0.79163  0.72470  0.36810  Biso   1.000  H
  C68      1.0000 0.32807  0.65602  0.76689  Biso   1.000  C
  C69      1.0000 0.23467  0.72378  0.67757  Biso   1.000  C
  C70      1.0000 0.48219  0.27107  0.04302  Biso   1.000  C
  H62      1.0000 0.37465  0.30280  0.79568  Biso   1.000  H
  H63      1.0000 0.37208  0.25003  0.70219  Biso   1.000  H
  C71      1.0000 0.25201  0.20188  0.70272  Biso   1.000  C
  H64      1.0000 0.85408  0.45724  0.16885  Biso   1.000  H
  H65      1.0000 0.78794  0.49940  0.11249  Biso   1.000  H
  C72      1.0000 0.84020  0.54157  0.26499  Biso   1.000  C
  H66      1.0000 0.93826  0.59922  0.79833  Biso   1.000  H
  H67      1.0000 0.96524  0.60479  0.90666  Biso   1.000  H
  H68      1.0000 0.00516  0.55671  0.85234  Biso   1.000  H
  O14      1.0000 0.59898  0.37397  0.21378  Biso   1.000  O
  C73      1.0000 0.65089  0.32205  0.41847  Biso   1.000  C
  H69      1.0000 0.29318  0.34896  0.49378  Biso   1.000  H
  H70      1.0000 0.29619  0.38819  0.59249  Biso   1.000  H
  C74      1.0000 0.38433  0.46365  0.57393  Biso   1.000  C
  C75      1.0000 0.48772  0.74725  0.13499  Biso   1.000  C
  O15      1.0000 0.40096  0.62596  0.78613  Biso   1.000  O
  C76      1.0000 0.26666  0.63687  0.79924  Biso   1.000  C
  C77      1.0000 0.16711  0.70072  0.70159  Biso   1.000  C
  O16      1.0000 0.22216  0.76851  0.61886  Biso   1.000  O
  H71      1.0000 0.41399  0.23679  0.99643  Biso   1.000  H
  H72      1.0000 0.52013  0.23768  0.04999  Biso   1.000  H
  C78      1.0000 0.50098  0.31699  0.14416  Biso   1.000  C
  C79      1.0000 0.21551  0.13587  0.71704  Biso   1.000  C
  C80      1.0000 0.18587  0.22943  0.64060  Biso   1.000  C
  H73      1.0000 0.78871  0.56036  0.25810  Biso   1.000  H
  H74      1.0000 0.85351  0.51769  0.31438  Biso   1.000  H
  C81      1.0000 0.93069  0.61348  0.30620  Biso   1.000  C
  C82      1.0000 0.58210  0.28528  0.44438  Biso   1.000  C
  H75      1.0000 0.65285  0.37558  0.42355  Biso   1.000  H
  H76      1.0000 0.71569  0.32639  0.46620  Biso   1.000  H
  H77      1.0000 0.43908  0.44979  0.60878  Biso   1.000  H
  H78      1.0000 0.38316  0.47410  0.51847  Biso   1.000  H
  H79      1.0000 0.38957  0.51065  0.62006  Biso   1.000  H
  C83      1.0000 0.43802  0.69250  0.03658  Biso   1.000  C
  C84      1.0000 0.43844  0.76544  0.17969  Biso   1.000  C
  C85      1.0000 0.49897  0.68299  0.85575  Biso   1.000  C
  C86      1.0000 0.18670  0.65958  0.76439  Biso   1.000  C
  C87      1.0000 0.28656  0.59329  0.87113  Biso   1.000  C
  C88      1.0000 0.07445  0.71987  0.65833  Biso   1.000  C
  C89      1.0000 0.27029  0.85338  0.68030  Biso   1.000  C
  H80      1.0000 0.48777  0.27980  0.17310  Biso   1.000  H
  H81      1.0000 0.45690  0.34500  0.13492  Biso   1.000  H
  C90      1.0000 0.11784  0.09583  0.67068  Biso   1.000  C
  H82      1.0000 0.25863  0.11781  0.75954  Biso   1.000  H
  C91      1.0000 0.08806  0.18900  0.59280  Biso   1.000  C
  H83      1.0000 0.20836  0.27531  0.63189  Biso   1.000  H
  H84      1.0000 0.94139  0.65219  0.36628  Biso   1.000  H
  H85      1.0000 0.91494  0.63716  0.25651  Biso   1.000  H
  C92      1.0000 0.01949  0.60689  0.33211  Biso   1.000  C
  C93      1.0000 0.51086  0.20896  0.38499  Biso   1.000  C
  C94      1.0000 0.58985  0.32973  0.53112  Biso   1.000  C
  C95      1.0000 0.33752  0.65408  0.98045  Biso   1.000  C
  O17      1.0000 0.49108  0.67280  0.99567  Biso   1.000  O
  C96      1.0000 0.33621  0.72964  0.12560  Biso   1.000  C
  O18      1.0000 0.48942  0.81945  0.27908  Biso   1.000  O
  C97      1.0000 0.51773  0.72888  0.95696  Biso   1.000  C
  H86      1.0000 0.51216  0.72021  0.82689  Biso   1.000  H
  H87      1.0000 0.54304  0.65500  0.86507  Biso   1.000  H
  H88      1.0000 0.14417  0.64608  0.78454  Biso   1.000  H
  H89      1.0000 0.33325  0.57037  0.86886  Biso   1.000  H
  C98      1.0000 0.19663  0.52340  0.83689  Biso   1.000  C
  C99      1.0000 0.09044  0.80027  0.72924  Biso   1.000  C
  H90      1.0000 0.06280  0.72632  0.59606  Biso   1.000  H
  C100     1.0000 0.98497  0.65121  0.62719  Biso   1.000  C
  H91      1.0000 0.32911  0.87452  0.68196  Biso   1.000  H
  H92      1.0000 0.28800  0.86287  0.74909  Biso   1.000  H
  C101     1.0000 0.20390  0.89469  0.63689  Biso   1.000  C
  C102     1.0000 0.07651  0.02459  0.68583  Biso   1.000  C
  C103     1.0000 0.05376  0.12251  0.60750  Biso   1.000  C
  H93      1.0000 0.04459  0.20669  0.55000  Biso   1.000  H
  H94      1.0000 0.01438  0.57477  0.27166  Biso   1.000  H
  H95      1.0000 0.06870  0.65959  0.36075  Biso   1.000  H
  C104     1.0000 0.04850  0.56898  0.40719  Biso   1.000  C
  C105     1.0000 0.45087  0.17576  0.41249  Biso   1.000  C
  H96      1.0000 0.50346  0.17940  0.32499  Biso   1.000  H
  C106     1.0000 0.53054  0.29708  0.56037  Biso   1.000  C
  H97      1.0000 0.63516  0.38209  0.57029  Biso   1.000  H
  C107     1.0000 0.28921  0.67472  0.02719  Biso   1.000  C
  C108     1.0000 0.28426  0.75704  0.17658  Biso   1.000  C
  C109     1.0000 0.52173  0.90333  0.29105  Biso   1.000  C
  H98      1.0000 0.47983  0.76231  0.94992  Biso   1.000  H
  H99      1.0000 0.58596  0.76319  0.00348  Biso   1.000  H
  H100     1.0000 0.14586  0.54268  0.83105  Biso   1.000  H
  H101     1.0000 0.21201  0.50058  0.88742  Biso   1.000  H
  C110     1.0000 0.15979  0.45838  0.73499  Biso   1.000  C
  C111     1.0000 0.11177  0.86909  0.71159  Biso   1.000  C
  C112     1.0000 0.08056  0.80710  0.81007  Biso   1.000  C
  H102     1.0000 0.99037  0.64659  0.68757  Biso   1.000  H
  H103     1.0000 0.98319  0.60170  0.58780  Biso   1.000  H
  C113     1.0000 0.89066  0.66138  0.56537  Biso   1.000  C
  H104     1.0000 0.23538  0.95119  0.68068  Biso   1.000  H
  H105     1.0000 0.19269  0.88989  0.57113  Biso   1.000  H
  O19      1.0000 0.11410  0.86401  0.62560  Biso   1.000  O
  O20      1.0000 0.15405  0.01013  0.75977  Biso   1.000  O
  H106     1.0000 0.03829  0.97809  0.62227  Biso   1.000  H
  H107     1.0000 0.03444  0.03420  0.70886  Biso   1.000  H
  H108     1.0000 0.98723  0.09549  0.57484  Biso   1.000  H
  H109     1.0000 0.99288  0.54296  0.40696  Biso   1.000  H
  H110     1.0000 0.07400  0.52999  0.38900  Biso   1.000  H
  H111     1.0000 0.09802  0.60939  0.47340  Biso   1.000  H
  C114     1.0000 0.37145  0.09527  0.34817  Biso   1.000  C
  C115     1.0000 0.46185  0.22147  0.50165  Biso   1.000  C
  H112     1.0000 0.53763  0.32666  0.62006  Biso   1.000  H
  H113     1.0000 0.22185  0.65022  0.99007  Biso   1.000  H
  C116     1.0000 0.26663  0.83124  0.15961  Biso   1.000  C
  H114     1.0000 0.32923  0.77393  0.24969  Biso   1.000  H
  C117     1.0000 0.19233  0.69050  0.14499  Biso   1.000  C
  C118     1.0000 0.50263  0.94940  0.36060  Biso   1.000  C
  H115     1.0000 0.59055  0.92390  0.31749  Biso   1.000  H
  H116     1.0000 0.48684  0.90704  0.22598  Biso   1.000  H
  H117     1.0000 0.21127  0.43959  0.74189  Biso   1.000  H
  H118     1.0000 0.14645  0.48230  0.68552  Biso   1.000  H
  C119     1.0000 0.06923  0.38647  0.69378  Biso   1.000  C
  C120     1.0000 0.12551  0.94062  0.77378  Biso   1.000  C
  H119     1.0000 0.06706  0.76170  0.82333  Biso   1.000  H
  C121     1.0000 0.08965  0.87850  0.87272  Biso   1.000  C
  H120     1.0000 0.89096  0.70907  0.60666  Biso   1.000  H
  H121     1.0000 0.88779  0.66996  0.50765  Biso   1.000  H
  C122     1.0000 0.80068  0.59189  0.52750  Biso   1.000  C
  O21      1.0000 0.39147  0.05008  0.28075  Biso   1.000  O
  H122     1.0000 0.36696  0.06789  0.39060  Biso   1.000  H
  H123     1.0000 0.31007  0.10059  0.30976  Biso   1.000  H
  H124     1.0000 0.42182  0.20019  0.52135  Biso   1.000  H
  C123     1.0000 0.18625  0.82515  0.07249  Biso   1.000  C
  C124     1.0000 0.33155  0.90804  0.23219  Biso   1.000  C
  H125     1.0000 0.15583  0.71429  0.16696  Biso   1.000  H
  H126     1.0000 0.15239  0.66459  0.07166  Biso   1.000  H
  C125     1.0000 0.21102  0.62771  0.18772  Biso   1.000  C
  O22      1.0000 0.40258  0.91748  0.32916  Biso   1.000  O
  H127     1.0000 0.54348  0.95009  0.42726  Biso   1.000  H
  H128     1.0000 0.51948  0.00409  0.36567  Biso   1.000  H
  H129     1.0000 0.05856  0.34779  0.63363  Biso   1.000  H
  H130     1.0000 0.08504  0.36279  0.74348  Biso   1.000  H
  C126     1.0000 0.98044  0.39312  0.66787  Biso   1.000  C
  C127     1.0000 0.11194  0.94639  0.85302  Biso   1.000  C
  C128     1.0000 0.07574  0.88267  0.96075  Biso   1.000  C
  H131     1.0000 0.80321  0.58342  0.58507  Biso   1.000  H
  H132     1.0000 0.80030  0.54422  0.48628  Biso   1.000  H
  C129     1.0000 0.70567  0.60301  0.46469  Biso   1.000  C
  C130     1.0000 0.31951  0.97422  0.21226  Biso   1.000  C
  C131     1.0000 0.16845  0.89084  0.05348  Biso   1.000  C
  H133     1.0000 0.14184  0.77422  0.02401  Biso   1.000  H
  H134     1.0000 0.25324  0.60812  0.17166  Biso   1.000  H
  H135     1.0000 0.24531  0.65293  0.26075  Biso   1.000  H
  C132     1.0000 0.12161  0.55733  0.14931  Biso   1.000  C
  H136     1.0000 0.98556  0.42516  0.72825  Biso   1.000  H
  H137     1.0000 0.93126  0.34039  0.63916  Biso   1.000  H
  C133     1.0000 0.95149  0.43103  0.59280  Biso   1.000  C
  O23      1.0000 0.11230  0.01719  0.90636  Biso   1.000  O
  H138     1.0000 0.06491  0.93226  0.97961  Biso   1.000  H
  C134     1.0000 0.98696  0.81481  0.93143  Biso   1.000  C
  H139     1.0000 0.70680  0.65099  0.50621  Biso   1.000  H
  H140     1.0000 0.70381  0.61181  0.40750  Biso   1.000  H
  C135     1.0000 0.61561  0.53628  0.42598  Biso   1.000  C
  C136     1.0000 0.23965  0.96585  0.12469  Biso   1.000  C
  H141     1.0000 0.07412  0.57734  0.15317  Biso   1.000  H
  H142     1.0000 0.09420  0.52631  0.07848  Biso   1.000  H
  C137     1.0000 0.13689  0.50330  0.20408  Biso   1.000  C
  H143     1.0000 0.00707  0.45697  0.59295  Biso   1.000  H
  H144     1.0000 0.92599  0.47002  0.61098  Biso   1.000  H
  H145     1.0000 0.90198  0.39062  0.52659  Biso   1.000  H
  C138     1.0000 0.20372  0.08160  0.97795  Biso   1.000  C
  H146     1.0000 0.99438  0.76467  0.90977  Biso   1.000  H
  H147     1.0000 0.98483  0.82020  0.99113  Biso   1.000  H
  C139     1.0000 0.89135  0.81030  0.84886  Biso   1.000  C
  H148     1.0000 0.56091  0.55022  0.39121  Biso   1.000  H
  H149     1.0000 0.61673  0.52589  0.48144  Biso   1.000  H
  H150     1.0000 0.61037  0.48928  0.37985  Biso   1.000  H
  O24      1.0000 0.22842  0.03460  0.10931  Biso   1.000  O
  H151     1.0000 0.15723  0.53262  0.27317  Biso   1.000  H
  H152     1.0000 0.18943  0.48793  0.20681  Biso   1.000  H
  C140     1.0000 0.04912  0.42900  0.15749  Biso   1.000  C
  H153     1.0000 0.23239  0.09799  0.94242  Biso   1.000  H
  H154     1.0000 0.19348  0.12676  0.01007  Biso   1.000  H
  C141     1.0000 0.27367  0.05978  0.05878  Biso   1.000  C
  H155     1.0000 0.89367  0.80799  0.78969  Biso   1.000  H
  H156     1.0000 0.88027  0.85818  0.87174  Biso   1.000  H
  C142     1.0000 0.80745  0.73668  0.81977  Biso   1.000  C
  H157     1.0000 0.99481  0.44332  0.14757  Biso   1.000  H
  H158     1.0000 0.06171  0.40082  0.20158  Biso   1.000  H
  H159     1.0000 0.03472  0.39520  0.09325  Biso   1.000  H
  H160     1.0000 0.28792  0.01690  0.02833  Biso   1.000  H
  H161     1.0000 0.33411  0.10568  0.10719  Biso   1.000  H
  H162     1.0000 0.81945  0.68919  0.79727  Biso   1.000  H
  H163     1.0000 0.80653  0.73909  0.87961  Biso   1.000  H
  C143     1.0000 0.71187  0.72837  0.74015  Biso   1.000  C
  H164     1.0000 0.71336  0.73047  0.68174  Biso   1.000  H
  H165     1.0000 0.69586  0.77260  0.76454  Biso   1.000  H
  C144     1.0000 0.63069  0.64598  0.70727  Biso   1.000  C
  H166     1.0000 0.56903  0.64100  0.65363  Biso   1.000  H
  H167     1.0000 0.62702  0.64496  0.76424  Biso   1.000  H
  H168     1.0000 0.64706  0.60232  0.68416  Biso   1.000  H
