data_image0
_cell_length_a       16.864
_cell_length_b       18.652
_cell_length_c       16.034
_cell_angle_alpha    104.59
_cell_angle_beta     117.93
_cell_angle_gamma    101.76

_symmetry_space_group_name_H-M    "P 1"
_symmetry_int_tables_number       1

loop_
  _symmetry_equiv_pos_as_xyz
  'x, y, z'

loop_
  _atom_site_label
  _atom_site_occupancy
  _atom_site_fract_x
  _atom_site_fract_y
  _atom_site_fract_z
  _atom_site_thermal_displace_type
  _atom_site_B_iso_or_equiv
  _atom_site_type_symbol
  C1       1.0000 0.77526  0.05419  0.55697  Biso   1.000  C
  C2       1.0000 0.70168  0.07691  0.47573  Biso   1.000  C
  H1       1.0000 0.75129  0.10455  0.54371  Biso   1.000  H
  O1       1.0000 0.71804  0.03080  0.60036  Biso   1.000  O
  H2       1.0000 0.76673  0.02490  0.51057  Biso   1.000  H
  H3       1.0000 0.78797  0.01005  0.52583  Biso   1.000  H
  H4       1.0000 0.83578  0.09935  0.60822  Biso   1.000  H
  O2       1.0000 0.62101  0.01223  0.41121  Biso   1.000  O
  C3       1.0000 0.72318  0.04701  0.52089  Biso   1.000  C
  H5       1.0000 0.68859  0.11981  0.50902  Biso   1.000  H
  H6       1.0000 0.72757  0.09483  0.43850  Biso   1.000  H
  C4       1.0000 0.73282  0.96214  0.61639  Biso   1.000  C
  C5       1.0000 0.61111  0.93784  0.35047  Biso   1.000  C
  C6       1.0000 0.66081  0.88765  0.54779  Biso   1.000  C
  C7       1.0000 0.81483  0.97246  0.70172  Biso   1.000  C
  C8       1.0000 0.62766  0.93477  0.27347  Biso   1.000  C
  C9       1.0000 0.58028  0.87108  0.36682  Biso   1.000  C
  C10      1.0000 0.56594  0.87747  0.45430  Biso   1.000  C
  C11      1.0000 0.67953  0.82189  0.56891  Biso   1.000  C
  O3       1.0000 0.88708  0.04745  0.76700  Biso   1.000  O
  C12      1.0000 0.83135  0.90608  0.72207  Biso   1.000  C
  O4       1.0000 0.65964  0.00268  0.26137  Biso   1.000  O
  C13      1.0000 0.60872  0.85994  0.20557  Biso   1.000  C
  C14      1.0000 0.56518  0.79883  0.29891  Biso   1.000  C
  H7       1.0000 0.55481  0.92704  0.47226  Biso   1.000  H
  C15      1.0000 0.47857  0.81006  0.42670  Biso   1.000  C
  C16      1.0000 0.76242  0.83119  0.65501  Biso   1.000  C
  H8       1.0000 0.63397  0.77056  0.52282  Biso   1.000  H
  C17      1.0000 0.87367  0.09234  0.84200  Biso   1.000  C
  O5       1.0000 0.91022  0.91879  0.81526  Biso   1.000  O
  C18      1.0000 0.58239  0.02151  0.18822  Biso   1.000  C
  C19      1.0000 0.57886  0.79206  0.21882  Biso   1.000  C
  O6       1.0000 0.61799  0.85643  0.12363  Biso   1.000  O
  H9       1.0000 0.54485  0.75254  0.30746  Biso   1.000  H
  H10      1.0000 0.48628  0.75985  0.40512  Biso   1.000  H
  H11      1.0000 0.47774  0.81668  0.48821  Biso   1.000  H
  C20      1.0000 0.38373  0.80465  0.34431  Biso   1.000  C
  C21      1.0000 0.77991  0.75645  0.67351  Biso   1.000  C
  C22      1.0000 0.95136  0.17324  0.90760  Biso   1.000  C
  H12      1.0000 0.81134  0.09736  0.80747  Biso   1.000  H
  H13      1.0000 0.87343  0.06411  0.88517  Biso   1.000  H
  C23      1.0000 0.98623  0.91264  0.79236  Biso   1.000  C
  C24      1.0000 0.00523  0.94709  0.86566  Biso   1.000  C
  C25      1.0000 0.62466  0.09188  0.17628  Biso   1.000  C
  H14      1.0000 0.54166  0.03178  0.21328  Biso   1.000  H
  H15      1.0000 0.54228  0.97624  0.12201  Biso   1.000  H
  C26      1.0000 0.56208  0.71145  0.14552  Biso   1.000  C
  C27      1.0000 0.69939  0.88984  0.12733  Biso   1.000  C
  C28      1.0000 0.71309  0.84576  0.14352  Biso   1.000  C
  H16      1.0000 0.38316  0.79757  0.28203  Biso   1.000  H
  H17      1.0000 0.37414  0.85386  0.36550  Biso   1.000  H
  C29      1.0000 0.30013  0.73292  0.32219  Biso   1.000  C
  C30      1.0000 0.83261  0.72994  0.62271  Biso   1.000  C
  H18      1.0000 0.82554  0.77458  0.74789  Biso   1.000  H
  C31      1.0000 0.69107  0.69107  0.64453  Biso   1.000  C
  C32      1.0000 0.96139  0.21846  0.99670  Biso   1.000  C
  C33      1.0000 0.00998  0.20733  0.87869  Biso   1.000  C
  O7       1.0000 0.98740  0.82176  0.77749  Biso   1.000  O
  H19      1.0000 0.97906  0.90107  0.72500  Biso   1.000  H
  H20      1.0000 0.97054  0.92098  0.73001  Biso   1.000  H
  H21      1.0000 0.04913  0.95289  0.84878  Biso   1.000  H
  C34      1.0000 0.01640  0.89699  0.79028  Biso   1.000  C
  H22      1.0000 0.03470  0.93937  0.92949  Biso   1.000  H
  H23      1.0000 0.03146  0.00317  0.87992  Biso   1.000  H
  C35      1.0000 0.56000  0.11908  0.11400  Biso   1.000  C
  C36      1.0000 0.72339  0.13253  0.22430  Biso   1.000  C
  C37      1.0000 0.65435  0.69394  0.18954  Biso   1.000  C
  H24      1.0000 0.55037  0.71804  0.08247  Biso   1.000  H
  C38      1.0000 0.47165  0.64324  0.11292  Biso   1.000  C
  H25      1.0000 0.72930  0.94697  0.16903  Biso   1.000  H
  H26      1.0000 0.68507  0.88106  0.05873  Biso   1.000  H
  C39      1.0000 0.76306  0.84875  0.17474  Biso   1.000  C
  H27      1.0000 0.73656  0.87404  0.11161  Biso   1.000  H
  O8       1.0000 0.70752  0.76321  0.10637  Biso   1.000  O
  H28      1.0000 0.76096  0.87124  0.21721  Biso   1.000  H
  H29      1.0000 0.31035  0.68395  0.30176  Biso   1.000  H
  H30      1.0000 0.30092  0.74037  0.38477  Biso   1.000  H
  C40      1.0000 0.20653  0.72582  0.24156  Biso   1.000  C
  C41      1.0000 0.78515  0.67274  0.52313  Biso   1.000  C
  C42      1.0000 0.93411  0.76886  0.67767  Biso   1.000  C
  H31      1.0000 0.65481  0.71517  0.66688  Biso   1.000  H
  H32      1.0000 0.65025  0.66358  0.56999  Biso   1.000  H
  C43      1.0000 0.71214  0.63068  0.68993  Biso   1.000  C
  H33      1.0000 0.92132  0.19710  0.01620  Biso   1.000  H
  C44      1.0000 0.03044  0.29519  0.05751  Biso   1.000  C
  C45      1.0000 0.07858  0.28345  0.93827  Biso   1.000  C
  H34      1.0000 0.00255  0.17797  0.81749  Biso   1.000  H
  H35      1.0000 0.08390  0.91565  0.81256  Biso   1.000  H
  H36      1.0000 0.49378  0.09313  0.08270  Biso   1.000  H
  C46      1.0000 0.59402  0.18532  0.09827  Biso   1.000  C
  C47      1.0000 0.75684  0.19974  0.21012  Biso   1.000  C
  H37      1.0000 0.76737  0.11453  0.26638  Biso   1.000  H
  C48      1.0000 0.72237  0.72182  0.16757  Biso   1.000  C
  C49      1.0000 0.67523  0.65246  0.25289  Biso   1.000  C
  H38      1.0000 0.46916  0.59363  0.07199  Biso   1.000  H
  H39      1.0000 0.47766  0.63842  0.17427  Biso   1.000  H
  C50      1.0000 0.37757  0.65325  0.05187  Biso   1.000  C
  H40      1.0000 0.82317  0.86723  0.17851  Biso   1.000  H
  H41      1.0000 0.77775  0.85815  0.24357  Biso   1.000  H
  H42      1.0000 0.20735  0.72454  0.18121  Biso   1.000  H
  H43      1.0000 0.19196  0.77167  0.26499  Biso   1.000  H
  C51      1.0000 0.12627  0.64608  0.21343  Biso   1.000  C
  C52      1.0000 0.83335  0.65214  0.47442  Biso   1.000  C
  H44      1.0000 0.71832  0.64665  0.48667  Biso   1.000  H
  C53      1.0000 0.98231  0.74894  0.62850  Biso   1.000  C
  H45      1.0000 0.74460  0.65677  0.76400  Biso   1.000  H
  H46      1.0000 0.75644  0.61255  0.67621  Biso   1.000  H
  C54      1.0000 0.62334  0.55815  0.64908  Biso   1.000  C
  C55      1.0000 0.08692  0.32753  0.02722  Biso   1.000  C
  H47      1.0000 0.03815  0.32484  0.11894  Biso   1.000  H
  C56      1.0000 0.14725  0.32156  0.91261  Biso   1.000  C
  H48      1.0000 0.55031  0.20249  0.05442  Biso   1.000  H
  C57      1.0000 0.69152  0.22583  0.14691  Biso   1.000  C
  C58      1.0000 0.86151  0.24461  0.25852  Biso   1.000  C
  C59      1.0000 0.80533  0.70315  0.20379  Biso   1.000  C
  H49      1.0000 0.63104  0.63524  0.26970  Biso   1.000  H
  C60      1.0000 0.75905  0.63486  0.29290  Biso   1.000  C
  H50      1.0000 0.37340  0.66107  0.99260  Biso   1.000  H
  H51      1.0000 0.37905  0.70150  0.09427  Biso   1.000  H
  C61      1.0000 0.28887  0.58641  0.01488  Biso   1.000  C
  H52      1.0000 0.06724  0.63455  0.15023  Biso   1.000  H
  H53      1.0000 0.11506  0.65274  0.26769  Biso   1.000  H
  H54      1.0000 0.14809  0.60266  0.20503  Biso   1.000  H
  C62      1.0000 0.78005  0.59253  0.36427  Biso   1.000  C
  C63      1.0000 0.93233  0.69205  0.52868  Biso   1.000  C
  O9       1.0000 0.08114  0.79065  0.68029  Biso   1.000  O
  H55      1.0000 0.57350  0.57637  0.64938  Biso   1.000  H
  H56      1.0000 0.59873  0.52585  0.57809  Biso   1.000  H
  C64      1.0000 0.64131  0.50638  0.70912  Biso   1.000  C
  H57      1.0000 0.13176  0.37993  0.06692  Biso   1.000  H
  O10      1.0000 0.12789  0.26805  0.81818  Biso   1.000  O
  H58      1.0000 0.21350  0.33506  0.96772  Biso   1.000  H
  H59      1.0000 0.13988  0.37052  0.90629  Biso   1.000  H
  H60      1.0000 0.71372  0.27089  0.13720  Biso   1.000  H
  H61      1.0000 0.87388  0.24478  0.20526  Biso   1.000  H
  H62      1.0000 0.87929  0.29958  0.30138  Biso   1.000  H
  O11      1.0000 0.91889  0.20941  0.31972  Biso   1.000  O
  C65      1.0000 0.82158  0.66276  0.26592  Biso   1.000  C
  O12      1.0000 0.87215  0.73207  0.18183  Biso   1.000  O
  H63      1.0000 0.28578  0.53835  0.97048  Biso   1.000  H
  C66      1.0000 0.19400  0.59978  0.95514  Biso   1.000  C
  H64      1.0000 0.29315  0.57762  0.07369  Biso   1.000  H
  H65      1.0000 0.82661  0.57025  0.36026  Biso   1.000  H
  C67      1.0000 0.69285  0.52073  0.33051  Biso   1.000  C
  O13      1.0000 0.98434  0.67313  0.48659  Biso   1.000  O
  C68      1.0000 0.13853  0.75545  0.74149  Biso   1.000  C
  H66      1.0000 0.65961  0.53695  0.77826  Biso   1.000  H
  H67      1.0000 0.69530  0.49226  0.71459  Biso   1.000  H
  C69      1.0000 0.55301  0.42914  0.66017  Biso   1.000  C
  C70      1.0000 0.19471  0.29697  0.79622  Biso   1.000  C
  C71      1.0000 0.01772  0.25112  0.37152  Biso   1.000  C
  O14      1.0000 0.90285  0.64028  0.29482  Biso   1.000  O
  C72      1.0000 0.85279  0.67856  0.08741  Biso   1.000  C
  H68      1.0000 0.19898  0.64916  0.99938  Biso   1.000  H
  H69      1.0000 0.19000  0.60767  0.89610  Biso   1.000  H
  C73      1.0000 0.10227  0.53675  0.91807  Biso   1.000  C
  H70      1.0000 0.64157  0.53877  0.32619  Biso   1.000  H
  H71      1.0000 0.71124  0.49864  0.38231  Biso   1.000  H
  C74      1.0000 0.65404  0.45467  0.22553  Biso   1.000  C
  C75      1.0000 0.99276  0.72433  0.42979  Biso   1.000  C
  C76      1.0000 0.99993  0.71267  0.43210  Biso   1.000  C
  C77      1.0000 0.24321  0.80038  0.78990  Biso   1.000  C
  H72      1.0000 0.12612  0.75526  0.79468  Biso   1.000  H
  H73      1.0000 0.12071  0.70045  0.69856  Biso   1.000  H
  H74      1.0000 0.56461  0.40369  0.70750  Biso   1.000  H
  H75      1.0000 0.54253  0.39363  0.59790  Biso   1.000  H
  H76      1.0000 0.49675  0.44208  0.64460  Biso   1.000  H
  C78      1.0000 0.17847  0.33736  0.73409  Biso   1.000  C
  C79      1.0000 0.27763  0.27822  0.83237  Biso   1.000  C
  C80      1.0000 0.06766  0.30799  0.47126  Biso   1.000  C
  C81      1.0000 0.06590  0.23123  0.32226  Biso   1.000  C
  C82      1.0000 0.99672  0.68094  0.35240  Biso   1.000  C
  H77      1.0000 0.78654  0.66505  0.03230  Biso   1.000  H
  H78      1.0000 0.86015  0.62954  0.09373  Biso   1.000  H
  C83      1.0000 0.92143  0.71665  0.06166  Biso   1.000  C
  H79      1.0000 0.04970  0.55407  0.88700  Biso   1.000  H
  H80      1.0000 0.10520  0.52655  0.97495  Biso   1.000  H
  H81      1.0000 0.09209  0.48878  0.86797  Biso   1.000  H
  H82      1.0000 0.63434  0.47692  0.17389  Biso   1.000  H
  H83      1.0000 0.70665  0.43875  0.22962  Biso   1.000  H
  C84      1.0000 0.57243  0.38312  0.19061  Biso   1.000  C
  H84      1.0000 0.06424  0.72218  0.44520  Biso   1.000  H
  H85      1.0000 0.93700  0.73963  0.40296  Biso   1.000  H
  H86      1.0000 0.99172  0.76324  0.44798  Biso   1.000  H
  H87      1.0000 0.05071  0.77253  0.47588  Biso   1.000  H
  C85      1.0000 0.30852  0.77429  0.85310  Biso   1.000  C
  C86      1.0000 0.27665  0.86759  0.77571  Biso   1.000  C
  C87      1.0000 0.24099  0.36526  0.70712  Biso   1.000  C
  O15      1.0000 0.09719  0.35984  0.70519  Biso   1.000  O
  C88      1.0000 0.34568  0.30612  0.81048  Biso   1.000  C
  O16      1.0000 0.29247  0.23683  0.89357  Biso   1.000  O
  O17      1.0000 0.01570  0.32693  0.51342  Biso   1.000  O
  C89      1.0000 0.16668  0.34792  0.52560  Biso   1.000  C
  C90      1.0000 0.16736  0.27012  0.37730  Biso   1.000  C
  O18      1.0000 0.01263  0.17831  0.22252  Biso   1.000  O
  H88      1.0000 0.01914  0.71285  0.32280  Biso   1.000  H
  H89      1.0000 0.03426  0.64796  0.37098  Biso   1.000  H
  C91      1.0000 0.91313  0.67258  0.97279  Biso   1.000  C
  C92      1.0000 0.99005  0.79273  0.12132  Biso   1.000  C
  H90      1.0000 0.55759  0.34905  0.12433  Biso   1.000  H
  H91      1.0000 0.60071  0.35763  0.23678  Biso   1.000  H
  C93      1.0000 0.48032  0.37123  0.17620  Biso   1.000  C
  C94      1.0000 0.40598  0.81477  0.90166  Biso   1.000  C
  H92      1.0000 0.28631  0.72917  0.86281  Biso   1.000  H
  C95      1.0000 0.37534  0.90815  0.82366  Biso   1.000  C
  H93      1.0000 0.23263  0.88556  0.73355  Biso   1.000  H
  C96      1.0000 0.21994  0.40751  0.63566  Biso   1.000  C
  C97      1.0000 0.32481  0.34766  0.74712  Biso   1.000  C
  C98      1.0000 0.00331  0.31912  0.64761  Biso   1.000  C
  C99      1.0000 0.43796  0.28867  0.85449  Biso   1.000  C
  C100     1.0000 0.23697  0.15131  0.82528  Biso   1.000  C
  C101     1.0000 0.28696  0.15436  0.85649  Biso   1.000  C
  C102     1.0000 0.00728  0.27573  0.57022  Biso   1.000  C
  C103     1.0000 0.00011  0.28744  0.56791  Biso   1.000  C
  C104     1.0000 0.21488  0.32732  0.47688  Biso   1.000  C
  C105     1.0000 0.22007  0.24361  0.32650  Biso   1.000  C
  C106     1.0000 0.98358  0.10313  0.20973  Biso   1.000  C
  C107     1.0000 0.01377  0.08740  0.20757  Biso   1.000  C
  H94      1.0000 0.86828  0.62018  0.93310  Biso   1.000  H
  C108     1.0000 0.96959  0.70488  0.94250  Biso   1.000  C
  H95      1.0000 0.99749  0.82215  0.18252  Biso   1.000  H
  C109     1.0000 0.04867  0.82683  0.09242  Biso   1.000  C
  H96      1.0000 0.48415  0.38865  0.24072  Biso   1.000  H
  H97      1.0000 0.43474  0.31644  0.13250  Biso   1.000  H
  C110     1.0000 0.45742  0.43073  0.11916  Biso   1.000  C
  C111     1.0000 0.44003  0.88098  0.88601  Biso   1.000  C
  H98      1.0000 0.44972  0.79757  0.94560  Biso   1.000  H
  C112     1.0000 0.41764  0.97855  0.81179  Biso   1.000  C
  H99      1.0000 0.17339  0.42984  0.63967  Biso   1.000  H
  C113     1.0000 0.30718  0.47933  0.66950  Biso   1.000  C
  H100     1.0000 0.36899  0.36482  0.73032  Biso   1.000  H
  H101     1.0000 0.93580  0.27794  0.55481  Biso   1.000  H
  H102     1.0000 0.98090  0.28721  0.67721  Biso   1.000  H
  H103     1.0000 0.96574  0.35214  0.62896  Biso   1.000  H
  C114     1.0000 0.42118  0.20806  0.78119  Biso   1.000  C
  H104     1.0000 0.44963  0.28206  0.91746  Biso   1.000  H
  C115     1.0000 0.52839  0.35682  0.88709  Biso   1.000  C
  C116     1.0000 0.30064  0.11022  0.87268  Biso   1.000  C
  H105     1.0000 0.17686  0.13283  0.82150  Biso   1.000  H
  H106     1.0000 0.22225  0.14195  0.75637  Biso   1.000  H
  H107     1.0000 0.26348  0.12607  0.88840  Biso   1.000  H
  H108     1.0000 0.23908  0.12883  0.78281  Biso   1.000  H
  O19      1.0000 0.38204  0.14363  0.87638  Biso   1.000  O
  H109     1.0000 0.94932  0.22753  0.52413  Biso   1.000  H
  H110     1.0000 0.06299  0.26041  0.59697  Biso   1.000  H
  H111     1.0000 0.00827  0.23680  0.55196  Biso   1.000  H
  H112     1.0000 0.28168  0.35344  0.51326  Biso   1.000  H
  C117     1.0000 0.23762  0.16893  0.34500  Biso   1.000  C
  H113     1.0000 0.17451  0.22553  0.25212  Biso   1.000  H
  C118     1.0000 0.30897  0.30899  0.35548  Biso   1.000  C
  H114     1.0000 0.91610  0.08439  0.18738  Biso   1.000  H
  C119     1.0000 0.99478  0.05300  0.13427  Biso   1.000  C
  H115     1.0000 0.95092  0.04722  0.15123  Biso   1.000  H
  H116     1.0000 0.02099  0.09904  0.27501  Biso   1.000  H
  H117     1.0000 0.02951  0.07914  0.27000  Biso   1.000  H
  O20      1.0000 0.08978  0.08130  0.18468  Biso   1.000  O
  H118     1.0000 0.96189  0.67528  0.88107  Biso   1.000  H
  C120     1.0000 0.03865  0.78165  0.00331  Biso   1.000  C
  C121     1.0000 0.12636  0.90772  0.15801  Biso   1.000  C
  H119     1.0000 0.42406  0.45905  0.14098  Biso   1.000  H
  H120     1.0000 0.41704  0.40039  0.04586  Biso   1.000  H
  H121     1.0000 0.51704  0.46804  0.13697  Biso   1.000  H
  H122     1.0000 0.50626  0.90699  0.91731  Biso   1.000  H
  O21      1.0000 0.34029  0.99736  0.73856  Biso   1.000  O
  H123     1.0000 0.45833  0.96826  0.78666  Biso   1.000  H
  H124     1.0000 0.45775  0.02382  0.87800  Biso   1.000  H
  H125     1.0000 0.35847  0.46135  0.67382  Biso   1.000  H
  H126     1.0000 0.28879  0.50142  0.61770  Biso   1.000  H
  C122     1.0000 0.34600  0.54544  0.77448  Biso   1.000  C
  C123     1.0000 0.43486  0.20123  0.70110  Biso   1.000  C
  C124     1.0000 0.39123  0.14015  0.79437  Biso   1.000  C
  H127     1.0000 0.53089  0.40648  0.92802  Biso   1.000  H
  H128     1.0000 0.52233  0.36161  0.82566  Biso   1.000  H
  C125     1.0000 0.62243  0.34685  0.94806  Biso   1.000  C
  H129     1.0000 0.27075  0.05315  0.83098  Biso   1.000  H
  H130     1.0000 0.31498  0.11905  0.94128  Biso   1.000  H
  C126     1.0000 0.16866  0.09402  0.27787  Biso   1.000  C
  C127     1.0000 0.32052  0.17823  0.43110  Biso   1.000  C
  H131     1.0000 0.34524  0.28494  0.33313  Biso   1.000  H
  H132     1.0000 0.34979  0.33654  0.43002  Biso   1.000  H
  C128     1.0000 0.28790  0.36944  0.31009  Biso   1.000  C
  H133     1.0000 0.96533  0.06069  0.07053  Biso   1.000  H
  H134     1.0000 0.96859  0.99694  0.12009  Biso   1.000  H
  H135     1.0000 0.07871  0.80296  0.98381  Biso   1.000  H
  O22      1.0000 0.11296  0.95266  0.23301  Biso   1.000  O
  H136     1.0000 0.18867  0.90274  0.19246  Biso   1.000  H
  H137     1.0000 0.12656  0.93592  0.11477  Biso   1.000  H
  C129     1.0000 0.37234  0.06533  0.72646  Biso   1.000  C
  H138     1.0000 0.36570  0.52314  0.82612  Biso   1.000  H
  H139     1.0000 0.29340  0.56137  0.77040  Biso   1.000  H
  C130     1.0000 0.42760  0.61694  0.80940  Biso   1.000  C
  C131     1.0000 0.41977  0.12904  0.63320  Biso   1.000  C
  H140     1.0000 0.45514  0.24750  0.69247  Biso   1.000  H
  H141     1.0000 0.62095  0.29854  0.90567  Biso   1.000  H
  C132     1.0000 0.71112  0.41363  0.98506  Biso   1.000  C
  H142     1.0000 0.62663  0.33900  0.00741  Biso   1.000  H
  C133     1.0000 0.18520  0.02760  0.29829  Biso   1.000  C
  H143     1.0000 0.36606  0.22950  0.47719  Biso   1.000  H
  C134     1.0000 0.33916  0.11241  0.45222  Biso   1.000  C
  H144     1.0000 0.25543  0.34329  0.23601  Biso   1.000  H
  H145     1.0000 0.24359  0.38751  0.32381  Biso   1.000  H
  C135     1.0000 0.37665  0.44189  0.35086  Biso   1.000  C
  C136     1.0000 0.38882  0.06220  0.64946  Biso   1.000  C
  H146     1.0000 0.44246  0.65107  0.87569  Biso   1.000  H
  H147     1.0000 0.39932  0.64243  0.76323  Biso   1.000  H
  C137     1.0000 0.51972  0.62883  0.82381  Biso   1.000  C
  C138     1.0000 0.43410  0.12265  0.54571  Biso   1.000  C
  H148     1.0000 0.70688  0.42244  0.92633  Biso   1.000  H
  H149     1.0000 0.71426  0.46171  0.02953  Biso   1.000  H
  C139     1.0000 0.80600  0.40031  0.04479  Biso   1.000  C
  C140     1.0000 0.26721  0.03792  0.38362  Biso   1.000  C
  H150     1.0000 0.42654  0.42374  0.35063  Biso   1.000  H
  H151     1.0000 0.40130  0.47421  0.42193  Biso   1.000  H
  C141     1.0000 0.35873  0.49374  0.29089  Biso   1.000  C
  O23      1.0000 0.37903  0.98788  0.58880  Biso   1.000  O
  H152     1.0000 0.51589  0.61147  0.75930  Biso   1.000  H
  H153     1.0000 0.56530  0.68368  0.86751  Biso   1.000  H
  C142     1.0000 0.54259  0.56936  0.88077  Biso   1.000  C
  H154     1.0000 0.44518  0.07300  0.52768  Biso   1.000  H
  C143     1.0000 0.52148  0.19006  0.57331  Biso   1.000  C
  H155     1.0000 0.80105  0.35090  0.00063  Biso   1.000  H
  H156     1.0000 0.81003  0.39239  0.10391  Biso   1.000  H
  C144     1.0000 0.89777  0.46331  0.08195  Biso   1.000  C
  O24      1.0000 0.28196  0.96923  0.39957  Biso   1.000  O
  H157     1.0000 0.34039  0.46308  0.22168  Biso   1.000  H
  H158     1.0000 0.30473  0.50781  0.28542  Biso   1.000  H
  C145     1.0000 0.44699  0.57090  0.33976  Biso   1.000  C
  C146     1.0000 0.27685  0.95305  0.47912  Biso   1.000  C
  C147     1.0000 0.29835  0.92315  0.52429  Biso   1.000  C
  H159     1.0000 0.57594  0.54104  0.85896  Biso   1.000  H
  H160     1.0000 0.58295  0.59964  0.95407  Biso   1.000  H
  H161     1.0000 0.48296  0.53205  0.86297  Biso   1.000  H
  H162     1.0000 0.51375  0.24021  0.59489  Biso   1.000  H
  H163     1.0000 0.52230  0.18344  0.51180  Biso   1.000  H
  C148     1.0000 0.61630  0.19541  0.65570  Biso   1.000  C
  H164     1.0000 0.95033  0.44599  0.11301  Biso   1.000  H
  H165     1.0000 0.89480  0.47349  0.02499  Biso   1.000  H
  H166     1.0000 0.90796  0.51134  0.13205  Biso   1.000  H
  C149     1.0000 0.22473  0.94584  0.44297  Biso   1.000  C
  H167     1.0000 0.43543  0.59643  0.29251  Biso   1.000  H
  H168     1.0000 0.45750  0.60643  0.40212  Biso   1.000  H
  H169     1.0000 0.50329  0.55803  0.35541  Biso   1.000  H
  H170     1.0000 0.23320  0.97514  0.48937  Biso   1.000  H
  H171     1.0000 0.24875  0.89556  0.45630  Biso   1.000  H
  H172     1.0000 0.31144  0.88025  0.49099  Biso   1.000  H
  H173     1.0000 0.27248  0.90529  0.56151  Biso   1.000  H
  H174     1.0000 0.61689  0.20255  0.71798  Biso   1.000  H
  H175     1.0000 0.62591  0.14626  0.63451  Biso   1.000  H
  C150     1.0000 0.69990  0.26714  0.67783  Biso   1.000  C
  H176     1.0000 0.21202  0.99007  0.47418  Biso   1.000  H
  H177     1.0000 0.16427  0.90076  0.39179  Biso   1.000  H
  H178     1.0000 0.68965  0.31614  0.69817  Biso   1.000  H
  H179     1.0000 0.69908  0.25972  0.61516  Biso   1.000  H
  C151     1.0000 0.79346  0.27422  0.75837  Biso   1.000  C
  H180     1.0000 0.79268  0.27552  0.81880  Biso   1.000  H
  H181     1.0000 0.80809  0.22845  0.73502  Biso   1.000  H
  C152     1.0000 0.87377  0.35404  0.78658  Biso   1.000  C
  H182     1.0000 0.93279  0.36552  0.84979  Biso   1.000  H
  H183     1.0000 0.88497  0.34732  0.73232  Biso   1.000  H
  H184     1.0000 0.85196  0.39745  0.79498  Biso   1.000  H
