data_image0
_cell_length_a       17.288
_cell_length_b       18.419
_cell_length_c       16.74
_cell_angle_alpha    91.25
_cell_angle_beta     117.04
_cell_angle_gamma    69.95

_symmetry_space_group_name_H-M    "P 1"
_symmetry_int_tables_number       1

loop_
  _symmetry_equiv_pos_as_xyz
  'x, y, z'

loop_
  _atom_site_label
  _atom_site_occupancy
  _atom_site_fract_x
  _atom_site_fract_y
  _atom_site_fract_z
  _atom_site_thermal_displace_type
  _atom_site_B_iso_or_equiv
  _atom_site_type_symbol
  C1       1.0000 0.47068  0.23841  0.56721  Biso   1.000  C
  C2       1.0000 0.54191  0.28868  0.61043  Biso   1.000  C
  O1       1.0000 0.38543  0.31279  0.56681  Biso   1.000  O
  C3       1.0000 0.47170  0.26963  0.62408  Biso   1.000  C
  H1       1.0000 0.48130  0.21509  0.61851  Biso   1.000  H
  H2       1.0000 0.51069  0.20793  0.62769  Biso   1.000  H
  H3       1.0000 0.44546  0.20493  0.52590  Biso   1.000  H
  C4       1.0000 0.53651  0.27282  0.53310  Biso   1.000  C
  H4       1.0000 0.57309  0.29688  0.57992  Biso   1.000  H
  H5       1.0000 0.53089  0.34380  0.61260  Biso   1.000  H
  H6       1.0000 0.60420  0.25848  0.65880  Biso   1.000  H
  C5       1.0000 0.30784  0.29307  0.52332  Biso   1.000  C
  H7       1.0000 0.48191  0.27603  0.68530  Biso   1.000  H
  O2       1.0000 0.46670  0.32851  0.45463  Biso   1.000  O
  H8       1.0000 0.52669  0.22382  0.52427  Biso   1.000  H
  H9       1.0000 0.59668  0.26400  0.53671  Biso   1.000  H
  H10      1.0000 0.57808  0.23059  0.51877  Biso   1.000  H
  C6       1.0000 0.24849  0.31991  0.43153  Biso   1.000  C
  C7       1.0000 0.28651  0.25099  0.57319  Biso   1.000  C
  C8       1.0000 0.42389  0.29928  0.37622  Biso   1.000  C
  C9       1.0000 0.27128  0.36891  0.37968  Biso   1.000  C
  C10      1.0000 0.16959  0.30061  0.39083  Biso   1.000  C
  C11      1.0000 0.20742  0.23249  0.53100  Biso   1.000  C
  O3       1.0000 0.34779  0.22303  0.66438  Biso   1.000  O
  C12      1.0000 0.32609  0.32033  0.33470  Biso   1.000  C
  C13      1.0000 0.47222  0.25758  0.33328  Biso   1.000  C
  H11      1.0000 0.31249  0.39178  0.42500  Biso   1.000  H
  C14      1.0000 0.18390  0.43859  0.31153  Biso   1.000  C
  C15      1.0000 0.14616  0.25789  0.43907  Biso   1.000  C
  H12      1.0000 0.13031  0.31670  0.32872  Biso   1.000  H
  O4       1.0000 0.18477  0.19431  0.58189  Biso   1.000  O
  C16      1.0000 0.32750  0.27498  0.72301  Biso   1.000  C
  C17      1.0000 0.28329  0.29547  0.25432  Biso   1.000  C
  C18      1.0000 0.42709  0.23431  0.25113  Biso   1.000  C
  O5       1.0000 0.56829  0.23582  0.37499  Biso   1.000  O
  H13      1.0000 0.20169  0.46442  0.27640  Biso   1.000  H
  H14      1.0000 0.13788  0.41872  0.26961  Biso   1.000  H
  C19      1.0000 0.13960  0.49809  0.35699  Biso   1.000  C
  C20      1.0000 0.05817  0.23983  0.39449  Biso   1.000  C
  C21      1.0000 0.25041  0.12950  0.64189  Biso   1.000  C
  C22      1.0000 0.23657  0.09761  0.58909  Biso   1.000  C
  C23      1.0000 0.39770  0.23722  0.81909  Biso   1.000  C
  H15      1.0000 0.33138  0.32452  0.71038  Biso   1.000  H
  H16      1.0000 0.26475  0.28518  0.71323  Biso   1.000  H
  H17      1.0000 0.21920  0.30759  0.22809  Biso   1.000  H
  C24      1.0000 0.33138  0.25268  0.20887  Biso   1.000  C
  O6       1.0000 0.47628  0.19869  0.20520  Biso   1.000  O
  C25      1.0000 0.60260  0.29550  0.36881  Biso   1.000  C
  H18      1.0000 0.12439  0.47170  0.39409  Biso   1.000  H
  H19      1.0000 0.18498  0.51941  0.39721  Biso   1.000  H
  C26      1.0000 0.05218  0.56482  0.29183  Biso   1.000  C
  C27      1.0000 0.07450  0.16360  0.35638  Biso   1.000  C
  H20      1.0000 0.04411  0.23110  0.44308  Biso   1.000  H
  C28      1.0000 0.97273  0.30740  0.32533  Biso   1.000  C
  C29      1.0000 0.20548  0.07691  0.64019  Biso   1.000  C
  H21      1.0000 0.27841  0.14259  0.70243  Biso   1.000  H
  H22      1.0000 0.29941  0.10549  0.62538  Biso   1.000  H
  H23      1.0000 0.28860  0.07673  0.64990  Biso   1.000  H
  C30      1.0000 0.16890  0.05127  0.56762  Biso   1.000  C
  H24      1.0000 0.26193  0.08850  0.54703  Biso   1.000  H
  C31      1.0000 0.37668  0.25931  0.88928  Biso   1.000  C
  C32      1.0000 0.48260  0.17730  0.84029  Biso   1.000  C
  C33      1.0000 0.27949  0.22909  0.11687  Biso   1.000  C
  C34      1.0000 0.54369  0.12048  0.24467  Biso   1.000  C
  C35      1.0000 0.70631  0.26178  0.41678  Biso   1.000  C
  H25      1.0000 0.58020  0.33929  0.39619  Biso   1.000  H
  H26      1.0000 0.57981  0.31452  0.30562  Biso   1.000  H
  H27      1.0000 0.00370  0.54462  0.25690  Biso   1.000  H
  H28      1.0000 0.06520  0.58729  0.24963  Biso   1.000  H
  C36      1.0000 0.01642  0.62860  0.33932  Biso   1.000  C
  C37      1.0000 0.06920  0.16188  0.27049  Biso   1.000  C
  C38      1.0000 0.09659  0.09319  0.40503  Biso   1.000  C
  H29      1.0000 0.91798  0.29371  0.30521  Biso   1.000  H
  H30      1.0000 0.98090  0.31438  0.27267  Biso   1.000  H
  C39      1.0000 0.95447  0.38520  0.36168  Biso   1.000  C
  H31      1.0000 0.25138  0.03221  0.68727  Biso   1.000  H
  H32      1.0000 0.15709  0.10300  0.65677  Biso   1.000  H
  H33      1.0000 0.15193  0.05070  0.61532  Biso   1.000  H
  O7       1.0000 0.08990  0.09332  0.48493  Biso   1.000  O
  H34      1.0000 0.15487  0.00902  0.58400  Biso   1.000  H
  H35      1.0000 0.21890  0.02678  0.55247  Biso   1.000  H
  H36      1.0000 0.19829  0.99781  0.56137  Biso   1.000  H
  C40      1.0000 0.44061  0.22363  0.97781  Biso   1.000  C
  H37      1.0000 0.31950  0.29831  0.87637  Biso   1.000  H
  C41      1.0000 0.54529  0.14052  0.92801  Biso   1.000  C
  H38      1.0000 0.49727  0.16189  0.79409  Biso   1.000  H
  C42      1.0000 0.25971  0.15672  0.12529  Biso   1.000  C
  H39      1.0000 0.32179  0.21571  0.09030  Biso   1.000  H
  C43      1.0000 0.19138  0.29758  0.05069  Biso   1.000  C
  H40      1.0000 0.58517  0.11941  0.30807  Biso   1.000  H
  H41      1.0000 0.58117  0.10490  0.21389  Biso   1.000  H
  C44      1.0000 0.49651  0.06241  0.23781  Biso   1.000  C
  C45      1.0000 0.75371  0.30538  0.40571  Biso   1.000  C
  C46      1.0000 0.75721  0.18941  0.47250  Biso   1.000  C
  H42      1.0000 0.06417  0.64980  0.37289  Biso   1.000  H
  H43      1.0000 0.00488  0.60592  0.38260  Biso   1.000  H
  C47      1.0000 0.92638  0.69502  0.27308  Biso   1.000  C
  C48      1.0000 0.08621  0.09369  0.23272  Biso   1.000  C
  H44      1.0000 0.05353  0.20890  0.23672  Biso   1.000  H
  C49      1.0000 0.11761  0.02339  0.37187  Biso   1.000  C
  H45      1.0000 0.00172  0.40548  0.36847  Biso   1.000  H
  H46      1.0000 0.95999  0.37612  0.42120  Biso   1.000  H
  C50      1.0000 0.85859  0.44530  0.29937  Biso   1.000  C
  C51      1.0000 0.52534  0.16389  0.99813  Biso   1.000  C
  H47      1.0000 0.42673  0.23973  0.02442  Biso   1.000  H
  C52      1.0000 0.63179  0.07040  0.94859  Biso   1.000  C
  C53      1.0000 0.32331  0.08312  0.12842  Biso   1.000  C
  C54      1.0000 0.18348  0.15692  0.13100  Biso   1.000  C
  H48      1.0000 0.14950  0.31511  0.07691  Biso   1.000  H
  C55      1.0000 0.21052  0.36709  0.02820  Biso   1.000  C
  H49      1.0000 0.15949  0.27918  0.99477  Biso   1.000  H
  O8       1.0000 0.41079  0.07460  0.14241  Biso   1.000  O
  H50      1.0000 0.53781  0.01803  0.28639  Biso   1.000  H
  H51      1.0000 0.43920  0.08731  0.24168  Biso   1.000  H
  C56      1.0000 0.47603  0.03720  0.14921  Biso   1.000  C
  H52      1.0000 0.47586  0.06773  0.28347  Biso   1.000  H
  H53      1.0000 0.54190  0.00960  0.25072  Biso   1.000  H
  C57      1.0000 0.85110  0.27568  0.45211  Biso   1.000  C
  H54      1.0000 0.72061  0.35361  0.36779  Biso   1.000  H
  C58      1.0000 0.85358  0.16110  0.51890  Biso   1.000  C
  H55      1.0000 0.72583  0.15950  0.47861  Biso   1.000  H
  H56      1.0000 0.90442  0.73209  0.30637  Biso   1.000  H
  H57      1.0000 0.87947  0.67399  0.23788  Biso   1.000  H
  H58      1.0000 0.93859  0.72058  0.23319  Biso   1.000  H
  C59      1.0000 0.07383  0.09478  0.13650  Biso   1.000  C
  C60      1.0000 0.11301  0.02450  0.28639  Biso   1.000  C
  O9       1.0000 0.15267  0.95329  0.42711  Biso   1.000  O
  H59      1.0000 0.84891  0.44678  0.23761  Biso   1.000  H
  H60      1.0000 0.81170  0.42910  0.30161  Biso   1.000  H
  C61      1.0000 0.84490  0.52650  0.32370  Biso   1.000  C
  H61      1.0000 0.56811  0.13992  0.05792  Biso   1.000  H
  O10      1.0000 0.63331  0.05667  0.86550  Biso   1.000  O
  H62      1.0000 0.63089  0.02511  0.97611  Biso   1.000  H
  H63      1.0000 0.68717  0.08009  0.99059  Biso   1.000  H
  O11      1.0000 0.38231  0.08743  0.08928  Biso   1.000  O
  C62      1.0000 0.30310  0.01731  0.13080  Biso   1.000  C
  H64      1.0000 0.14248  0.20500  0.13188  Biso   1.000  H
  C63      1.0000 0.16149  0.09220  0.13548  Biso   1.000  C
  H65      1.0000 0.25311  0.37878  0.08419  Biso   1.000  H
  H66      1.0000 0.24151  0.35250  0.99110  Biso   1.000  H
  C64      1.0000 0.12375  0.44019  0.97846  Biso   1.000  C
  H67      1.0000 0.51863  0.04267  0.12923  Biso   1.000  H
  H68      1.0000 0.48159  0.98298  0.15220  Biso   1.000  H
  C65      1.0000 0.90151  0.20469  0.50878  Biso   1.000  C
  H69      1.0000 0.88293  0.30447  0.44450  Biso   1.000  H
  C66      1.0000 0.90978  0.08283  0.58019  Biso   1.000  C
  H70      1.0000 0.06367  0.04702  0.11612  Biso   1.000  H
  C67      1.0000 0.98851  0.16459  0.06829  Biso   1.000  C
  O12      1.0000 0.12988  0.95547  0.25140  Biso   1.000  O
  C68      1.0000 0.09020  0.91720  0.41977  Biso   1.000  C
  H71      1.0000 0.89103  0.54281  0.31982  Biso   1.000  H
  H72      1.0000 0.78349  0.56218  0.27871  Biso   1.000  H
  C69      1.0000 0.85270  0.53449  0.41610  Biso   1.000  C
  C70      1.0000 0.69692  0.98270  0.86923  Biso   1.000  C
  C71      1.0000 0.22600  0.01913  0.13440  Biso   1.000  C
  O13      1.0000 0.36673  0.94328  0.13453  Biso   1.000  O
  H73      1.0000 0.09343  0.45470  0.01610  Biso   1.000  H
  H74      1.0000 0.08096  0.42789  0.92309  Biso   1.000  H
  C72      1.0000 0.13970  0.50950  0.95407  Biso   1.000  C
  H75      1.0000 0.96650  0.18598  0.54010  Biso   1.000  H
  O14      1.0000 0.84729  0.04673  0.57292  Biso   1.000  O
  H76      1.0000 0.94372  0.08987  0.64263  Biso   1.000  H
  H77      1.0000 0.95478  0.05021  0.56232  Biso   1.000  H
  H78      1.0000 0.99549  0.21272  0.08887  Biso   1.000  H
  H79      1.0000 0.98778  0.16362  0.00999  Biso   1.000  H
  C73      1.0000 0.89656  0.16582  0.05517  Biso   1.000  C
  C74      1.0000 0.24067  0.92220  0.28429  Biso   1.000  C
  C75      1.0000 0.19385  0.88560  0.29577  Biso   1.000  C
  H80      1.0000 0.05626  0.91009  0.35740  Biso   1.000  H
  H81      1.0000 0.04518  0.94980  0.43771  Biso   1.000  H
  C76      1.0000 0.14641  0.83885  0.48113  Biso   1.000  C
  H82      1.0000 0.83831  0.58851  0.42378  Biso   1.000  H
  H83      1.0000 0.91529  0.50392  0.46169  Biso   1.000  H
  H84      1.0000 0.80936  0.51629  0.42188  Biso   1.000  H
  C77      1.0000 0.67671  0.91689  0.87161  Biso   1.000  C
  C78      1.0000 0.77403  0.98089  0.86563  Biso   1.000  C
  O15      1.0000 0.20312  0.95409  0.12951  Biso   1.000  O
  C79      1.0000 0.36816  0.92957  0.05137  Biso   1.000  C
  H85      1.0000 0.18437  0.52043  0.00931  Biso   1.000  H
  H86      1.0000 0.16820  0.49538  0.91486  Biso   1.000  H
  C80      1.0000 0.05640  0.58220  0.90848  Biso   1.000  C
  C81      1.0000 0.88239  0.97658  0.62809  Biso   1.000  C
  C82      1.0000 0.81370  0.23639  0.98818  Biso   1.000  C
  H87      1.0000 0.89721  0.16628  0.11340  Biso   1.000  H
  H88      1.0000 0.88871  0.11820  0.03343  Biso   1.000  H
  C83      1.0000 0.26397  0.89197  0.20397  Biso   1.000  C
  H89      1.0000 0.29742  0.91426  0.25561  Biso   1.000  H
  C84      1.0000 0.22902  0.84716  0.23299  Biso   1.000  C
  H90      1.0000 0.24489  0.89071  0.35040  Biso   1.000  H
  H91      1.0000 0.27230  0.87941  0.33429  Biso   1.000  H
  H92      1.0000 0.26471  0.96321  0.30630  Biso   1.000  H
  H93      1.0000 0.16659  0.85480  0.31289  Biso   1.000  H
  C85      1.0000 0.09850  0.79528  0.49118  Biso   1.000  C
  C86      1.0000 0.24281  0.81060  0.52753  Biso   1.000  C
  O16      1.0000 0.61768  0.91260  0.91068  Biso   1.000  O
  C87      1.0000 0.74028  0.84330  0.87467  Biso   1.000  C
  O17      1.0000 0.58919  0.92535  0.85762  Biso   1.000  O
  C88      1.0000 0.83852  0.90776  0.86448  Biso   1.000  C
  O18      1.0000 0.79690  0.04592  0.87052  Biso   1.000  O
  H94      1.0000 0.36909  0.97485  0.02392  Biso   1.000  H
  H95      1.0000 0.31278  0.91987  0.00938  Biso   1.000  H
  C89      1.0000 0.45467  0.85950  0.07202  Biso   1.000  C
  H96      1.0000 0.07296  0.62057  0.88925  Biso   1.000  H
  H97      1.0000 0.03279  0.60169  0.94986  Biso   1.000  H
  H98      1.0000 0.00898  0.57146  0.85650  Biso   1.000  H
  C90      1.0000 0.88699  0.97547  0.71357  Biso   1.000  C
  C91      1.0000 0.90339  0.90676  0.59500  Biso   1.000  C
  H99      1.0000 0.81777  0.23950  0.93260  Biso   1.000  H
  C92      1.0000 0.72077  0.23360  0.96569  Biso   1.000  C
  H100     1.0000 0.81782  0.28361  0.01373  Biso   1.000  H
  H101     1.0000 0.31021  0.85649  0.18930  Biso   1.000  H
  H102     1.0000 0.32896  0.88180  0.22150  Biso   1.000  H
  H103     1.0000 0.25209  0.84439  0.18903  Biso   1.000  H
  H104     1.0000 0.27780  0.79631  0.26390  Biso   1.000  H
  H105     1.0000 0.17821  0.83928  0.18080  Biso   1.000  H
  H106     1.0000 0.03348  0.81398  0.45993  Biso   1.000  H
  C93      1.0000 0.14888  0.72427  0.54792  Biso   1.000  C
  C94      1.0000 0.29370  0.73819  0.58318  Biso   1.000  C
  H107     1.0000 0.27421  0.84046  0.52142  Biso   1.000  H
  C95      1.0000 0.52401  0.96276  0.85082  Biso   1.000  C
  C96      1.0000 0.81648  0.84310  0.86903  Biso   1.000  C
  C97      1.0000 0.72046  0.77088  0.88309  Biso   1.000  C
  C98      1.0000 0.50351  0.93760  0.76222  Biso   1.000  C
  C99      1.0000 0.92621  0.90518  0.86353  Biso   1.000  C
  C100     1.0000 0.73598  0.10800  0.79599  Biso   1.000  C
  C101     1.0000 0.47471  0.83606  0.00190  Biso   1.000  C
  C102     1.0000 0.51741  0.82266  0.15967  Biso   1.000  C
  O19      1.0000 0.87010  0.04449  0.74863  Biso   1.000  O
  C103     1.0000 0.91383  0.90627  0.76731  Biso   1.000  C
  C104     1.0000 0.92551  0.83637  0.64359  Biso   1.000  C
  O20      1.0000 0.91006  0.90670  0.51510  Biso   1.000  O
  H108     1.0000 0.71916  0.18387  0.94625  Biso   1.000  H
  C105     1.0000 0.63930  0.29938  0.89156  Biso   1.000  C
  H109     1.0000 0.71367  0.23628  0.01998  Biso   1.000  H
  H110     1.0000 0.11711  0.69548  0.55553  Biso   1.000  H
  C106     1.0000 0.24633  0.69458  0.59432  Biso   1.000  C
  C107     1.0000 0.39739  0.70445  0.63122  Biso   1.000  C
  H111     1.0000 0.51845  0.01698  0.84783  Biso   1.000  H
  H112     1.0000 0.48141  0.95729  0.87080  Biso   1.000  H
  H113     1.0000 0.85747  0.79497  0.86808  Biso   1.000  H
  C108     1.0000 0.66857  0.74728  0.79110  Biso   1.000  C
  H114     1.0000 0.67820  0.78425  0.90973  Biso   1.000  H
  C109     1.0000 0.80857  0.70239  0.94927  Biso   1.000  C
  C110     1.0000 0.45626  0.87949  0.75529  Biso   1.000  C
  H115     1.0000 0.46218  0.98200  0.71357  Biso   1.000  H
  H116     1.0000 0.56081  0.91266  0.75828  Biso   1.000  H
  H117     1.0000 0.52407  0.93230  0.71649  Biso   1.000  H
  H118     1.0000 0.45808  0.99036  0.74931  Biso   1.000  H
  H119     1.0000 0.93629  0.95299  0.88391  Biso   1.000  H
  C111     1.0000 0.01150  0.83537  0.93168  Biso   1.000  C
  C112     1.0000 0.75926  0.07782  0.71568  Biso   1.000  C
  C113     1.0000 0.77099  0.15281  0.76698  Biso   1.000  C
  H120     1.0000 0.70263  0.08570  0.74442  Biso   1.000  H
  H121     1.0000 0.74787  0.15563  0.81100  Biso   1.000  H
  H122     1.0000 0.68983  0.14347  0.81073  Biso   1.000  H
  H123     1.0000 0.67100  0.11821  0.77853  Biso   1.000  H
  H124     1.0000 0.43182  0.86011  0.94204  Biso   1.000  H
  C114     1.0000 0.55941  0.77639  0.02222  Biso   1.000  C
  C115     1.0000 0.60228  0.76281  0.18087  Biso   1.000  C
  H125     1.0000 0.50268  0.83807  0.20588  Biso   1.000  H
  C116     1.0000 0.80608  0.11443  0.70419  Biso   1.000  C
  C117     1.0000 0.93075  0.83809  0.72947  Biso   1.000  C
  C118     1.0000 0.94175  0.76020  0.60547  Biso   1.000  C
  C119     1.0000 0.83108  0.94869  0.43241  Biso   1.000  C
  H126     1.0000 0.58157  0.29599  0.88177  Biso   1.000  H
  H127     1.0000 0.64369  0.29497  0.83639  Biso   1.000  H
  H128     1.0000 0.64119  0.34876  0.90977  Biso   1.000  H
  H129     1.0000 0.27937  0.64641  0.63217  Biso   1.000  H
  H130     1.0000 0.41980  0.66068  0.60377  Biso   1.000  H
  H131     1.0000 0.42021  0.68550  0.69441  Biso   1.000  H
  O21      1.0000 0.43169  0.76421  0.62497  Biso   1.000  O
  C120     1.0000 0.57287  0.76571  0.74890  Biso   1.000  C
  C121     1.0000 0.71669  0.70448  0.74571  Biso   1.000  C
  H132     1.0000 0.85047  0.68490  0.92312  Biso   1.000  H
  C122     1.0000 0.78952  0.63287  0.97183  Biso   1.000  C
  H133     1.0000 0.84055  0.72078  0.00526  Biso   1.000  H
  O22      1.0000 0.52370  0.80127  0.79483  Biso   1.000  O
  H134     1.0000 0.41478  0.88056  0.69189  Biso   1.000  H
  H135     1.0000 0.41878  0.89506  0.78607  Biso   1.000  H
  H136     1.0000 0.00450  0.78730  0.91109  Biso   1.000  H
  H137     1.0000 0.01215  0.83640  0.98997  Biso   1.000  H
  C123     1.0000 0.10337  0.83420  0.94479  Biso   1.000  C
  H138     1.0000 0.75513  0.10930  0.64963  Biso   1.000  H
  H139     1.0000 0.72769  0.12061  0.66567  Biso   1.000  H
  H140     1.0000 0.73531  0.03681  0.69373  Biso   1.000  H
  H141     1.0000 0.72222  0.20370  0.73613  Biso   1.000  H
  H142     1.0000 0.82183  0.16068  0.81923  Biso   1.000  H
  H143     1.0000 0.57324  0.76035  0.97554  Biso   1.000  H
  C124     1.0000 0.62330  0.74071  0.11068  Biso   1.000  C
  C125     1.0000 0.67248  0.72497  0.27702  Biso   1.000  C
  H144     1.0000 0.83339  0.14523  0.68707  Biso   1.000  H
  H145     1.0000 0.94652  0.79106  0.76331  Biso   1.000  H
  C126     1.0000 0.85379  0.74208  0.56089  Biso   1.000  C
  H146     1.0000 0.95590  0.76887  0.55689  Biso   1.000  H
  C127     1.0000 0.02731  0.69255  0.67470  Biso   1.000  C
  H147     1.0000 0.80170  0.00222  0.43859  Biso   1.000  H
  H148     1.0000 0.84509  0.99100  0.41603  Biso   1.000  H
  H149     1.0000 0.78111  0.97319  0.44749  Biso   1.000  H
  C128     1.0000 0.79445  0.92311  0.35977  Biso   1.000  C
  H150     1.0000 0.84811  0.94926  0.38471  Biso   1.000  H
  C129     1.0000 0.76338  0.90236  0.41087  Biso   1.000  C
  C130     1.0000 0.52779  0.74238  0.66669  Biso   1.000  C
  C131     1.0000 0.67388  0.67969  0.66533  Biso   1.000  C
  H151     1.0000 0.78075  0.69238  0.77187  Biso   1.000  H
  H152     1.0000 0.74690  0.62119  0.91578  Biso   1.000  H
  H153     1.0000 0.75851  0.64751  0.00893  Biso   1.000  H
  C132     1.0000 0.87620  0.55978  0.02150  Biso   1.000  C
  H154     1.0000 0.10283  0.83368  0.88663  Biso   1.000  H
  H155     1.0000 0.11127  0.88176  0.96660  Biso   1.000  H
  C133     1.0000 0.18632  0.76362  0.01185  Biso   1.000  C
  H156     1.0000 0.68048  0.70171  0.12359  Biso   1.000  H
  H157     1.0000 0.66855  0.67550  0.28959  Biso   1.000  H
  H158     1.0000 0.73529  0.71478  0.28680  Biso   1.000  H
  O23      1.0000 0.65219  0.77699  0.33559  Biso   1.000  O
  C134     1.0000 0.79262  0.76747  0.46903  Biso   1.000  C
  C135     1.0000 0.83037  0.69940  0.60920  Biso   1.000  C
  H159     1.0000 0.08198  0.70631  0.69482  Biso   1.000  H
  H160     1.0000 0.01911  0.68558  0.72729  Biso   1.000  H
  C136     1.0000 0.04548  0.61476  0.63829  Biso   1.000  C
  H161     1.0000 0.74863  0.96776  0.31269  Biso   1.000  H
  H162     1.0000 0.84292  0.89697  0.34320  Biso   1.000  H
  C137     1.0000 0.74960  0.87046  0.35808  Biso   1.000  C
  O24      1.0000 0.81518  0.80566  0.41807  Biso   1.000  O
  H163     1.0000 0.70060  0.89448  0.37459  Biso   1.000  H
  H164     1.0000 0.73812  0.91146  0.45300  Biso   1.000  H
  H165     1.0000 0.71142  0.92329  0.35013  Biso   1.000  H
  C138     1.0000 0.57609  0.70068  0.62381  Biso   1.000  C
  C139     1.0000 0.72867  0.63106  0.62028  Biso   1.000  C
  H166     1.0000 0.90661  0.54526  0.98393  Biso   1.000  H
  H167     1.0000 0.91900  0.57212  0.07694  Biso   1.000  H
  C140     1.0000 0.86032  0.49052  0.04596  Biso   1.000  C
  H168     1.0000 0.18220  0.71640  0.98630  Biso   1.000  H
  H169     1.0000 0.18219  0.76051  0.06743  Biso   1.000  H
  C141     1.0000 0.27919  0.76641  0.03434  Biso   1.000  C
  C142     1.0000 0.71350  0.74897  0.42677  Biso   1.000  C
  C143     1.0000 0.75147  0.68011  0.56850  Biso   1.000  C
  H170     1.0000 0.86973  0.68326  0.67131  Biso   1.000  H
  H171     1.0000 0.99829  0.59449  0.63149  Biso   1.000  H
  H172     1.0000 0.04003  0.62389  0.57883  Biso   1.000  H
  C144     1.0000 0.14142  0.55467  0.70059  Biso   1.000  C
  H173     1.0000 0.72163  0.85737  0.29760  Biso   1.000  H
  O25      1.0000 0.53326  0.67151  0.54540  Biso   1.000  O
  H174     1.0000 0.68749  0.60818  0.57503  Biso   1.000  H
  C145     1.0000 0.81609  0.56136  0.68850  Biso   1.000  C
  H175     1.0000 0.81559  0.47959  0.99072  Biso   1.000  H
  H176     1.0000 0.83180  0.50459  0.08510  Biso   1.000  H
  C146     1.0000 0.94362  0.41782  0.09155  Biso   1.000  C
  H177     1.0000 0.28628  0.76369  0.97999  Biso   1.000  H
  H178     1.0000 0.28079  0.81610  0.05371  Biso   1.000  H
  C147     1.0000 0.36071  0.70059  0.10840  Biso   1.000  C
  C148     1.0000 0.69220  0.70688  0.47671  Biso   1.000  C
  H179     1.0000 0.15113  0.55318  0.76242  Biso   1.000  H
  H180     1.0000 0.18828  0.57086  0.69842  Biso   1.000  H
  C149     1.0000 0.15510  0.47347  0.67627  Biso   1.000  C
  C150     1.0000 0.46351  0.72719  0.46693  Biso   1.000  C
  H181     1.0000 0.79827  0.53559  0.72363  Biso   1.000  H
  H182     1.0000 0.86208  0.58129  0.73042  Biso   1.000  H
  C151     1.0000 0.86041  0.50188  0.64297  Biso   1.000  C
  H183     1.0000 0.92699  0.37940  0.11071  Biso   1.000  H
  H184     1.0000 0.96722  0.39828  0.05011  Biso   1.000  H
  H185     1.0000 0.99100  0.42850  0.14353  Biso   1.000  H
  H186     1.0000 0.41841  0.70397  0.11826  Biso   1.000  H
  H187     1.0000 0.35635  0.70498  0.16364  Biso   1.000  H
  H188     1.0000 0.35885  0.65119  0.09026  Biso   1.000  H
  O26      1.0000 0.61461  0.68717  0.43322  Biso   1.000  O
  H189     1.0000 0.10899  0.45721  0.68021  Biso   1.000  H
  H190     1.0000 0.21649  0.43778  0.72132  Biso   1.000  H
  C152     1.0000 0.14728  0.46547  0.58393  Biso   1.000  C
  C153     1.0000 0.45807  0.71128  0.38960  Biso   1.000  C
  H191     1.0000 0.42689  0.70308  0.42011  Biso   1.000  H
  H192     1.0000 0.47329  0.77620  0.47569  Biso   1.000  H
  H193     1.0000 0.40331  0.73595  0.46332  Biso   1.000  H
  H194     1.0000 0.42187  0.76938  0.48119  Biso   1.000  H
  H195     1.0000 0.87556  0.52827  0.60587  Biso   1.000  H
  H196     1.0000 0.81498  0.48060  0.60282  Biso   1.000  H
  C154     1.0000 0.94778  0.43519  0.70820  Biso   1.000  C
  C155     1.0000 0.52828  0.73040  0.37588  Biso   1.000  C
  C156     1.0000 0.52928  0.76161  0.43282  Biso   1.000  C
  H197     1.0000 0.16169  0.41146  0.57618  Biso   1.000  H
  H198     1.0000 0.08464  0.49610  0.53827  Biso   1.000  H
  H199     1.0000 0.19059  0.48367  0.57809  Biso   1.000  H
  H200     1.0000 0.46909  0.65616  0.38743  Biso   1.000  H
  H201     1.0000 0.39578  0.74148  0.34123  Biso   1.000  H
  H202     1.0000 0.99632  0.45540  0.74313  Biso   1.000  H
  H203     1.0000 0.93478  0.41267  0.75040  Biso   1.000  H
  C157     1.0000 0.98362  0.37136  0.66071  Biso   1.000  C
  H204     1.0000 0.51868  0.78487  0.38152  Biso   1.000  H
  H205     1.0000 0.51811  0.72399  0.31473  Biso   1.000  H
  H206     1.0000 0.48930  0.79210  0.37228  Biso   1.000  H
  H207     1.0000 0.55450  0.79509  0.47413  Biso   1.000  H
  H208     1.0000 0.93578  0.35017  0.62707  Biso   1.000  H
  H209     1.0000 0.99508  0.39409  0.61743  Biso   1.000  H
  C158     1.0000 0.07361  0.30500  0.72689  Biso   1.000  C
  H210     1.0000 0.09559  0.26787  0.69359  Biso   1.000  H
  H211     1.0000 0.12048  0.32598  0.76208  Biso   1.000  H
  H212     1.0000 0.06136  0.27939  0.76677  Biso   1.000  H
