data_image0
_cell_length_a       10.399
_cell_length_b       13.616
_cell_length_c       19.342
_cell_angle_alpha    87.76
_cell_angle_beta     82.52
_cell_angle_gamma    72.67

_symmetry_space_group_name_H-M    "P 1"
_symmetry_int_tables_number       1

loop_
  _symmetry_equiv_pos_as_xyz
  'x, y, z'

loop_
  _atom_site_label
  _atom_site_occupancy
  _atom_site_fract_x
  _atom_site_fract_y
  _atom_site_fract_z
  _atom_site_thermal_displace_type
  _atom_site_B_iso_or_equiv
  _atom_site_type_symbol
  O1       1.0000 0.47319  0.44189  0.38488  Biso   1.000  O
  C1       1.0000 0.34251  0.47413  0.36110  Biso   1.000  C
  C2       1.0000 0.57595  0.41637  0.32841  Biso   1.000  C
  H1       1.0000 0.33737  0.53200  0.32882  Biso   1.000  H
  H2       1.0000 0.32934  0.41752  0.33592  Biso   1.000  H
  C3       1.0000 0.23469  0.50526  0.42023  Biso   1.000  C
  C4       1.0000 0.70942  0.38282  0.35312  Biso   1.000  C
  H3       1.0000 0.56409  0.36107  0.30129  Biso   1.000  H
  H4       1.0000 0.56996  0.47632  0.29790  Biso   1.000  H
  O2       1.0000 0.22535  0.42123  0.46471  Biso   1.000  O
  H5       1.0000 0.14743  0.53574  0.40230  Biso   1.000  H
  H6       1.0000 0.25250  0.55795  0.44730  Biso   1.000  H
  O3       1.0000 0.72365  0.29009  0.39166  Biso   1.000  O
  H7       1.0000 0.71930  0.43627  0.38269  Biso   1.000  H
  H8       1.0000 0.78070  0.37176  0.31323  Biso   1.000  H
  C5       1.0000 0.12017  0.38107  0.45585  Biso   1.000  C
  C6       1.0000 0.85933  0.23554  0.39932  Biso   1.000  C
  H9       1.0000 0.03254  0.43431  0.46471  Biso   1.000  H
  H10      1.0000 0.13059  0.35617  0.40803  Biso   1.000  H
  C7       1.0000 0.12620  0.29457  0.50633  Biso   1.000  C
  C8       1.0000 0.85940  0.15250  0.45178  Biso   1.000  C
  H11      1.0000 0.90752  0.20563  0.35453  Biso   1.000  H
  H12      1.0000 0.90558  0.28215  0.41481  Biso   1.000  H
  O4       1.0000 0.10748  0.33516  0.57463  Biso   1.000  O
  H13      1.0000 0.21430  0.24188  0.49783  Biso   1.000  H
  H14      1.0000 0.05481  0.26303  0.50090  Biso   1.000  H
  O5       1.0000 0.83029  0.19986  0.51915  Biso   1.000  O
  H15      1.0000 0.94821  0.10011  0.44740  Biso   1.000  H
  H16      1.0000 0.79033  0.11942  0.44479  Biso   1.000  H
  C9       1.0000 0.13636  0.26790  0.62808  Biso   1.000  C
  C10      1.0000 0.81703  0.13959  0.57646  Biso   1.000  C
  C11      1.0000 0.16804  0.16311  0.62115  Biso   1.000  C
  C12      1.0000 0.13234  0.31395  0.69201  Biso   1.000  C
  C13      1.0000 0.80168  0.04258  0.57333  Biso   1.000  C
  C14      1.0000 0.81628  0.18488  0.63966  Biso   1.000  C
  H17      1.0000 0.16753  0.13374  0.57802  Biso   1.000  H
  C15      1.0000 0.20126  0.10107  0.67918  Biso   1.000  C
  C16      1.0000 0.16009  0.25022  0.74916  Biso   1.000  C
  H18      1.0000 0.11155  0.38573  0.69603  Biso   1.000  H
  H19      1.0000 0.80428  0.01221  0.53010  Biso   1.000  H
  C17      1.0000 0.78221  0.99077  0.63554  Biso   1.000  C
  H20      1.0000 0.82537  0.25135  0.64122  Biso   1.000  H
  C18      1.0000 0.80181  0.12961  0.70030  Biso   1.000  C
  C19      1.0000 0.19654  0.14390  0.74327  Biso   1.000  C
  O6       1.0000 0.23964  0.99814  0.66584  Biso   1.000  O
  O7       1.0000 0.15508  0.28442  0.81487  Biso   1.000  O
  C20      1.0000 0.78362  0.03267  0.69884  Biso   1.000  C
  O8       1.0000 0.75762  0.89868  0.62767  Biso   1.000  O
  O9       1.0000 0.80451  0.16320  0.76491  Biso   1.000  O
  H21      1.0000 0.21774  0.10179  0.78233  Biso   1.000  H
  C21      1.0000 0.25763  0.92787  0.72340  Biso   1.000  C
  C22      1.0000 0.12568  0.39259  0.82519  Biso   1.000  C
  H22      1.0000 0.77216  0.99649  0.74051  Biso   1.000  H
  C23      1.0000 0.75000  0.83603  0.68857  Biso   1.000  C
  C24      1.0000 0.81307  0.26436  0.77232  Biso   1.000  C
  H23      1.0000 0.18116  0.95278  0.76001  Biso   1.000  H
  H24      1.0000 0.25551  0.86087  0.70781  Biso   1.000  H
  C25      1.0000 0.38772  0.91339  0.75433  Biso   1.000  C
  H25      1.0000 0.19910  0.41714  0.80094  Biso   1.000  H
  H26      1.0000 0.04106  0.42968  0.80673  Biso   1.000  H
  C26      1.0000 0.11245  0.41063  0.90200  Biso   1.000  C
  C27      1.0000 0.61987  0.87078  0.73753  Biso   1.000  C
  H27      1.0000 0.76197  0.76564  0.67350  Biso   1.000  H
  H28      1.0000 0.82581  0.83425  0.71433  Biso   1.000  H
  C28      1.0000 0.82798  0.27864  0.84662  Biso   1.000  C
  H29      1.0000 0.89144  0.27377  0.74171  Biso   1.000  H
  H30      1.0000 0.73083  0.31507  0.75944  Biso   1.000  H
  N1       1.0000 0.50302  0.89180  0.71047  Biso   1.000  N
  C29      1.0000 0.38687  0.91436  0.82618  Biso   1.000  C
  O10      1.0000 0.23806  0.36146  0.92672  Biso   1.000  O
  H31      1.0000 0.04176  0.38308  0.92614  Biso   1.000  H
  H32      1.0000 0.08616  0.48456  0.91133  Biso   1.000  H
  C30      1.0000 0.62553  0.87228  0.80866  Biso   1.000  C
  O11      1.0000 0.70796  0.27716  0.88954  Biso   1.000  O
  H33      1.0000 0.84595  0.34434  0.85204  Biso   1.000  H
  H34      1.0000 0.90496  0.22347  0.86060  Biso   1.000  H
  H35      1.0000 0.30455  0.92796  0.85590  Biso   1.000  H
  C31      1.0000 0.50736  0.89519  0.85309  Biso   1.000  C
  C32      1.0000 0.23623  0.38220  0.99815  Biso   1.000  C
  H36      1.0000 0.70957  0.85773  0.82613  Biso   1.000  H
  C33      1.0000 0.71491  0.29389  0.96056  Biso   1.000  C
  H37      1.0000 0.50876  0.89778  0.90153  Biso   1.000  H
  H38      1.0000 0.23263  0.45405  0.00410  Biso   1.000  H
  H39      1.0000 0.15589  0.37041  0.02527  Biso   1.000  H
  C34      1.0000 0.36207  0.31248  0.02324  Biso   1.000  C
  H40      1.0000 0.80153  0.25034  0.97401  Biso   1.000  H
  H41      1.0000 0.70940  0.36598  0.96770  Biso   1.000  H
  C35      1.0000 0.60004  0.26818  0.00420  Biso   1.000  C
  O12      1.0000 0.47546  0.33981  0.99070  Biso   1.000  O
  H42      1.0000 0.37124  0.24086  0.01218  Biso   1.000  H
  H43      1.0000 0.35634  0.31861  0.07397  Biso   1.000  H
  H44      1.0000 0.59999  0.19856  0.99341  Biso   1.000  H
  H45      1.0000 0.61044  0.27069  0.05369  Biso   1.000  H
  O13      1.0000 0.52661  0.55818  0.61515  Biso   1.000  O
  C36      1.0000 0.42371  0.58377  0.67162  Biso   1.000  C
  C37      1.0000 0.65728  0.52593  0.63893  Biso   1.000  C
  C38      1.0000 0.29038  0.61725  0.64691  Biso   1.000  C
  H46      1.0000 0.43558  0.63908  0.69874  Biso   1.000  H
  H47      1.0000 0.42974  0.52375  0.70213  Biso   1.000  H
  H48      1.0000 0.66233  0.46806  0.67121  Biso   1.000  H
  H49      1.0000 0.67046  0.58254  0.66411  Biso   1.000  H
  C39      1.0000 0.76507  0.49488  0.57980  Biso   1.000  C
  O14      1.0000 0.27601  0.71005  0.60837  Biso   1.000  O
  H50      1.0000 0.28047  0.56387  0.61734  Biso   1.000  H
  H51      1.0000 0.21897  0.62839  0.68680  Biso   1.000  H
  O15      1.0000 0.77435  0.57884  0.53532  Biso   1.000  O
  H52      1.0000 0.85226  0.46433  0.59773  Biso   1.000  H
  H53      1.0000 0.74729  0.44211  0.55273  Biso   1.000  H
  C40      1.0000 0.14046  0.76453  0.60071  Biso   1.000  C
  C41      1.0000 0.87953  0.61899  0.54418  Biso   1.000  C
  C42      1.0000 0.14030  0.84757  0.54825  Biso   1.000  C
  H54      1.0000 0.09218  0.79443  0.64550  Biso   1.000  H
  H55      1.0000 0.09408  0.71799  0.58522  Biso   1.000  H
  H56      1.0000 0.96716  0.56576  0.53532  Biso   1.000  H
  H57      1.0000 0.86917  0.64397  0.59200  Biso   1.000  H
  C43      1.0000 0.87356  0.70557  0.49371  Biso   1.000  C
  O16      1.0000 0.16938  0.80028  0.48088  Biso   1.000  O
  H58      1.0000 0.05149  0.89996  0.55263  Biso   1.000  H
  H59      1.0000 0.20936  0.88064  0.55524  Biso   1.000  H
  O17      1.0000 0.89231  0.66490  0.42540  Biso   1.000  O
  H60      1.0000 0.78547  0.75827  0.50221  Biso   1.000  H
  H61      1.0000 0.94499  0.73703  0.49913  Biso   1.000  H
  C44      1.0000 0.18276  0.86047  0.42357  Biso   1.000  C
  C45      1.0000 0.86334  0.73217  0.37195  Biso   1.000  C
  C46      1.0000 0.18348  0.81527  0.36037  Biso   1.000  C
  C47      1.0000 0.19798  0.95757  0.42670  Biso   1.000  C
  C48      1.0000 0.83166  0.83695  0.37888  Biso   1.000  C
  C49      1.0000 0.86736  0.68612  0.30802  Biso   1.000  C
  C50      1.0000 0.19798  0.87046  0.29973  Biso   1.000  C
  H62      1.0000 0.17433  0.74872  0.35881  Biso   1.000  H
  C51      1.0000 0.21756  0.00937  0.36449  Biso   1.000  C
  H63      1.0000 0.19551  0.98786  0.46993  Biso   1.000  H
  C52      1.0000 0.79842  0.89907  0.32079  Biso   1.000  C
  H64      1.0000 0.83227  0.86632  0.42201  Biso   1.000  H
  C53      1.0000 0.83958  0.74992  0.25087  Biso   1.000  C
  H65      1.0000 0.88815  0.61434  0.30400  Biso   1.000  H
  O18      1.0000 0.19516  0.83695  0.23512  Biso   1.000  O
  C54      1.0000 0.21619  0.96740  0.30114  Biso   1.000  C
  O19      1.0000 0.24217  0.10138  0.37237  Biso   1.000  O
  O20      1.0000 0.76003  0.00200  0.33420  Biso   1.000  O
  C55      1.0000 0.80315  0.85617  0.25676  Biso   1.000  C
  O21      1.0000 0.84470  0.71572  0.18511  Biso   1.000  O
  C56      1.0000 0.18672  0.73570  0.22772  Biso   1.000  C
  H66      1.0000 0.22760  0.00365  0.25952  Biso   1.000  H
  C57      1.0000 0.24979  0.16404  0.31146  Biso   1.000  C
  C58      1.0000 0.74205  0.07227  0.27658  Biso   1.000  C
  H67      1.0000 0.78193  0.89835  0.21770  Biso   1.000  H
  C59      1.0000 0.87402  0.60748  0.17484  Biso   1.000  C
  C60      1.0000 0.17182  0.72143  0.15341  Biso   1.000  C
  H68      1.0000 0.10826  0.72630  0.25832  Biso   1.000  H
  H69      1.0000 0.26887  0.68500  0.24060  Biso   1.000  H
  C61      1.0000 0.37983  0.12929  0.26250  Biso   1.000  C
  H70      1.0000 0.23773  0.23443  0.32653  Biso   1.000  H
  H71      1.0000 0.17398  0.16582  0.28570  Biso   1.000  H
  C62      1.0000 0.61195  0.08675  0.24571  Biso   1.000  C
  H72      1.0000 0.81851  0.04736  0.24002  Biso   1.000  H
  H73      1.0000 0.74428  0.13920  0.29222  Biso   1.000  H
  C63      1.0000 0.88722  0.58951  0.09803  Biso   1.000  C
  H74      1.0000 0.80060  0.58292  0.19909  Biso   1.000  H
  H75      1.0000 0.95870  0.57046  0.19330  Biso   1.000  H
  O22      1.0000 0.29174  0.72291  0.11049  Biso   1.000  O
  H76      1.0000 0.15385  0.65573  0.14799  Biso   1.000  H
  H77      1.0000 0.09484  0.77660  0.13938  Biso   1.000  H
  N2       1.0000 0.49677  0.10827  0.28956  Biso   1.000  N
  C64      1.0000 0.37418  0.12778  0.19132  Biso   1.000  C
  C65      1.0000 0.61292  0.08571  0.17385  Biso   1.000  C
  O23      1.0000 0.76174  0.63861  0.07332  Biso   1.000  O
  H78      1.0000 0.95793  0.61699  0.07389  Biso   1.000  H
  H79      1.0000 0.91354  0.51550  0.08870  Biso   1.000  H
  C66      1.0000 0.28485  0.70625  0.03947  Biso   1.000  C
  C67      1.0000 0.49240  0.10495  0.14694  Biso   1.000  C
  H80      1.0000 0.29012  0.14233  0.17390  Biso   1.000  H
  H81      1.0000 0.69514  0.07210  0.14413  Biso   1.000  H
  C68      1.0000 0.76353  0.61795  0.00188  Biso   1.000  C
  H82      1.0000 0.19816  0.74972  0.02602  Biso   1.000  H
  H83      1.0000 0.29031  0.63409  0.03228  Biso   1.000  H
  C69      1.0000 0.39976  0.73189  0.99583  Biso   1.000  C
  H84      1.0000 0.49103  0.10228  0.09850  Biso   1.000  H
  C70      1.0000 0.63763  0.68758  0.97680  Biso   1.000  C
  H85      1.0000 0.76706  0.54601  0.99593  Biso   1.000  H
  H86      1.0000 0.84387  0.62973  0.97476  Biso   1.000  H
  O24      1.0000 0.52424  0.66026  0.00933  Biso   1.000  O
  H87      1.0000 0.39970  0.80151  0.00662  Biso   1.000  H
  H88      1.0000 0.38926  0.72937  0.94634  Biso   1.000  H
  H89      1.0000 0.62856  0.75921  0.98785  Biso   1.000  H
  H90      1.0000 0.64333  0.68153  0.92606  Biso   1.000  H
  Ne1      1.0000 0.48285  0.20105  0.67951  Biso   1.000  Ne
  He1      1.0000 0.48630  0.12143  0.90548  Biso   1.000  He
  He2      1.0000 0.46884  0.30496  0.57353  Biso   1.000  He
  He3      1.0000 0.47110  0.25343  0.54676  Biso   1.000  He
  Ar1      1.0000 0.47622  0.21773  0.66223  Biso   1.000  Ar
  Ne2      1.0000 0.51688  0.79905  0.32052  Biso   1.000  Ne
  He4      1.0000 0.53023  0.71016  0.43427  Biso   1.000  He
  He5      1.0000 0.52606  0.78491  0.45151  Biso   1.000  He
  He6      1.0000 0.51508  0.86600  0.10628  Biso   1.000  He
  Ar2      1.0000 0.52254  0.80360  0.34993  Biso   1.000  Ar
