data_image0
_cell_length_a       11.316
_cell_length_b       13
_cell_length_c       16.517
_cell_angle_alpha    94.42
_cell_angle_beta     105.6
_cell_angle_gamma    99.94

_symmetry_space_group_name_H-M    "P 1"
_symmetry_int_tables_number       1

loop_
  _symmetry_equiv_pos_as_xyz
  'x, y, z'

loop_
  _atom_site_label
  _atom_site_occupancy
  _atom_site_fract_x
  _atom_site_fract_y
  _atom_site_fract_z
  _atom_site_thermal_displace_type
  _atom_site_B_iso_or_equiv
  _atom_site_type_symbol
  C1       1.0000 0.62434  0.54133  0.59240  Biso   1.000  C
  C2       1.0000 0.54298  0.48808  0.63107  Biso   1.000  C
  H1       1.0000 0.60032  0.59483  0.55911  Biso   1.000  H
  C3       1.0000 0.74105  0.51637  0.60222  Biso   1.000  C
  O1       1.0000 0.42416  0.50508  0.62416  Biso   1.000  O
  C4       1.0000 0.57968  0.41120  0.68058  Biso   1.000  C
  C5       1.0000 0.77930  0.43912  0.65091  Biso   1.000  C
  H2       1.0000 0.79628  0.55311  0.57490  Biso   1.000  H
  C6       1.0000 0.40274  0.60877  0.60907  Biso   1.000  C
  C7       1.0000 0.69611  0.38763  0.68990  Biso   1.000  C
  H3       1.0000 0.52452  0.37488  0.70810  Biso   1.000  H
  C8       1.0000 0.90781  0.41302  0.65852  Biso   1.000  C
  H4       1.0000 0.47136  0.66276  0.64787  Biso   1.000  H
  H5       1.0000 0.40008  0.61960  0.54998  Biso   1.000  H
  C9       1.0000 0.27999  0.61837  0.62448  Biso   1.000  C
  H6       1.0000 0.72013  0.33463  0.72382  Biso   1.000  H
  H7       1.0000 0.96144  0.47823  0.64939  Biso   1.000  H
  C10      1.0000 0.96990  0.39099  0.74880  Biso   1.000  C
  C11      1.0000 0.90639  0.32723  0.59018  Biso   1.000  C
  H8       1.0000 0.26951  0.69212  0.62131  Biso   1.000  H
  H9       1.0000 0.21160  0.57327  0.57839  Biso   1.000  H
  C12      1.0000 0.26560  0.58802  0.70918  Biso   1.000  C
  C13      1.0000 0.99725  0.47197  0.81448  Biso   1.000  C
  C14      1.0000 0.99692  0.29516  0.76858  Biso   1.000  C
  C15      1.0000 0.81849  0.23283  0.56951  Biso   1.000  C
  C16      1.0000 0.99582  0.33868  0.54700  Biso   1.000  C
  H10      1.0000 0.25968  0.51102  0.70823  Biso   1.000  H
  H11      1.0000 0.18596  0.60399  0.71571  Biso   1.000  H
  C17      1.0000 0.37170  0.64340  0.78557  Biso   1.000  C
  H12      1.0000 0.97707  0.53812  0.80237  Biso   1.000  H
  C18      1.0000 0.05345  0.45923  0.89747  Biso   1.000  C
  H13      1.0000 0.97648  0.23793  0.72471  Biso   1.000  H
  C19      1.0000 0.05363  0.28039  0.85208  Biso   1.000  C
  H14      1.0000 0.75417  0.22302  0.59677  Biso   1.000  H
  C20      1.0000 0.82219  0.15353  0.51093  Biso   1.000  C
  C21      1.0000 0.99946  0.26042  0.48709  Biso   1.000  C
  H15      1.0000 0.05643  0.40238  0.55892  Biso   1.000  H
  H16      1.0000 0.45112  0.62594  0.77993  Biso   1.000  H
  H17      1.0000 0.37908  0.72054  0.78589  Biso   1.000  H
  C22      1.0000 0.35487  0.61462  0.87027  Biso   1.000  C
  H18      1.0000 0.07221  0.51617  0.94147  Biso   1.000  H
  C23      1.0000 0.08251  0.36252  0.91611  Biso   1.000  C
  H19      1.0000 0.07206  0.21368  0.86450  Biso   1.000  H
  H20      1.0000 0.76154  0.08978  0.49869  Biso   1.000  H
  C24      1.0000 0.91308  0.16609  0.46978  Biso   1.000  C
  H21      1.0000 0.06129  0.27099  0.45780  Biso   1.000  H
  H22      1.0000 0.27377  0.62919  0.87490  Biso   1.000  H
  H23      1.0000 0.42215  0.66033  0.91681  Biso   1.000  H
  C25      1.0000 0.35807  0.50051  0.88181  Biso   1.000  C
  O2       1.0000 0.14539  0.36096  0.99967  Biso   1.000  O
  O3       1.0000 0.92756  0.09222  0.41139  Biso   1.000  O
  H24      1.0000 0.29501  0.45340  0.83388  Biso   1.000  H
  H25      1.0000 0.33878  0.48467  0.93500  Biso   1.000  H
  O4       1.0000 0.48089  0.48443  0.88473  Biso   1.000  O
  C26      1.0000 0.18638  0.26592  0.02332  Biso   1.000  C
  C27      1.0000 0.88020  0.98131  0.41228  Biso   1.000  C
  C28      1.0000 0.50282  0.38494  0.89202  Biso   1.000  C
  H26      1.0000 0.22617  0.23822  0.98198  Biso   1.000  H
  H27      1.0000 0.11437  0.21141  0.02478  Biso   1.000  H
  C29      1.0000 0.27887  0.29398  0.10948  Biso   1.000  C
  H28      1.0000 0.94309  0.94068  0.40347  Biso   1.000  H
  H29      1.0000 0.86944  0.97141  0.46890  Biso   1.000  H
  C30      1.0000 0.76146  0.93901  0.34819  Biso   1.000  C
  C31      1.0000 0.62641  0.37430  0.90540  Biso   1.000  C
  C32      1.0000 0.41128  0.29758  0.88733  Biso   1.000  C
  H30      1.0000 0.34917  0.34897  0.10612  Biso   1.000  H
  H31      1.0000 0.31337  0.23107  0.12558  Biso   1.000  H
  C33      1.0000 0.22887  0.33218  0.17668  Biso   1.000  C
  H32      1.0000 0.70002  0.98255  0.35427  Biso   1.000  H
  H33      1.0000 0.77358  0.94379  0.29132  Biso   1.000  H
  C34      1.0000 0.70872  0.82521  0.35440  Biso   1.000  C
  H34      1.0000 0.68989  0.43430  0.90939  Biso   1.000  H
  C35      1.0000 0.65706  0.27627  0.91300  Biso   1.000  C
  C36      1.0000 0.44467  0.19969  0.89532  Biso   1.000  C
  H35      1.0000 0.32661  0.30409  0.87883  Biso   1.000  H
  H36      1.0000 0.29943  0.34750  0.22936  Biso   1.000  H
  H37      1.0000 0.20763  0.40074  0.16311  Biso   1.000  H
  C37      1.0000 0.11921  0.27184  0.19906  Biso   1.000  C
  H38      1.0000 0.29513  0.37625  0.22461  Biso   1.000  H
  H39      1.0000 0.16166  0.37135  0.15519  Biso   1.000  H
  C38      1.0000 0.17689  0.22295  0.20096  Biso   1.000  C
  H40      1.0000 0.63362  0.79886  0.30539  Biso   1.000  H
  H41      1.0000 0.77169  0.78226  0.35009  Biso   1.000  H
  C39      1.0000 0.67251  0.80818  0.43599  Biso   1.000  C
  H42      1.0000 0.74181  0.26979  0.92169  Biso   1.000  H
  C40      1.0000 0.56641  0.18707  0.90812  Biso   1.000  C
  H43      1.0000 0.38142  0.13967  0.89170  Biso   1.000  H
  H44      1.0000 0.08765  0.31928  0.23450  Biso   1.000  H
  H45      1.0000 0.05073  0.24211  0.14701  Biso   1.000  H
  C41      1.0000 0.16176  0.18359  0.24781  Biso   1.000  C
  C42      1.0000 0.07548  0.22475  0.24540  Biso   1.000  C
  H46      1.0000 0.19636  0.13857  0.21282  Biso   1.000  H
  H47      1.0000 0.24712  0.19787  0.23856  Biso   1.000  H
  H48      1.0000 0.14255  0.17179  0.14878  Biso   1.000  H
  H49      1.0000 0.74496  0.83978  0.48551  Biso   1.000  H
  H50      1.0000 0.65176  0.73168  0.43910  Biso   1.000  H
  C43      1.0000 0.56261  0.85611  0.44068  Biso   1.000  C
  C44      1.0000 0.59716  0.07672  0.91097  Biso   1.000  C
  H51      1.0000 0.22930  0.21442  0.30031  Biso   1.000  H
  C45      1.0000 0.05116  0.11439  0.27140  Biso   1.000  C
  H52      1.0000 0.99859  0.23938  0.20648  Biso   1.000  H
  H53      1.0000 0.10459  0.27919  0.29568  Biso   1.000  H
  H54      1.0000 0.57660  0.92869  0.42591  Biso   1.000  H
  H55      1.0000 0.48660  0.81506  0.39789  Biso   1.000  H
  C46      1.0000 0.53882  0.86009  0.52710  Biso   1.000  C
  H56      1.0000 0.52141  0.02982  0.91750  Biso   1.000  H
  C47      1.0000 0.70443  0.07067  0.98851  Biso   1.000  C
  C48      1.0000 0.61111  0.03563  0.82589  Biso   1.000  C
  H57      1.0000 0.99361  0.15906  0.28300  Biso   1.000  H
  O5       1.0000 0.98488  0.03329  0.20407  Biso   1.000  O
  H58      1.0000 0.08467  0.08289  0.32338  Biso   1.000  H
  H59      1.0000 0.00333  0.11565  0.31349  Biso   1.000  H
  H60      1.0000 0.13273  0.09678  0.29967  Biso   1.000  H
  H61      1.0000 0.53830  0.79026  0.54732  Biso   1.000  H
  H62      1.0000 0.45636  0.87866  0.52310  Biso   1.000  H
  O6       1.0000 0.63652  0.93789  0.58517  Biso   1.000  O
  C49      1.0000 0.79381  0.01134  0.98572  Biso   1.000  C
  C50      1.0000 0.71160  0.11918  0.06827  Biso   1.000  C
  C51      1.0000 0.70797  0.08070  0.79457  Biso   1.000  C
  C52      1.0000 0.52418  0.95322  0.77460  Biso   1.000  C
  C53      1.0000 0.89264  0.05091  0.13579  Biso   1.000  C
  C54      1.0000 0.62311  0.96477  0.66397  Biso   1.000  C
  H63      1.0000 0.79170  0.97536  0.93278  Biso   1.000  H
  C55      1.0000 0.88712  0.00261  0.05831  Biso   1.000  C
  C56      1.0000 0.80436  0.11034  0.14111  Biso   1.000  C
  H64      1.0000 0.65105  0.15976  0.07340  Biso   1.000  H
  H65      1.0000 0.77142  0.13670  0.82887  Biso   1.000  H
  C57      1.0000 0.71413  0.04597  0.71501  Biso   1.000  C
  C58      1.0000 0.52840  0.91685  0.69409  Biso   1.000  C
  H66      1.0000 0.45829  0.91948  0.79489  Biso   1.000  H
  H67      1.0000 0.94786  0.96225  0.05356  Biso   1.000  H
  H68      1.0000 0.80691  0.14534  0.19430  Biso   1.000  H
  H69      1.0000 0.78109  0.07823  0.69529  Biso   1.000  H
  H70      1.0000 0.46649  0.85961  0.66030  Biso   1.000  H
  C59      1.0000 0.37573  0.45873  0.40759  Biso   1.000  C
  C60      1.0000 0.45700  0.51191  0.36892  Biso   1.000  C
  H71      1.0000 0.39966  0.40523  0.44087  Biso   1.000  H
  C61      1.0000 0.25904  0.48363  0.39783  Biso   1.000  C
  C62      1.0000 0.42029  0.58879  0.31940  Biso   1.000  C
  O7       1.0000 0.57581  0.49491  0.37583  Biso   1.000  O
  C63      1.0000 0.22067  0.56087  0.34907  Biso   1.000  C
  H72      1.0000 0.20369  0.44688  0.42509  Biso   1.000  H
  C64      1.0000 0.30387  0.61243  0.31008  Biso   1.000  C
  H73      1.0000 0.47545  0.62511  0.29189  Biso   1.000  H
  C65      1.0000 0.59723  0.39122  0.39092  Biso   1.000  C
  C66      1.0000 0.09219  0.58698  0.34153  Biso   1.000  C
  H74      1.0000 0.27987  0.66537  0.27623  Biso   1.000  H
  H75      1.0000 0.52861  0.33723  0.35212  Biso   1.000  H
  H76      1.0000 0.59989  0.38039  0.45000  Biso   1.000  H
  C67      1.0000 0.71998  0.38162  0.37551  Biso   1.000  C
  H77      1.0000 0.03864  0.52183  0.35059  Biso   1.000  H
  C68      1.0000 0.03007  0.60900  0.25119  Biso   1.000  C
  C69      1.0000 0.09360  0.67284  0.40981  Biso   1.000  C
  H78      1.0000 0.73046  0.30786  0.37868  Biso   1.000  H
  H79      1.0000 0.78837  0.42671  0.42160  Biso   1.000  H
  C70      1.0000 0.73437  0.41197  0.29081  Biso   1.000  C
  C71      1.0000 0.00272  0.52801  0.18550  Biso   1.000  C
  C72      1.0000 0.00314  0.70482  0.23140  Biso   1.000  C
  C73      1.0000 0.18148  0.76716  0.43048  Biso   1.000  C
  C74      1.0000 0.00416  0.66131  0.45298  Biso   1.000  C
  H80      1.0000 0.74032  0.48898  0.29182  Biso   1.000  H
  H81      1.0000 0.81401  0.39600  0.28428  Biso   1.000  H
  C75      1.0000 0.62827  0.35658  0.21441  Biso   1.000  C
  H82      1.0000 0.02291  0.46187  0.19761  Biso   1.000  H
  C76      1.0000 0.94653  0.54083  0.10252  Biso   1.000  C
  H83      1.0000 0.02350  0.76213  0.27528  Biso   1.000  H
  C77      1.0000 0.94643  0.71959  0.14791  Biso   1.000  C
  H84      1.0000 0.24580  0.77697  0.40322  Biso   1.000  H
  C78      1.0000 0.17782  0.84654  0.48912  Biso   1.000  C
  C79      1.0000 0.00051  0.73957  0.51289  Biso   1.000  C
  H85      1.0000 0.94357  0.59762  0.44113  Biso   1.000  H
  H86      1.0000 0.54889  0.37414  0.22012  Biso   1.000  H
  H87      1.0000 0.62091  0.27953  0.21410  Biso   1.000  H
  C80      1.0000 0.64510  0.38537  0.12971  Biso   1.000  C
  H88      1.0000 0.92777  0.48381  0.05852  Biso   1.000  H
  C81      1.0000 0.91747  0.63747  0.08388  Biso   1.000  C
  H89      1.0000 0.92791  0.78631  0.13548  Biso   1.000  H
  H90      1.0000 0.23852  0.91020  0.50129  Biso   1.000  H
  C82      1.0000 0.08689  0.83389  0.53020  Biso   1.000  C
  H91      1.0000 0.93868  0.72900  0.54219  Biso   1.000  H
  H92      1.0000 0.72620  0.37080  0.12509  Biso   1.000  H
  H93      1.0000 0.57793  0.33973  0.08318  Biso   1.000  H
  C83      1.0000 0.64190  0.49948  0.11818  Biso   1.000  C
  O8       1.0000 0.85458  0.63903  0.00032  Biso   1.000  O
  O9       1.0000 0.07241  0.90777  0.58859  Biso   1.000  O
  H94      1.0000 0.70496  0.54659  0.16610  Biso   1.000  H
  H95      1.0000 0.66119  0.51532  0.06498  Biso   1.000  H
  O10      1.0000 0.51909  0.51564  0.11526  Biso   1.000  O
  C84      1.0000 0.81364  0.73416  0.97673  Biso   1.000  C
  C85      1.0000 0.11977  0.01867  0.58771  Biso   1.000  C
  C86      1.0000 0.49719  0.61513  0.10803  Biso   1.000  C
  H96      1.0000 0.88562  0.78866  0.97521  Biso   1.000  H
  C87      1.0000 0.72110  0.70600  0.89051  Biso   1.000  C
  H97      1.0000 0.77381  0.76176  0.01801  Biso   1.000  H
  H98      1.0000 0.05688  0.05930  0.59652  Biso   1.000  H
  H99      1.0000 0.13062  0.02857  0.53109  Biso   1.000  H
  C88      1.0000 0.23851  0.06098  0.65180  Biso   1.000  C
  C89      1.0000 0.37356  0.62569  0.09459  Biso   1.000  C
  C90      1.0000 0.58872  0.70242  0.11272  Biso   1.000  C
  H100     1.0000 0.65083  0.65103  0.89393  Biso   1.000  H
  H101     1.0000 0.68661  0.76892  0.87441  Biso   1.000  H
  C91      1.0000 0.77110  0.66780  0.82331  Biso   1.000  C
  H102     1.0000 0.30004  0.01743  0.64571  Biso   1.000  H
  H103     1.0000 0.22639  0.05620  0.70867  Biso   1.000  H
  C92      1.0000 0.29134  0.17478  0.64559  Biso   1.000  C
  H104     1.0000 0.31008  0.56569  0.09060  Biso   1.000  H
  C93      1.0000 0.34291  0.72372  0.08698  Biso   1.000  C
  C94      1.0000 0.55530  0.80030  0.10467  Biso   1.000  C
  H105     1.0000 0.67339  0.69591  0.12122  Biso   1.000  H
  H106     1.0000 0.70054  0.65249  0.77062  Biso   1.000  H
  H107     1.0000 0.79237  0.59925  0.83694  Biso   1.000  H
  C95      1.0000 0.88077  0.72814  0.80093  Biso   1.000  C
  H108     1.0000 0.70487  0.62375  0.77544  Biso   1.000  H
  H109     1.0000 0.83831  0.62864  0.84480  Biso   1.000  H
  C96      1.0000 0.82317  0.77704  0.79903  Biso   1.000  C
  H110     1.0000 0.36643  0.20113  0.69460  Biso   1.000  H
  H111     1.0000 0.22829  0.21772  0.64990  Biso   1.000  H
  C97      1.0000 0.32746  0.19180  0.56399  Biso   1.000  C
  H112     1.0000 0.25816  0.73020  0.07830  Biso   1.000  H
  C98      1.0000 0.43359  0.81292  0.09193  Biso   1.000  C
  H113     1.0000 0.61864  0.86032  0.10828  Biso   1.000  H
  H114     1.0000 0.91233  0.68071  0.76549  Biso   1.000  H
  H115     1.0000 0.94936  0.75789  0.85304  Biso   1.000  H
  C99      1.0000 0.83824  0.81641  0.75224  Biso   1.000  C
  C100     1.0000 0.92449  0.77524  0.75458  Biso   1.000  C
  H116     1.0000 0.80364  0.86142  0.78723  Biso   1.000  H
  H117     1.0000 0.75285  0.80212  0.76143  Biso   1.000  H
  H118     1.0000 0.85742  0.82819  0.85120  Biso   1.000  H
  H119     1.0000 0.25501  0.16021  0.51448  Biso   1.000  H
  H120     1.0000 0.34822  0.26830  0.56089  Biso   1.000  H
  C101     1.0000 0.43736  0.14388  0.55930  Biso   1.000  C
  C102     1.0000 0.40281  0.92327  0.08901  Biso   1.000  C
  H121     1.0000 0.77071  0.78566  0.69974  Biso   1.000  H
  C103     1.0000 0.94881  0.88560  0.72859  Biso   1.000  C
  H122     1.0000 0.89547  0.72080  0.70431  Biso   1.000  H
  H123     1.0000 0.00147  0.76060  0.79351  Biso   1.000  H
  H124     1.0000 0.42337  0.07129  0.57407  Biso   1.000  H
  H125     1.0000 0.51338  0.18492  0.60210  Biso   1.000  H
  C104     1.0000 0.46115  0.13990  0.47289  Biso   1.000  C
  H126     1.0000 0.47856  0.97016  0.08248  Biso   1.000  H
  C105     1.0000 0.29563  0.92932  0.01148  Biso   1.000  C
  C106     1.0000 0.38886  0.96436  0.17409  Biso   1.000  C
  H127     1.0000 0.91530  0.91710  0.67660  Biso   1.000  H
  H128     1.0000 0.99664  0.88434  0.68649  Biso   1.000  H
  H129     1.0000 0.86724  0.90321  0.70031  Biso   1.000  H
  H130     1.0000 0.00645  0.84093  0.71699  Biso   1.000  H
  O11      1.0000 0.01509  0.96670  0.79592  Biso   1.000  O
  H131     1.0000 0.46170  0.20973  0.45273  Biso   1.000  H
  H132     1.0000 0.54361  0.12133  0.47688  Biso   1.000  H
  O12      1.0000 0.36354  0.06209  0.41482  Biso   1.000  O
  C107     1.0000 0.20620  0.98874  0.01433  Biso   1.000  C
  C108     1.0000 0.28846  0.88081  0.93172  Biso   1.000  C
  C109     1.0000 0.29200  0.91929  0.20541  Biso   1.000  C
  C110     1.0000 0.47581  0.04685  0.22538  Biso   1.000  C
  C111     1.0000 0.10735  0.94916  0.86420  Biso   1.000  C
  C112     1.0000 0.37695  0.03522  0.33601  Biso   1.000  C
  C113     1.0000 0.11298  0.99746  0.94174  Biso   1.000  C
  H133     1.0000 0.20827  0.02462  0.06720  Biso   1.000  H
  C114     1.0000 0.19564  0.88965  0.85894  Biso   1.000  C
  H134     1.0000 0.34892  0.84023  0.92658  Biso   1.000  H
  H135     1.0000 0.22864  0.86329  0.17111  Biso   1.000  H
  C115     1.0000 0.28593  0.95402  0.28498  Biso   1.000  C
  C116     1.0000 0.47157  0.08314  0.30590  Biso   1.000  C
  H136     1.0000 0.54168  0.08050  0.20509  Biso   1.000  H
  H137     1.0000 0.05212  0.03774  0.94643  Biso   1.000  H
  H138     1.0000 0.19315  0.85465  0.80568  Biso   1.000  H
  H139     1.0000 0.21889  0.92183  0.30469  Biso   1.000  H
  H140     1.0000 0.53348  0.14038  0.33969  Biso   1.000  H
