data_image0
_cell_length_a       12.606
_cell_length_b       30.281
_cell_length_c       10.549
_cell_angle_alpha    90
_cell_angle_beta     100.05
_cell_angle_gamma    90

_symmetry_space_group_name_H-M    "P 1"
_symmetry_int_tables_number       1

loop_
  _symmetry_equiv_pos_as_xyz
  'x, y, z'

loop_
  _atom_site_label
  _atom_site_occupancy
  _atom_site_fract_x
  _atom_site_fract_y
  _atom_site_fract_z
  _atom_site_thermal_displace_type
  _atom_site_B_iso_or_equiv
  _atom_site_type_symbol
  N1       1.0000 0.72440  0.39213  0.74409  Biso   1.000  N
  C1       1.0000 0.61925  0.38559  0.75959  Biso   1.000  C
  C2       1.0000 0.74907  0.37056  0.63107  Biso   1.000  C
  C3       1.0000 0.80037  0.42016  0.82593  Biso   1.000  C
  N2       1.0000 0.57111  0.35940  0.66188  Biso   1.000  N
  O1       1.0000 0.57891  0.39976  0.84836  Biso   1.000  O
  C4       1.0000 0.64266  0.34603  0.57600  Biso   1.000  C
  N3       1.0000 0.76520  0.39962  0.52700  Biso   1.000  N
  H1       1.0000 0.81049  0.34939  0.65350  Biso   1.000  H
  H2       1.0000 0.77581  0.42400  0.90930  Biso   1.000  H
  H3       1.0000 0.87116  0.40511  0.84297  Biso   1.000  H
  N4       1.0000 0.81423  0.46346  0.77201  Biso   1.000  N
  C5       1.0000 0.46259  0.34223  0.65369  Biso   1.000  C
  N5       1.0000 0.61589  0.36303  0.44594  Biso   1.000  N
  H4       1.0000 0.65307  0.31330  0.57667  Biso   1.000  H
  C6       1.0000 0.69243  0.39094  0.41600  Biso   1.000  C
  C7       1.0000 0.86913  0.41914  0.51997  Biso   1.000  C
  C8       1.0000 0.90202  0.47422  0.70501  Biso   1.000  C
  C9       1.0000 0.76622  0.49998  0.81206  Biso   1.000  C
  N6       1.0000 0.38410  0.36303  0.55405  Biso   1.000  N
  H5       1.0000 0.43943  0.34639  0.73793  Biso   1.000  H
  H6       1.0000 0.46335  0.31010  0.63665  Biso   1.000  H
  C10      1.0000 0.53740  0.34223  0.34629  Biso   1.000  C
  O2       1.0000 0.69692  0.40580  0.30981  Biso   1.000  O
  H7       1.0000 0.87891  0.41940  0.42890  Biso   1.000  H
  H8       1.0000 0.92617  0.40018  0.56840  Biso   1.000  H
  N7       1.0000 0.88272  0.46356  0.57013  Biso   1.000  N
  C11      1.0000 0.90202  0.52578  0.70501  Biso   1.000  C
  H9       1.0000 0.97215  0.46201  0.75016  Biso   1.000  H
  N8       1.0000 0.81423  0.53654  0.77201  Biso   1.000  N
  O3       1.0000 0.69257  0.49998  0.87377  Biso   1.000  O
  C12      1.0000 0.35733  0.34603  0.42399  Biso   1.000  C
  C13      1.0000 0.30756  0.39094  0.58399  Biso   1.000  C
  N9       1.0000 0.42888  0.35940  0.33811  Biso   1.000  N
  H10      1.0000 0.56056  0.34639  0.26205  Biso   1.000  H
  H11      1.0000 0.53664  0.31010  0.36333  Biso   1.000  H
  C14      1.0000 0.87029  0.49998  0.49369  Biso   1.000  C
  N10      1.0000 0.88272  0.53644  0.57013  Biso   1.000  N
  H12      1.0000 0.97215  0.53799  0.75016  Biso   1.000  H
  C15      1.0000 0.80037  0.57984  0.82593  Biso   1.000  C
  C16      1.0000 0.25092  0.37056  0.36892  Biso   1.000  C
  H13      1.0000 0.34692  0.31330  0.42331  Biso   1.000  H
  N11      1.0000 0.23479  0.39962  0.47299  Biso   1.000  N
  O4       1.0000 0.30307  0.40580  0.69018  Biso   1.000  O
  C17      1.0000 0.38073  0.38559  0.24039  Biso   1.000  C
  O5       1.0000 0.85599  0.49998  0.37518  Biso   1.000  O
  C18      1.0000 0.86913  0.58086  0.51997  Biso   1.000  C
  H14      1.0000 0.77581  0.57600  0.90930  Biso   1.000  H
  H15      1.0000 0.87116  0.59489  0.84297  Biso   1.000  H
  N12      1.0000 0.72440  0.60787  0.74409  Biso   1.000  N
  H16      1.0000 0.18950  0.34939  0.34649  Biso   1.000  H
  N13      1.0000 0.27559  0.39213  0.25589  Biso   1.000  N
  C19      1.0000 0.13086  0.41914  0.48002  Biso   1.000  C
  O6       1.0000 0.42108  0.39976  0.15163  Biso   1.000  O
  H17      1.0000 0.87891  0.58060  0.42890  Biso   1.000  H
  H18      1.0000 0.92617  0.59982  0.56840  Biso   1.000  H
  N14      1.0000 0.76520  0.60038  0.52700  Biso   1.000  N
  C20      1.0000 0.74907  0.62944  0.63107  Biso   1.000  C
  C21      1.0000 0.61925  0.61441  0.75959  Biso   1.000  C
  C22      1.0000 0.19962  0.42016  0.17406  Biso   1.000  C
  H19      1.0000 0.12108  0.41940  0.57109  Biso   1.000  H
  H20      1.0000 0.07381  0.40018  0.43159  Biso   1.000  H
  N15      1.0000 0.11727  0.46356  0.42986  Biso   1.000  N
  C23      1.0000 0.69243  0.60906  0.41600  Biso   1.000  C
  C24      1.0000 0.64266  0.65397  0.57600  Biso   1.000  C
  H21      1.0000 0.81049  0.65061  0.65350  Biso   1.000  H
  N16      1.0000 0.57111  0.64060  0.66188  Biso   1.000  N
  O7       1.0000 0.57891  0.60024  0.84836  Biso   1.000  O
  H22      1.0000 0.22417  0.42400  0.09069  Biso   1.000  H
  H23      1.0000 0.12883  0.40511  0.15702  Biso   1.000  H
  N17      1.0000 0.18576  0.46346  0.22797  Biso   1.000  N
  C25      1.0000 0.09797  0.47422  0.29498  Biso   1.000  C
  C26      1.0000 0.12970  0.49998  0.50630  Biso   1.000  C
  N18      1.0000 0.61589  0.63697  0.44594  Biso   1.000  N
  O8       1.0000 0.69692  0.59420  0.30981  Biso   1.000  O
  H24      1.0000 0.65307  0.68670  0.57667  Biso   1.000  H
  C27      1.0000 0.46259  0.65777  0.65369  Biso   1.000  C
  C28      1.0000 0.23377  0.49998  0.18792  Biso   1.000  C
  C29      1.0000 0.09797  0.52578  0.29498  Biso   1.000  C
  H25      1.0000 0.02784  0.46201  0.24983  Biso   1.000  H
  N19      1.0000 0.11727  0.53644  0.42986  Biso   1.000  N
  O9       1.0000 0.14400  0.49998  0.62481  Biso   1.000  O
  C30      1.0000 0.53740  0.65777  0.34629  Biso   1.000  C
  N20      1.0000 0.38410  0.63697  0.55405  Biso   1.000  N
  H26      1.0000 0.43943  0.65361  0.73793  Biso   1.000  H
  H27      1.0000 0.46335  0.68990  0.63665  Biso   1.000  H
  N21      1.0000 0.18576  0.53654  0.22797  Biso   1.000  N
  O10      1.0000 0.30742  0.49998  0.12621  Biso   1.000  O
  H28      1.0000 0.02784  0.53799  0.24983  Biso   1.000  H
  C31      1.0000 0.13086  0.58086  0.48002  Biso   1.000  C
  N22      1.0000 0.42888  0.64060  0.33811  Biso   1.000  N
  H29      1.0000 0.56056  0.65361  0.26205  Biso   1.000  H
  H30      1.0000 0.53664  0.68990  0.36333  Biso   1.000  H
  C32      1.0000 0.30756  0.60906  0.58399  Biso   1.000  C
  C33      1.0000 0.35733  0.65397  0.42399  Biso   1.000  C
  C34      1.0000 0.19962  0.57984  0.17406  Biso   1.000  C
  H31      1.0000 0.12108  0.58060  0.57109  Biso   1.000  H
  H32      1.0000 0.07381  0.59982  0.43159  Biso   1.000  H
  N23      1.0000 0.23479  0.60038  0.47299  Biso   1.000  N
  C35      1.0000 0.38073  0.61441  0.24039  Biso   1.000  C
  O11      1.0000 0.30307  0.59420  0.69018  Biso   1.000  O
  C36      1.0000 0.25092  0.62944  0.36892  Biso   1.000  C
  H33      1.0000 0.34692  0.68670  0.42331  Biso   1.000  H
  H34      1.0000 0.22417  0.57600  0.09069  Biso   1.000  H
  H35      1.0000 0.12883  0.59489  0.15702  Biso   1.000  H
  N24      1.0000 0.27559  0.60787  0.25589  Biso   1.000  N
  O12      1.0000 0.42108  0.60024  0.15163  Biso   1.000  O
  H36      1.0000 0.18950  0.65061  0.34649  Biso   1.000  H
  C37      1.0000 0.96259  0.15776  0.65369  Biso   1.000  C
  N25      1.0000 0.88410  0.13698  0.55405  Biso   1.000  N
  H37      1.0000 0.93943  0.15359  0.73793  Biso   1.000  H
  H38      1.0000 0.96335  0.18989  0.63665  Biso   1.000  H
  N26      1.0000 0.07111  0.14062  0.66188  Biso   1.000  N
  C38      1.0000 0.80756  0.10908  0.58399  Biso   1.000  C
  C39      1.0000 0.85733  0.15396  0.42399  Biso   1.000  C
  C40      1.0000 0.11925  0.11443  0.75959  Biso   1.000  C
  C41      1.0000 0.14266  0.15396  0.57600  Biso   1.000  C
  N27      1.0000 0.73479  0.10039  0.47299  Biso   1.000  N
  O13      1.0000 0.80307  0.09418  0.69018  Biso   1.000  O
  C42      1.0000 0.75092  0.12945  0.36892  Biso   1.000  C
  H39      1.0000 0.84692  0.18668  0.42331  Biso   1.000  H
  N28      1.0000 0.92888  0.14062  0.33811  Biso   1.000  N
  N29      1.0000 0.22440  0.10789  0.74409  Biso   1.000  N
  O14      1.0000 0.07891  0.10023  0.84836  Biso   1.000  O
  N30      1.0000 0.11589  0.13698  0.44594  Biso   1.000  N
  C43      1.0000 0.24907  0.12945  0.63107  Biso   1.000  C
  H40      1.0000 0.15307  0.18668  0.57667  Biso   1.000  H
  C44      1.0000 0.63086  0.08088  0.48002  Biso   1.000  C
  H41      1.0000 0.68950  0.15059  0.34649  Biso   1.000  H
  N31      1.0000 0.77559  0.10789  0.25589  Biso   1.000  N
  C45      1.0000 0.88073  0.11443  0.24039  Biso   1.000  C
  C46      1.0000 0.03740  0.15776  0.34629  Biso   1.000  C
  C47      1.0000 0.30037  0.07985  0.82593  Biso   1.000  C
  C48      1.0000 0.19243  0.10908  0.41600  Biso   1.000  C
  H42      1.0000 0.31049  0.15059  0.65350  Biso   1.000  H
  N32      1.0000 0.26520  0.10039  0.52700  Biso   1.000  N
  H43      1.0000 0.62108  0.08061  0.57109  Biso   1.000  H
  H44      1.0000 0.57381  0.09980  0.43159  Biso   1.000  H
  N33      1.0000 0.61727  0.03643  0.42986  Biso   1.000  N
  C49      1.0000 0.69962  0.07985  0.17406  Biso   1.000  C
  O15      1.0000 0.92108  0.10023  0.15163  Biso   1.000  O
  H45      1.0000 0.06056  0.15359  0.26205  Biso   1.000  H
  H46      1.0000 0.03664  0.18989  0.36333  Biso   1.000  H
  H47      1.0000 0.27581  0.07599  0.90930  Biso   1.000  H
  H48      1.0000 0.37116  0.09491  0.84297  Biso   1.000  H
  N34      1.0000 0.31423  0.03652  0.77201  Biso   1.000  N
  O16      1.0000 0.19692  0.09418  0.30981  Biso   1.000  O
  C50      1.0000 0.36913  0.08088  0.51997  Biso   1.000  C
  C51      1.0000 0.62970  0.00000  0.50630  Biso   1.000  C
  C52      1.0000 0.59797  0.02576  0.29498  Biso   1.000  C
  N35      1.0000 0.68576  0.03652  0.22797  Biso   1.000  N
  H49      1.0000 0.72417  0.07599  0.09069  Biso   1.000  H
  H50      1.0000 0.62883  0.09491  0.15702  Biso   1.000  H
  C53      1.0000 0.26622  0.00000  0.81206  Biso   1.000  C
  C54      1.0000 0.40202  0.02576  0.70501  Biso   1.000  C
  H51      1.0000 0.37891  0.08061  0.42890  Biso   1.000  H
  H52      1.0000 0.42617  0.09980  0.56840  Biso   1.000  H
  N36      1.0000 0.38272  0.03643  0.57013  Biso   1.000  N
  O17      1.0000 0.64400  0.00000  0.62481  Biso   1.000  O
  N37      1.0000 0.61727  0.96357  0.42986  Biso   1.000  N
  H53      1.0000 0.52784  0.03801  0.24983  Biso   1.000  H
  C55      1.0000 0.59797  0.97424  0.29498  Biso   1.000  C
  C56      1.0000 0.73377  0.00000  0.18792  Biso   1.000  C
  N38      1.0000 0.31423  0.96348  0.77201  Biso   1.000  N
  O18      1.0000 0.19257  0.00000  0.87377  Biso   1.000  O
  C57      1.0000 0.40202  0.97424  0.70501  Biso   1.000  C
  H54      1.0000 0.47215  0.03801  0.75016  Biso   1.000  H
  C58      1.0000 0.37029  0.00000  0.49369  Biso   1.000  C
  C59      1.0000 0.63086  0.91912  0.48002  Biso   1.000  C
  H55      1.0000 0.52784  0.96199  0.24983  Biso   1.000  H
  N39      1.0000 0.68576  0.96348  0.22797  Biso   1.000  N
  O19      1.0000 0.80742  0.00000  0.12621  Biso   1.000  O
  C60      1.0000 0.30037  0.92015  0.82593  Biso   1.000  C
  H56      1.0000 0.47215  0.96199  0.75016  Biso   1.000  H
  N40      1.0000 0.38272  0.96357  0.57013  Biso   1.000  N
  O20      1.0000 0.35599  0.00000  0.37518  Biso   1.000  O
  H57      1.0000 0.62108  0.91939  0.57109  Biso   1.000  H
  H58      1.0000 0.57381  0.90020  0.43159  Biso   1.000  H
  N41      1.0000 0.73479  0.89961  0.47299  Biso   1.000  N
  C61      1.0000 0.69962  0.92015  0.17406  Biso   1.000  C
  N42      1.0000 0.22440  0.89211  0.74409  Biso   1.000  N
  H59      1.0000 0.27581  0.92401  0.90930  Biso   1.000  H
  H60      1.0000 0.37116  0.90509  0.84297  Biso   1.000  H
  C62      1.0000 0.36913  0.91912  0.51997  Biso   1.000  C
  C63      1.0000 0.80756  0.89092  0.58399  Biso   1.000  C
  C64      1.0000 0.75092  0.87055  0.36892  Biso   1.000  C
  H61      1.0000 0.72417  0.92401  0.09069  Biso   1.000  H
  H62      1.0000 0.62883  0.90509  0.15702  Biso   1.000  H
  N43      1.0000 0.77559  0.89211  0.25589  Biso   1.000  N
  C65      1.0000 0.11925  0.88557  0.75959  Biso   1.000  C
  C66      1.0000 0.24907  0.87055  0.63107  Biso   1.000  C
  N44      1.0000 0.26520  0.89961  0.52700  Biso   1.000  N
  H63      1.0000 0.37891  0.91939  0.42890  Biso   1.000  H
  H64      1.0000 0.42617  0.90020  0.56840  Biso   1.000  H
  N45      1.0000 0.88410  0.86302  0.55405  Biso   1.000  N
  O21      1.0000 0.80307  0.90582  0.69018  Biso   1.000  O
  H65      1.0000 0.68950  0.84941  0.34649  Biso   1.000  H
  C67      1.0000 0.85733  0.84604  0.42399  Biso   1.000  C
  C68      1.0000 0.88073  0.88557  0.24039  Biso   1.000  C
  N46      1.0000 0.07111  0.85938  0.66188  Biso   1.000  N
  O22      1.0000 0.07891  0.89977  0.84836  Biso   1.000  O
  C69      1.0000 0.14266  0.84604  0.57600  Biso   1.000  C
  H66      1.0000 0.31049  0.84941  0.65350  Biso   1.000  H
  C70      1.0000 0.19243  0.89092  0.41600  Biso   1.000  C
  C71      1.0000 0.96259  0.84224  0.65369  Biso   1.000  C
  H67      1.0000 0.84692  0.81332  0.42331  Biso   1.000  H
  N47      1.0000 0.92888  0.85938  0.33811  Biso   1.000  N
  O23      1.0000 0.92108  0.89977  0.15163  Biso   1.000  O
  N48      1.0000 0.11589  0.86302  0.44594  Biso   1.000  N
  H68      1.0000 0.15307  0.81332  0.57667  Biso   1.000  H
  O24      1.0000 0.19692  0.90582  0.30981  Biso   1.000  O
  H69      1.0000 0.93943  0.84641  0.73793  Biso   1.000  H
  H70      1.0000 0.96335  0.81011  0.63665  Biso   1.000  H
  C72      1.0000 0.03740  0.84224  0.34629  Biso   1.000  C
  H71      1.0000 0.06056  0.84641  0.26205  Biso   1.000  H
  H72      1.0000 0.03664  0.81011  0.36333  Biso   1.000  H
  Ne1      1.0000 0.49999  0.50000  0.49999  Biso   1.000  Ne
  He1      1.0000 0.42895  0.50000  0.77324  Biso   1.000  He
  He2      1.0000 0.57022  0.50000  0.23087  Biso   1.000  He
  Ar1      1.0000 0.49999  0.50000  0.49999  Biso   1.000  Ar
  Ne2      1.0000 0.99999  0.00000  0.49999  Biso   1.000  Ne
  He3      1.0000 0.92898  1.00000  0.77325  Biso   1.000  He
  He4      1.0000 0.07019  1.00000  0.23086  Biso   1.000  He
  Ar2      1.0000 0.99999  0.00000  0.49999  Biso   1.000  Ar
