data_image0
_cell_length_a       12.209
_cell_length_b       12.347
_cell_length_c       19.342
_cell_angle_alpha    84.02
_cell_angle_beta     87.96
_cell_angle_gamma    61.29

_symmetry_space_group_name_H-M    "P 1"
_symmetry_int_tables_number       1

loop_
  _symmetry_equiv_pos_as_xyz
  'x, y, z'

loop_
  _atom_site_label
  _atom_site_occupancy
  _atom_site_fract_x
  _atom_site_fract_y
  _atom_site_fract_z
  _atom_site_thermal_displace_type
  _atom_site_B_iso_or_equiv
  _atom_site_type_symbol
  C1       1.0000 0.43491  0.65239  0.42659  Biso   1.000  C
  O1       1.0000 0.41681  0.60877  0.36378  Biso   1.000  O
  H1       1.0000 0.46337  0.71388  0.41468  Biso   1.000  H
  H2       1.0000 0.49771  0.58237  0.45638  Biso   1.000  H
  H3       1.0000 0.35574  0.69076  0.45128  Biso   1.000  H
  C2       1.0000 0.39393  0.51315  0.37028  Biso   1.000  C
  C3       1.0000 0.37639  0.48234  0.30030  Biso   1.000  C
  O2       1.0000 0.38640  0.46214  0.42461  Biso   1.000  O
  O3       1.0000 0.34521  0.38629  0.30820  Biso   1.000  O
  H4       1.0000 0.30890  0.55667  0.27430  Biso   1.000  H
  H5       1.0000 0.45431  0.45622  0.27368  Biso   1.000  H
  C4       1.0000 0.34493  0.33413  0.24820  Biso   1.000  C
  C5       1.0000 0.32324  0.23236  0.25762  Biso   1.000  C
  C6       1.0000 0.36486  0.37672  0.18301  Biso   1.000  C
  C7       1.0000 0.29995  0.18651  0.32921  Biso   1.000  C
  C8       1.0000 0.32428  0.17426  0.19939  Biso   1.000  C
  C9       1.0000 0.36783  0.31736  0.12462  Biso   1.000  C
  H6       1.0000 0.37668  0.44779  0.17750  Biso   1.000  H
  C10      1.0000 0.42143  0.10488  0.36981  Biso   1.000  C
  H7       1.0000 0.25510  0.13873  0.32479  Biso   1.000  H
  H8       1.0000 0.24612  0.25857  0.35510  Biso   1.000  H
  C11      1.0000 0.34681  0.21624  0.13398  Biso   1.000  C
  H9       1.0000 0.30963  0.10501  0.20458  Biso   1.000  H
  C12      1.0000 0.40180  0.36015  0.05568  Biso   1.000  C
  C13      1.0000 0.46485  0.14563  0.41811  Biso   1.000  C
  C14      1.0000 0.49611  0.97324  0.35401  Biso   1.000  C
  O4       1.0000 0.35068  0.16270  0.07346  Biso   1.000  O
  H10      1.0000 0.37740  0.32740  0.01799  Biso   1.000  H
  H11      1.0000 0.35561  0.45203  0.04840  Biso   1.000  H
  C15      1.0000 0.53954  0.31667  0.05298  Biso   1.000  C
  C16      1.0000 0.58283  0.06567  0.45710  Biso   1.000  C
  H12      1.0000 0.41756  0.22974  0.42757  Biso   1.000  H
  O5       1.0000 0.45745  0.92982  0.31397  Biso   1.000  O
  C17      1.0000 0.61739  0.89546  0.39108  Biso   1.000  C
  C18      1.0000 0.33908  0.05400  0.07981  Biso   1.000  C
  C19      1.0000 0.62334  0.20199  0.04149  Biso   1.000  C
  C20      1.0000 0.58473  0.40362  0.06988  Biso   1.000  C
  O6       1.0000 0.61578  0.10466  0.50280  Biso   1.000  O
  C21      1.0000 0.66030  0.93575  0.43938  Biso   1.000  C
  H13      1.0000 0.66729  0.81279  0.37979  Biso   1.000  H
  H14      1.0000 0.32112  0.03868  0.03338  Biso   1.000  H
  H15      1.0000 0.26755  0.06657  0.10991  Biso   1.000  H
  C22      1.0000 0.45251  0.94385  0.10939  Biso   1.000  C
  C23      1.0000 0.75860  0.15807  0.04180  Biso   1.000  C
  H16      1.0000 0.59457  0.14557  0.03260  Biso   1.000  H
  O7       1.0000 0.51079  0.50838  0.08631  Biso   1.000  O
  C24      1.0000 0.71955  0.36142  0.06722  Biso   1.000  C
  C25      1.0000 0.78539  0.85629  0.47712  Biso   1.000  C
  O8       1.0000 0.55377  0.93735  0.11272  Biso   1.000  O
  O9       1.0000 0.42791  0.85409  0.13232  Biso   1.000  O
  O10      1.0000 0.83212  0.05048  0.03088  Biso   1.000  O
  C26      1.0000 0.80338  0.24780  0.05339  Biso   1.000  C
  H17      1.0000 0.74818  0.41819  0.07570  Biso   1.000  H
  C27      1.0000 0.88544  0.87515  0.43740  Biso   1.000  C
  H18      1.0000 0.78037  0.88014  0.52490  Biso   1.000  H
  H19      1.0000 0.80678  0.76774  0.48019  Biso   1.000  H
  C28      1.0000 0.53411  0.73651  0.16840  Biso   1.000  C
  C29      1.0000 0.94178  0.20243  0.05251  Biso   1.000  C
  C30      1.0000 0.97258  0.78501  0.39789  Biso   1.000  C
  C31      1.0000 0.89212  0.98371  0.43969  Biso   1.000  C
  H20      1.0000 0.61011  0.71152  0.14110  Biso   1.000  H
  H21      1.0000 0.51155  0.66983  0.17261  Biso   1.000  H
  H22      1.0000 0.54892  0.75238  0.21477  Biso   1.000  H
  H23      1.0000 0.95739  0.27403  0.04190  Biso   1.000  H
  H24      1.0000 0.97948  0.14652  0.01529  Biso   1.000  H
  C32      1.0000 0.00268  0.13398  0.12140  Biso   1.000  C
  O11      1.0000 0.96245  0.67849  0.39711  Biso   1.000  O
  C33      1.0000 0.06467  0.80471  0.36129  Biso   1.000  C
  C34      1.0000 0.98156  0.00471  0.40407  Biso   1.000  C
  H25      1.0000 0.83329  0.04587  0.46672  Biso   1.000  H
  C35      1.0000 0.06404  0.00506  0.13081  Biso   1.000  C
  C36      1.0000 0.00099  0.19770  0.17760  Biso   1.000  C
  C37      1.0000 0.03845  0.59117  0.35058  Biso   1.000  C
  H26      1.0000 0.12359  0.74251  0.33451  Biso   1.000  H
  C38      1.0000 0.07031  0.91283  0.36399  Biso   1.000  C
  O12      1.0000 0.98819  0.11286  0.40345  Biso   1.000  O
  C39      1.0000 0.11791  0.94069  0.19491  Biso   1.000  C
  H27      1.0000 0.06942  0.95979  0.09291  Biso   1.000  H
  O13      1.0000 0.94217  0.32481  0.16486  Biso   1.000  O
  C40      1.0000 0.05427  0.13270  0.24160  Biso   1.000  C
  H28      1.0000 0.03115  0.51475  0.36129  Biso   1.000  H
  H29      1.0000 0.12667  0.56914  0.35869  Biso   1.000  H
  C41      1.0000 0.00556  0.63654  0.27441  Biso   1.000  C
  C42      1.0000 0.16605  0.93573  0.32229  Biso   1.000  C
  C43      1.0000 0.89079  0.20916  0.43688  Biso   1.000  C
  C44      1.0000 0.11393  0.00466  0.25179  Biso   1.000  C
  O14      1.0000 0.17938  0.81203  0.20599  Biso   1.000  O
  C45      1.0000 0.94257  0.39369  0.21800  Biso   1.000  C
  H30      1.0000 0.04942  0.17808  0.27940  Biso   1.000  H
  O15      1.0000 0.88924  0.72267  0.26307  Biso   1.000  O
  O16      1.0000 0.07851  0.59543  0.22658  Biso   1.000  O
  H31      1.0000 0.19215  0.98487  0.34829  Biso   1.000  H
  H32      1.0000 0.24081  0.85538  0.31611  Biso   1.000  H
  H33      1.0000 0.89161  0.18226  0.48700  Biso   1.000  H
  H34      1.0000 0.80920  0.22871  0.41671  Biso   1.000  H
  C46      1.0000 0.90755  0.32135  0.42809  Biso   1.000  C
  C47      1.0000 0.21150  0.74734  0.14427  Biso   1.000  C
  H35      1.0000 0.91154  0.48046  0.19949  Biso   1.000  H
  H36      1.0000 0.88873  0.38888  0.25559  Biso   1.000  H
  H37      1.0000 0.02799  0.35974  0.23609  Biso   1.000  H
  C48      1.0000 0.86280  0.76744  0.18509  Biso   1.000  C
  O17      1.0000 0.99041  0.33203  0.39752  Biso   1.000  O
  O18      1.0000 0.81436  0.41091  0.45939  Biso   1.000  O
  H38      1.0000 0.23260  0.79436  0.10721  Biso   1.000  H
  H39      1.0000 0.14034  0.73910  0.12930  Biso   1.000  H
  H40      1.0000 0.28353  0.66482  0.15452  Biso   1.000  H
  H41      1.0000 0.92838  0.70644  0.15779  Biso   1.000  H
  H42      1.0000 0.86170  0.84749  0.17578  Biso   1.000  H
  H43      1.0000 0.78156  0.77683  0.17219  Biso   1.000  H
  C49      1.0000 0.81483  0.52949  0.45778  Biso   1.000  C
  H44      1.0000 0.80055  0.56901  0.40990  Biso   1.000  H
  H45      1.0000 0.89589  0.51493  0.47478  Biso   1.000  H
  H46      1.0000 0.74853  0.58379  0.48742  Biso   1.000  H
  C50      1.0000 0.56514  0.34738  0.57341  Biso   1.000  C
  O19      1.0000 0.58328  0.39110  0.63621  Biso   1.000  O
  H47      1.0000 0.53663  0.28598  0.58531  Biso   1.000  H
  H48      1.0000 0.50237  0.41749  0.54362  Biso   1.000  H
  H49      1.0000 0.64435  0.30910  0.54871  Biso   1.000  H
  C51      1.0000 0.60616  0.48672  0.62971  Biso   1.000  C
  C52      1.0000 0.62361  0.51752  0.69969  Biso   1.000  C
  O20      1.0000 0.61360  0.53772  0.57538  Biso   1.000  O
  O21      1.0000 0.65488  0.61358  0.69179  Biso   1.000  O
  H50      1.0000 0.69119  0.44319  0.72569  Biso   1.000  H
  H51      1.0000 0.54574  0.54355  0.72631  Biso   1.000  H
  C53      1.0000 0.65520  0.66564  0.75179  Biso   1.000  C
  C54      1.0000 0.67685  0.76750  0.74238  Biso   1.000  C
  C55      1.0000 0.63527  0.62305  0.81699  Biso   1.000  C
  C56      1.0000 0.70019  0.81325  0.67079  Biso   1.000  C
  C57      1.0000 0.67573  0.82560  0.80061  Biso   1.000  C
  C58      1.0000 0.63225  0.68251  0.87537  Biso   1.000  C
  H52      1.0000 0.62333  0.55207  0.82250  Biso   1.000  H
  C59      1.0000 0.57866  0.89498  0.63018  Biso   1.000  C
  H53      1.0000 0.74495  0.86104  0.67521  Biso   1.000  H
  H54      1.0000 0.75397  0.74129  0.64490  Biso   1.000  H
  C60      1.0000 0.65324  0.78353  0.86601  Biso   1.000  C
  H55      1.0000 0.69045  0.89486  0.79541  Biso   1.000  H
  C61      1.0000 0.59825  0.63962  0.94431  Biso   1.000  C
  C62      1.0000 0.53524  0.85423  0.58188  Biso   1.000  C
  C63      1.0000 0.50390  0.02663  0.64599  Biso   1.000  C
  O22      1.0000 0.64933  0.83716  0.92653  Biso   1.000  O
  C64      1.0000 0.46055  0.68319  0.94702  Biso   1.000  C
  H56      1.0000 0.62269  0.67246  0.98201  Biso   1.000  H
  H57      1.0000 0.64448  0.54783  0.95159  Biso   1.000  H
  C65      1.0000 0.41726  0.93419  0.54289  Biso   1.000  C
  H58      1.0000 0.58253  0.77012  0.57242  Biso   1.000  H
  C66      1.0000 0.38261  0.10440  0.60892  Biso   1.000  C
  O23      1.0000 0.54268  0.06995  0.68602  Biso   1.000  O
  C67      1.0000 0.66093  0.94586  0.92019  Biso   1.000  C
  C68      1.0000 0.37674  0.79788  0.95851  Biso   1.000  C
  C69      1.0000 0.41536  0.59624  0.93012  Biso   1.000  C
  C70      1.0000 0.33971  0.06411  0.56062  Biso   1.000  C
  O24      1.0000 0.38423  0.89520  0.49719  Biso   1.000  O
  H59      1.0000 0.33272  0.18708  0.62020  Biso   1.000  H
  H60      1.0000 0.67897  0.96118  0.96662  Biso   1.000  H
  H61      1.0000 0.73254  0.93329  0.89009  Biso   1.000  H
  C71      1.0000 0.54754  0.05592  0.89061  Biso   1.000  C
  C72      1.0000 0.24141  0.84179  0.95819  Biso   1.000  C
  H62      1.0000 0.40543  0.85429  0.96740  Biso   1.000  H
  C73      1.0000 0.28046  0.63843  0.93282  Biso   1.000  C
  O25      1.0000 0.48921  0.49148  0.91374  Biso   1.000  O
  C74      1.0000 0.21474  0.14348  0.52287  Biso   1.000  C
  O26      1.0000 0.44636  0.06242  0.88728  Biso   1.000  O
  O27      1.0000 0.57218  0.14577  0.86768  Biso   1.000  O
  C75      1.0000 0.19663  0.75206  0.94660  Biso   1.000  C
  O28      1.0000 0.16797  0.94938  0.96911  Biso   1.000  O
  H63      1.0000 0.25183  0.58167  0.92430  Biso   1.000  H
  C76      1.0000 0.11465  0.12471  0.56259  Biso   1.000  C
  H64      1.0000 0.21972  0.11973  0.47509  Biso   1.000  H
  H65      1.0000 0.19331  0.23212  0.51981  Biso   1.000  H
  C77      1.0000 0.46598  0.26336  0.83160  Biso   1.000  C
  C78      1.0000 0.05831  0.79743  0.94748  Biso   1.000  C
  C79      1.0000 0.10789  0.01615  0.56031  Biso   1.000  C
  C80      1.0000 0.02756  0.21476  0.60211  Biso   1.000  C
  H66      1.0000 0.38998  0.28834  0.85889  Biso   1.000  H
  H67      1.0000 0.48859  0.32994  0.82738  Biso   1.000  H
  H68      1.0000 0.45117  0.24748  0.78522  Biso   1.000  H
  C81      1.0000 0.99732  0.86588  0.87860  Biso   1.000  C
  H69      1.0000 0.04270  0.72583  0.95809  Biso   1.000  H
  H70      1.0000 0.02053  0.85334  0.98471  Biso   1.000  H
  C82      1.0000 0.01858  0.99506  0.59592  Biso   1.000  C
  H71      1.0000 0.16672  0.95399  0.53332  Biso   1.000  H
  C83      1.0000 0.93546  0.19506  0.63871  Biso   1.000  C
  O29      1.0000 0.03761  0.32128  0.60289  Biso   1.000  O
  C84      1.0000 0.99910  0.80216  0.82239  Biso   1.000  C
  C85      1.0000 0.93604  0.99480  0.86919  Biso   1.000  C
  O30      1.0000 0.01182  0.88700  0.59654  Biso   1.000  O
  C86      1.0000 0.92970  0.08704  0.63601  Biso   1.000  C
  H72      1.0000 0.87654  0.25726  0.66548  Biso   1.000  H
  C87      1.0000 0.96164  0.40869  0.64942  Biso   1.000  C
  C88      1.0000 0.94574  0.86716  0.75839  Biso   1.000  C
  O31      1.0000 0.05784  0.67505  0.83513  Biso   1.000  O
  C89      1.0000 0.88218  0.05918  0.80508  Biso   1.000  C
  H73      1.0000 0.93067  0.04007  0.90709  Biso   1.000  H
  C90      1.0000 0.10922  0.79070  0.56311  Biso   1.000  C
  C91      1.0000 0.83404  0.06413  0.67770  Biso   1.000  C
  H74      1.0000 0.96893  0.48511  0.63871  Biso   1.000  H
  H75      1.0000 0.87342  0.43072  0.64131  Biso   1.000  H
  C92      1.0000 0.99453  0.36333  0.72559  Biso   1.000  C
  C93      1.0000 0.88616  0.99520  0.74820  Biso   1.000  C
  H76      1.0000 0.95067  0.82178  0.72059  Biso   1.000  H
  C94      1.0000 0.05744  0.60617  0.78200  Biso   1.000  C
  O32      1.0000 0.82075  0.18774  0.79401  Biso   1.000  O
  C95      1.0000 0.09254  0.67852  0.57190  Biso   1.000  C
  H77      1.0000 0.10848  0.81760  0.51299  Biso   1.000  H
  H78      1.0000 0.19081  0.77115  0.58329  Biso   1.000  H
  H79      1.0000 0.80794  0.01499  0.65171  Biso   1.000  H
  H80      1.0000 0.75928  0.14448  0.68389  Biso   1.000  H
  O33      1.0000 0.92154  0.40434  0.77342  Biso   1.000  O
  O34      1.0000 0.11085  0.27719  0.73692  Biso   1.000  O
  H81      1.0000 0.08855  0.51941  0.80051  Biso   1.000  H
  H82      1.0000 0.11136  0.61099  0.74441  Biso   1.000  H
  H83      1.0000 0.97206  0.64003  0.76390  Biso   1.000  H
  C96      1.0000 0.78855  0.25243  0.85572  Biso   1.000  C
  O35      1.0000 0.18573  0.58895  0.54060  Biso   1.000  O
  O36      1.0000 0.00960  0.66782  0.60252  Biso   1.000  O
  C97      1.0000 0.13725  0.23233  0.81491  Biso   1.000  C
  H84      1.0000 0.76740  0.20550  0.89279  Biso   1.000  H
  H85      1.0000 0.85975  0.26076  0.87069  Biso   1.000  H
  H86      1.0000 0.71656  0.33505  0.84548  Biso   1.000  H
  C98      1.0000 0.18522  0.47028  0.54221  Biso   1.000  C
  H87      1.0000 0.07176  0.29333  0.84220  Biso   1.000  H
  H88      1.0000 0.13830  0.15237  0.82421  Biso   1.000  H
  H89      1.0000 0.21857  0.22294  0.82780  Biso   1.000  H
  H90      1.0000 0.19954  0.43085  0.59010  Biso   1.000  H
  H91      1.0000 0.10412  0.48493  0.52521  Biso   1.000  H
  H92      1.0000 0.25148  0.41607  0.51258  Biso   1.000  H
