data_image0
_cell_length_a       11.762
_cell_length_b       11.93
_cell_length_c       12.641
_cell_angle_alpha    88.78
_cell_angle_beta     87.45
_cell_angle_gamma    75.42

_symmetry_space_group_name_H-M    "P 1"
_symmetry_int_tables_number       1

loop_
  _symmetry_equiv_pos_as_xyz
  'x, y, z'

loop_
  _atom_site_label
  _atom_site_occupancy
  _atom_site_fract_x
  _atom_site_fract_y
  _atom_site_fract_z
  _atom_site_thermal_displace_type
  _atom_site_B_iso_or_equiv
  _atom_site_type_symbol
  N1       1.0000 0.53314  0.31848  0.26458  Biso   1.000  N
  C1       1.0000 0.56277  0.35243  0.15878  Biso   1.000  C
  C2       1.0000 0.57522  0.20334  0.29807  Biso   1.000  C
  C3       1.0000 0.52151  0.39610  0.35461  Biso   1.000  C
  H1       1.0000 0.60180  0.28350  0.11950  Biso   1.000  H
  H2       1.0000 0.61786  0.40028  0.16289  Biso   1.000  H
  N2       1.0000 0.46088  0.41641  0.10057  Biso   1.000  N
  N3       1.0000 0.56992  0.20124  0.40577  Biso   1.000  N
  O1       1.0000 0.61417  0.12182  0.23884  Biso   1.000  O
  H3       1.0000 0.58277  0.43883  0.35121  Biso   1.000  H
  C4       1.0000 0.53426  0.31419  0.45059  Biso   1.000  C
  N4       1.0000 0.40604  0.47313  0.36681  Biso   1.000  N
  C5       1.0000 0.43703  0.37201  0.00618  Biso   1.000  C
  C6       1.0000 0.40752  0.53956  0.10920  Biso   1.000  C
  C7       1.0000 0.60580  0.09520  0.46873  Biso   1.000  C
  H4       1.0000 0.59214  0.32784  0.49898  Biso   1.000  H
  N5       1.0000 0.41420  0.34517  0.49898  Biso   1.000  N
  C8       1.0000 0.36832  0.57962  0.30963  Biso   1.000  C
  C9       1.0000 0.34471  0.44501  0.45527  Biso   1.000  C
  N6       1.0000 0.35008  0.45612  0.96001  Biso   1.000  N
  O2       1.0000 0.48476  0.27853  0.97117  Biso   1.000  O
  C10      1.0000 0.31574  0.56520  0.01750  Biso   1.000  C
  C11      1.0000 0.49874  0.60988  0.10184  Biso   1.000  C
  N7       1.0000 0.32889  0.56947  0.20526  Biso   1.000  N
  H5       1.0000 0.66004  0.03732  0.42597  Biso   1.000  H
  H6       1.0000 0.64768  0.11106  0.52883  Biso   1.000  H
  N8       1.0000 0.51085  0.04800  0.50721  Biso   1.000  N
  C12      1.0000 0.38746  0.30386  0.60494  Biso   1.000  C
  H7       1.0000 0.43302  0.61667  0.30377  Biso   1.000  H
  H8       1.0000 0.30479  0.63034  0.35042  Biso   1.000  H
  O3       1.0000 0.24975  0.49902  0.48860  Biso   1.000  O
  C13      1.0000 0.30099  0.43282  0.86118  Biso   1.000  C
  N9       1.0000 0.20342  0.58176  0.07689  Biso   1.000  N
  C14      1.0000 0.32211  0.66701  0.94528  Biso   1.000  C
  H9       1.0000 0.46027  0.69070  0.10841  Biso   1.000  H
  H10      1.0000 0.54102  0.59670  0.03469  Biso   1.000  H
  H11      1.0000 0.55262  0.58681  0.15783  Biso   1.000  H
  C15      1.0000 0.21449  0.59285  0.18269  Biso   1.000  C
  C16      1.0000 0.43851  0.08097  0.60826  Biso   1.000  C
  C17      1.0000 0.48443  0.95721  0.46350  Biso   1.000  C
  H12      1.0000 0.45561  0.29497  0.64762  Biso   1.000  H
  H13      1.0000 0.32341  0.36168  0.63812  Biso   1.000  H
  N10      1.0000 0.35506  0.19501  0.60303  Biso   1.000  N
  H14      1.0000 0.28245  0.50363  0.81929  Biso   1.000  H
  H15      1.0000 0.36063  0.37646  0.82158  Biso   1.000  H
  N11      1.0000 0.19754  0.39050  0.87345  Biso   1.000  N
  C18      1.0000 0.09009  0.61185  0.02819  Biso   1.000  C
  H16      1.0000 0.39723  0.65116  0.90798  Biso   1.000  H
  H17      1.0000 0.31215  0.73548  0.98701  Biso   1.000  H
  H18      1.0000 0.26090  0.67902  0.89531  Biso   1.000  H
  O4       1.0000 0.13149  0.62164  0.24802  Biso   1.000  O
  C19      1.0000 0.52168  0.06995  0.70044  Biso   1.000  C
  C20      1.0000 0.35668  0.99606  0.61080  Biso   1.000  C
  N12      1.0000 0.39254  0.92902  0.51236  Biso   1.000  N
  O5       1.0000 0.54326  0.90249  0.38589  Biso   1.000  O
  C21      1.0000 0.24433  0.18595  0.60771  Biso   1.000  C
  C22      1.0000 0.19834  0.27707  0.86308  Biso   1.000  C
  C23      1.0000 0.07867  0.46527  0.88692  Biso   1.000  C
  H19      1.0000 0.03176  0.65466  0.07887  Biso   1.000  H
  H20      1.0000 0.09437  0.66294  0.96817  Biso   1.000  H
  N13      1.0000 0.05143  0.51551  0.99279  Biso   1.000  N
  H21      1.0000 0.47648  0.08185  0.76609  Biso   1.000  H
  H22      1.0000 0.56616  0.12704  0.69220  Biso   1.000  H
  H23      1.0000 0.57429  0.99408  0.70044  Biso   1.000  H
  N14      1.0000 0.23895  0.07621  0.60731  Biso   1.000  N
  C24      1.0000 0.36553  0.91337  0.70741  Biso   1.000  C
  C25      1.0000 0.34846  0.83422  0.47886  Biso   1.000  C
  O6       1.0000 0.15611  0.27153  0.61420  Biso   1.000  O
  N15      1.0000 0.08370  0.26753  0.87931  Biso   1.000  N
  O7       1.0000 0.28525  0.19816  0.84146  Biso   1.000  O
  C26      1.0000 0.00097  0.37868  0.88517  Biso   1.000  C
  H24      1.0000 0.06035  0.52394  0.83045  Biso   1.000  H
  C27      1.0000 0.96214  0.48062  0.04443  Biso   1.000  C
  C28      1.0000 0.12797  0.04306  0.60533  Biso   1.000  C
  H25      1.0000 0.44298  0.86235  0.70780  Biso   1.000  H
  H26      1.0000 0.30854  0.86864  0.70313  Biso   1.000  H
  H27      1.0000 0.35054  0.95776  0.77124  Biso   1.000  H
  H28      1.0000 0.32843  0.79340  0.54127  Biso   1.000  H
  H29      1.0000 0.41084  0.78080  0.43927  Biso   1.000  H
  N16      1.0000 0.24702  0.86630  0.41440  Biso   1.000  N
  C29      1.0000 0.05479  0.15812  0.86609  Biso   1.000  C
  H30      1.0000 0.94995  0.39271  0.82459  Biso   1.000  H
  N17      1.0000 0.93355  0.39902  0.98456  Biso   1.000  N
  O8       1.0000 0.91708  0.51559  0.12963  Biso   1.000  O
  H31      1.0000 0.06606  0.10464  0.63614  Biso   1.000  H
  N18      1.0000 0.09649  0.02000  0.50151  Biso   1.000  N
  H32      1.0000 0.13332  0.97431  0.64912  Biso   1.000  H
  C30      1.0000 0.25512  0.86705  0.30322  Biso   1.000  C
  C31      1.0000 0.12898  0.90334  0.45566  Biso   1.000  C
  H33      1.0000 0.98882  0.16999  0.82032  Biso   1.000  H
  H34      1.0000 0.12122  0.10500  0.83085  Biso   1.000  H
  N19      1.0000 0.02550  0.10504  0.96381  Biso   1.000  N
  C32      1.0000 0.83865  0.34714  0.01473  Biso   1.000  C
  C33      1.0000 0.99894  0.08913  0.45487  Biso   1.000  C
  N20      1.0000 0.14082  0.91014  0.26941  Biso   1.000  N
  O9       1.0000 0.34333  0.83312  0.24874  Biso   1.000  O
  H35      1.0000 0.10964  0.84596  0.50508  Biso   1.000  H
  C34      1.0000 0.05352  0.91825  0.35572  Biso   1.000  C
  C35      1.0000 0.10648  0.02080  0.01441  Biso   1.000  C
  C36      1.0000 0.90933  0.12524  0.01481  Biso   1.000  C
  H36      1.0000 0.79847  0.33756  0.95138  Biso   1.000  H
  H37      1.0000 0.78274  0.40041  0.06026  Biso   1.000  H
  N21      1.0000 0.87141  0.23862  0.06739  Biso   1.000  N
  N22      1.0000 0.97600  0.03339  0.36808  Biso   1.000  N
  O10      1.0000 0.94188  0.18431  0.48567  Biso   1.000  O
  C37      1.0000 0.11601  0.88513  0.16091  Biso   1.000  C
  H38      1.0000 0.00994  0.85853  0.35192  Biso   1.000  H
  O11      1.0000 0.20862  0.98210  0.98210  Biso   1.000  O
  N23      1.0000 0.05578  0.98540  0.10263  Biso   1.000  N
  C38      1.0000 0.81501  0.11114  0.93799  Biso   1.000  C
  C39      1.0000 0.92867  0.03571  0.11150  Biso   1.000  C
  C40      1.0000 0.85717  0.22759  0.17683  Biso   1.000  C
  C41      1.0000 0.87083  0.07313  0.30876  Biso   1.000  C
  H39      1.0000 0.18964  0.84988  0.12330  Biso   1.000  H
  H40      1.0000 0.06851  0.82924  0.16361  Biso   1.000  H
  H41      1.0000 0.73995  0.12474  0.97529  Biso   1.000  H
  H42      1.0000 0.83578  0.03394  0.91036  Biso   1.000  H
  H43      1.0000 0.81073  0.16593  0.88058  Biso   1.000  H
  C42      1.0000 0.85940  0.94639  0.10627  Biso   1.000  C
  N24      1.0000 0.89233  0.11271  0.20249  Biso   1.000  N
  O12      1.0000 0.81873  0.30725  0.23900  Biso   1.000  O
  H44      1.0000 0.81735  0.13592  0.34693  Biso   1.000  H
  H45      1.0000 0.83246  0.01038  0.30472  Biso   1.000  H
  H46      1.0000 0.88606  0.89867  0.04538  Biso   1.000  H
  H47      1.0000 0.77756  0.98421  0.10097  Biso   1.000  H
  H48      1.0000 0.87045  0.89898  0.16923  Biso   1.000  H
  Ne1      1.0000 0.22363  0.22613  0.23976  Biso   1.000  Ne
  He1      1.0000 0.03179  0.40290  0.36114  Biso   1.000  He
  He2      1.0000 0.42485  0.03121  0.10781  Biso   1.000  He
  Ar1      1.0000 0.21034  0.23832  0.23708  Biso   1.000  Ar
