data_image0
_cell_length_a       11.347
_cell_length_b       14.262
_cell_length_c       19.943
_cell_angle_alpha    107.08
_cell_angle_beta     100.65
_cell_angle_gamma    100.24

_symmetry_space_group_name_H-M    "P 1"
_symmetry_int_tables_number       1

loop_
  _symmetry_equiv_pos_as_xyz
  'x, y, z'

loop_
  _atom_site_label
  _atom_site_occupancy
  _atom_site_fract_x
  _atom_site_fract_y
  _atom_site_fract_z
  _atom_site_thermal_displace_type
  _atom_site_B_iso_or_equiv
  _atom_site_type_symbol
  C1       1.0000 0.52490  0.43190  0.64439  Biso   1.000  C
  C2       1.0000 0.46863  0.45224  0.70733  Biso   1.000  C
  O1       1.0000 0.65643  0.46298  0.66846  Biso   1.000  O
  H1       1.0000 0.49536  0.46910  0.61252  Biso   1.000  H
  H2       1.0000 0.49877  0.35870  0.61594  Biso   1.000  H
  O2       1.0000 0.50178  0.39169  0.74982  Biso   1.000  O
  H3       1.0000 0.37742  0.43613  0.68993  Biso   1.000  H
  H4       1.0000 0.49812  0.52471  0.73741  Biso   1.000  H
  C3       1.0000 0.71131  0.44453  0.60862  Biso   1.000  C
  C4       1.0000 0.42611  0.38932  0.79904  Biso   1.000  C
  C5       1.0000 0.84884  0.47700  0.63502  Biso   1.000  C
  H5       1.0000 0.68548  0.37150  0.57962  Biso   1.000  H
  H6       1.0000 0.68272  0.48242  0.57702  Biso   1.000  H
  C6       1.0000 0.46046  0.32389  0.84100  Biso   1.000  C
  H7       1.0000 0.43682  0.45877  0.83254  Biso   1.000  H
  H8       1.0000 0.33800  0.36293  0.77194  Biso   1.000  H
  O3       1.0000 0.88999  0.41408  0.67339  Biso   1.000  O
  H9       1.0000 0.87464  0.54850  0.66743  Biso   1.000  H
  H10      1.0000 0.88644  0.47143  0.59344  Biso   1.000  H
  O4       1.0000 0.42894  0.22220  0.79140  Biso   1.000  O
  H11      1.0000 0.41497  0.32823  0.87921  Biso   1.000  H
  H12      1.0000 0.55033  0.34576  0.86441  Biso   1.000  H
  C7       1.0000 0.02146  0.43413  0.69264  Biso   1.000  C
  C8       1.0000 0.44821  0.14755  0.81850  Biso   1.000  C
  C9       1.0000 0.05972  0.36539  0.73183  Biso   1.000  C
  H13      1.0000 0.07629  0.48339  0.68212  Biso   1.000  H
  C10      1.0000 0.40262  0.04850  0.76907  Biso   1.000  C
  C11      1.0000 0.51027  0.16423  0.88984  Biso   1.000  C
  O5       1.0000 0.02152  0.26400  0.68180  Biso   1.000  O
  H14      1.0000 0.02038  0.37049  0.77270  Biso   1.000  H
  H15      1.0000 0.15059  0.38493  0.75150  Biso   1.000  H
  C12      1.0000 0.32847  0.03184  0.69415  Biso   1.000  C
  C13      1.0000 0.42090  0.96820  0.79189  Biso   1.000  C
  H16      1.0000 0.54141  0.23126  0.92334  Biso   1.000  H
  C14      1.0000 0.52649  0.08257  0.91157  Biso   1.000  C
  C15      1.0000 0.03877  0.18892  0.70949  Biso   1.000  C
  O6       1.0000 0.41079  0.06453  0.65106  Biso   1.000  O
  H17      1.0000 0.26448  0.07087  0.69714  Biso   1.000  H
  H18      1.0000 0.28632  0.95912  0.67003  Biso   1.000  H
  C16      1.0000 0.48310  0.98478  0.86317  Biso   1.000  C
  H19      1.0000 0.39083  0.90092  0.75860  Biso   1.000  H
  H20      1.0000 0.56786  0.09393  0.96030  Biso   1.000  H
  C17      1.0000 0.98981  0.08985  0.66109  Biso   1.000  C
  C18      1.0000 0.10205  0.20545  0.78007  Biso   1.000  C
  C19      1.0000 0.36105  0.10533  0.60309  Biso   1.000  C
  O7       1.0000 0.50353  0.90951  0.89076  Biso   1.000  O
  C20      1.0000 0.92936  0.07193  0.58363  Biso   1.000  C
  C21      1.0000 0.00246  0.00886  0.68440  Biso   1.000  C
  H21      1.0000 0.13626  0.27253  0.81292  Biso   1.000  H
  C22      1.0000 0.11549  0.12380  0.80273  Biso   1.000  C
  C23      1.0000 0.44563  0.12781  0.55799  Biso   1.000  C
  O8       1.0000 0.25912  0.12033  0.59561  Biso   1.000  O
  C24      1.0000 0.45905  0.80769  0.84284  Biso   1.000  C
  O9       1.0000 0.80633  0.09172  0.57816  Biso   1.000  O
  H22      1.0000 0.92206  0.00104  0.55403  Biso   1.000  H
  H23      1.0000 0.98060  0.11704  0.56493  Biso   1.000  H
  H24      1.0000 0.96823  0.94160  0.65160  Biso   1.000  H
  C25      1.0000 0.06526  0.02490  0.75573  Biso   1.000  C
  H25      1.0000 0.15968  0.13581  0.85103  Biso   1.000  H
  C26      1.0000 0.39853  0.15610  0.50042  Biso   1.000  C
  C27      1.0000 0.56567  0.11444  0.56666  Biso   1.000  C
  C28      1.0000 0.49051  0.73873  0.88322  Biso   1.000  C
  H26      1.0000 0.36816  0.79213  0.82360  Biso   1.000  H
  H27      1.0000 0.49763  0.79799  0.80143  Biso   1.000  H
  C29      1.0000 0.76205  0.12114  0.52254  Biso   1.000  C
  O10      1.0000 0.08607  0.95032  0.78267  Biso   1.000  O
  N1       1.0000 0.46286  0.17508  0.45289  Biso   1.000  N
  H28      1.0000 0.31574  0.16292  0.49343  Biso   1.000  H
  C30      1.0000 0.63471  0.13534  0.51956  Biso   1.000  C
  H29      1.0000 0.59985  0.09133  0.60423  Biso   1.000  H
  O11      1.0000 0.62145  0.75301  0.90263  Biso   1.000  O
  H30      1.0000 0.43230  0.69255  0.89423  Biso   1.000  H
  O12      1.0000 0.81733  0.13202  0.47793  Biso   1.000  O
  C31      1.0000 0.04210  0.84842  0.73340  Biso   1.000  C
  C32      1.0000 0.57844  0.16370  0.46411  Biso   1.000  C
  C33      1.0000 0.65616  0.67965  0.93244  Biso   1.000  C
  H31      1.0000 0.95098  0.83176  0.71529  Biso   1.000  H
  H32      1.0000 0.07889  0.84054  0.69144  Biso   1.000  H
  C34      1.0000 0.07780  0.77869  0.77243  Biso   1.000  C
  H33      1.0000 0.62511  0.17609  0.43131  Biso   1.000  H
  C35      1.0000 0.79322  0.70581  0.95982  Biso   1.000  C
  H34      1.0000 0.61673  0.67828  0.97261  Biso   1.000  H
  H35      1.0000 0.62759  0.61161  0.89482  Biso   1.000  H
  O13      1.0000 0.01203  0.78111  0.82712  Biso   1.000  O
  H36      1.0000 0.13537  0.73902  0.76235  Biso   1.000  H
  O14      1.0000 0.84988  0.69905  0.90122  Biso   1.000  O
  H37      1.0000 0.81723  0.65871  0.98475  Biso   1.000  H
  H38      1.0000 0.82192  0.77540  0.99543  Biso   1.000  H
  C36      1.0000 0.03511  0.70807  0.86051  Biso   1.000  C
  C37      1.0000 0.98140  0.72314  0.92464  Biso   1.000  C
  H39      1.0000 0.99724  0.63904  0.82533  Biso   1.000  H
  H40      1.0000 0.12527  0.71569  0.87591  Biso   1.000  H
  H41      1.0000 0.02781  0.74524  0.97364  Biso   1.000  H
  C38      1.0000 0.47527  0.56811  0.35559  Biso   1.000  C
  O15      1.0000 0.34376  0.53705  0.33157  Biso   1.000  O
  H42      1.0000 0.50484  0.53093  0.38751  Biso   1.000  H
  H43      1.0000 0.50143  0.64133  0.38410  Biso   1.000  H
  C39      1.0000 0.53157  0.54779  0.29271  Biso   1.000  C
  C40      1.0000 0.28889  0.55550  0.39142  Biso   1.000  C
  O16      1.0000 0.49840  0.60831  0.25016  Biso   1.000  O
  H44      1.0000 0.62278  0.56390  0.31011  Biso   1.000  H
  H45      1.0000 0.50208  0.47532  0.26263  Biso   1.000  H
  C41      1.0000 0.15135  0.52303  0.36502  Biso   1.000  C
  H46      1.0000 0.31472  0.62853  0.42042  Biso   1.000  H
  H47      1.0000 0.31748  0.51761  0.42302  Biso   1.000  H
  C42      1.0000 0.57409  0.61071  0.20099  Biso   1.000  C
  O17      1.0000 0.11020  0.58595  0.32664  Biso   1.000  O
  H48      1.0000 0.12555  0.45153  0.33260  Biso   1.000  H
  H49      1.0000 0.11375  0.52860  0.40659  Biso   1.000  H
  H50      1.0000 0.56338  0.54126  0.16749  Biso   1.000  H
  H51      1.0000 0.66220  0.63710  0.22810  Biso   1.000  H
  C43      1.0000 0.53972  0.67612  0.15898  Biso   1.000  C
  C44      1.0000 0.97865  0.56590  0.30740  Biso   1.000  C
  O18      1.0000 0.57123  0.77781  0.20858  Biso   1.000  O
  H52      1.0000 0.58523  0.67180  0.12082  Biso   1.000  H
  H53      1.0000 0.44989  0.65434  0.13562  Biso   1.000  H
  C45      1.0000 0.94047  0.63464  0.26821  Biso   1.000  C
  H54      1.0000 0.92391  0.51664  0.31791  Biso   1.000  H
  C46      1.0000 0.55199  0.85248  0.18153  Biso   1.000  C
  O19      1.0000 0.97868  0.73603  0.31824  Biso   1.000  O
  H55      1.0000 0.97980  0.62952  0.22728  Biso   1.000  H
  H56      1.0000 0.84961  0.61510  0.24853  Biso   1.000  H
  C47      1.0000 0.48993  0.83580  0.11020  Biso   1.000  C
  C48      1.0000 0.59749  0.95153  0.23097  Biso   1.000  C
  C49      1.0000 0.96140  0.81109  0.29049  Biso   1.000  C
  H57      1.0000 0.45878  0.76877  0.07670  Biso   1.000  H
  C50      1.0000 0.47371  0.91746  0.08846  Biso   1.000  C
  C51      1.0000 0.67173  0.96819  0.30588  Biso   1.000  C
  C52      1.0000 0.57929  0.03183  0.20815  Biso   1.000  C
  C53      1.0000 0.01039  0.91017  0.33895  Biso   1.000  C
  C54      1.0000 0.89812  0.79455  0.21991  Biso   1.000  C
  H58      1.0000 0.43232  0.90607  0.03968  Biso   1.000  H
  C55      1.0000 0.51710  0.01525  0.13687  Biso   1.000  C
  O20      1.0000 0.58941  0.93550  0.34897  Biso   1.000  O
  H59      1.0000 0.73571  0.92916  0.30290  Biso   1.000  H
  H60      1.0000 0.71388  0.04091  0.33000  Biso   1.000  H
  H61      1.0000 0.60937  0.09911  0.24143  Biso   1.000  H
  C56      1.0000 0.07084  0.92810  0.41641  Biso   1.000  C
  C57      1.0000 0.99774  0.99117  0.31564  Biso   1.000  C
  H62      1.0000 0.86394  0.72750  0.18712  Biso   1.000  H
  C58      1.0000 0.88469  0.87621  0.19725  Biso   1.000  C
  O21      1.0000 0.49666  0.09052  0.10928  Biso   1.000  O
  C59      1.0000 0.63912  0.89468  0.39689  Biso   1.000  C
  O22      1.0000 0.19378  0.90831  0.42188  Biso   1.000  O
  H63      1.0000 0.07814  0.99899  0.44600  Biso   1.000  H
  H64      1.0000 0.01960  0.88298  0.43511  Biso   1.000  H
  C60      1.0000 0.93494  0.97513  0.24430  Biso   1.000  C
  H65      1.0000 0.03197  0.05843  0.34843  Biso   1.000  H
  H66      1.0000 0.84051  0.86422  0.14901  Biso   1.000  H
  C61      1.0000 0.54115  0.19234  0.15720  Biso   1.000  C
  O23      1.0000 0.74099  0.87970  0.40443  Biso   1.000  O
  C62      1.0000 0.55456  0.87222  0.44205  Biso   1.000  C
  C63      1.0000 0.23814  0.87889  0.47750  Biso   1.000  C
  O24      1.0000 0.91403  0.04971  0.21736  Biso   1.000  O
  C64      1.0000 0.50968  0.26130  0.11681  Biso   1.000  C
  H67      1.0000 0.63193  0.20787  0.17638  Biso   1.000  H
  H68      1.0000 0.50257  0.20204  0.19861  Biso   1.000  H
  C65      1.0000 0.43453  0.88559  0.43337  Biso   1.000  C
  C66      1.0000 0.60166  0.84393  0.49961  Biso   1.000  C
  O25      1.0000 0.18278  0.86801  0.52211  Biso   1.000  O
  C67      1.0000 0.36549  0.86469  0.48048  Biso   1.000  C
  C68      1.0000 0.95807  0.15158  0.26658  Biso   1.000  C
  O26      1.0000 0.37875  0.24701  0.09741  Biso   1.000  O
  H69      1.0000 0.56791  0.30755  0.10581  Biso   1.000  H
  H70      1.0000 0.40034  0.90870  0.39581  Biso   1.000  H
  N2       1.0000 0.53734  0.82495  0.54715  Biso   1.000  N
  H71      1.0000 0.68446  0.83711  0.50660  Biso   1.000  H
  C69      1.0000 0.42176  0.83633  0.53593  Biso   1.000  C
  H72      1.0000 0.92131  0.15949  0.30859  Biso   1.000  H
  C70      1.0000 0.92240  0.22134  0.22761  Biso   1.000  C
  H73      1.0000 0.04919  0.16824  0.28469  Biso   1.000  H
  C71      1.0000 0.34404  0.32038  0.06759  Biso   1.000  C
  H74      1.0000 0.37500  0.82394  0.56872  Biso   1.000  H
  O27      1.0000 0.98817  0.21892  0.17292  Biso   1.000  O
  H75      1.0000 0.86483  0.26101  0.23769  Biso   1.000  H
  C72      1.0000 0.20698  0.29422  0.04022  Biso   1.000  C
  H76      1.0000 0.38345  0.32172  0.02737  Biso   1.000  H
  H77      1.0000 0.37261  0.38842  0.10521  Biso   1.000  H
  C73      1.0000 0.96509  0.29196  0.13952  Biso   1.000  C
  O28      1.0000 0.15023  0.30098  0.09882  Biso   1.000  O
  H78      1.0000 0.18296  0.34132  0.01529  Biso   1.000  H
  H79      1.0000 0.17828  0.22463  0.00461  Biso   1.000  H
  H80      1.0000 0.87490  0.28431  0.12408  Biso   1.000  H
  H81      1.0000 0.00295  0.36098  0.17470  Biso   1.000  H
  C74      1.0000 0.01880  0.27689  0.07540  Biso   1.000  C
  H82      1.0000 0.97239  0.25479  0.02640  Biso   1.000  H
  Ne1      1.0000 0.29816  0.90720  0.27508  Biso   1.000  Ne
  He1      1.0000 0.21574  0.06939  0.17773  Biso   1.000  He
  He2      1.0000 0.13642  0.99519  0.08639  Biso   1.000  He
  Ar1      1.0000 0.24456  0.91467  0.21443  Biso   1.000  Ar
  Ne2      1.0000 0.70202  0.09283  0.72495  Biso   1.000  Ne
  He3      1.0000 0.00000  0.00000  0.00000  Biso   1.000  He
  He4      1.0000 0.81641  0.96164  0.86034  Biso   1.000  He
  Ar2      1.0000 0.75583  0.08533  0.78603  Biso   1.000  Ar
