data_image0
_cell_length_a       11.114
_cell_length_b       14.361
_cell_length_c       20.183
_cell_angle_alpha    108.27
_cell_angle_beta     98.44
_cell_angle_gamma    101.24

_symmetry_space_group_name_H-M    "P 1"
_symmetry_int_tables_number       1

loop_
  _symmetry_equiv_pos_as_xyz
  'x, y, z'

loop_
  _atom_site_label
  _atom_site_occupancy
  _atom_site_fract_x
  _atom_site_fract_y
  _atom_site_fract_z
  _atom_site_thermal_displace_type
  _atom_site_B_iso_or_equiv
  _atom_site_type_symbol
  C1       1.0000 0.44469  0.55591  0.58912  Biso   1.000  C
  O1       1.0000 0.31956  0.57451  0.58345  Biso   1.000  O
  H1       1.0000 0.49877  0.60053  0.57060  Biso   1.000  H
  H2       1.0000 0.43835  0.48448  0.56027  Biso   1.000  H
  C2       1.0000 0.50109  0.57691  0.66609  Biso   1.000  C
  C3       1.0000 0.28863  0.61898  0.53747  Biso   1.000  C
  C4       1.0000 0.51544  0.49828  0.68959  Biso   1.000  C
  C5       1.0000 0.54446  0.67725  0.71373  Biso   1.000  C
  O2       1.0000 0.35738  0.64468  0.50139  Biso   1.000  O
  C6       1.0000 0.15820  0.63433  0.53254  Biso   1.000  C
  H3       1.0000 0.48509  0.43022  0.65726  Biso   1.000  H
  C7       1.0000 0.57394  0.51793  0.75987  Biso   1.000  C
  O3       1.0000 0.52535  0.75021  0.68584  Biso   1.000  O
  C8       1.0000 0.60254  0.69684  0.78417  Biso   1.000  C
  N1       1.0000 0.08773  0.60584  0.57526  Biso   1.000  N
  C9       1.0000 0.11691  0.67672  0.48340  Biso   1.000  C
  O4       1.0000 0.59347  0.44322  0.78626  Biso   1.000  O
  C10      1.0000 0.61701  0.61765  0.80698  Biso   1.000  C
  C11      1.0000 0.57496  0.85331  0.73204  Biso   1.000  C
  H4       1.0000 0.63249  0.76482  0.81677  Biso   1.000  H
  C12      1.0000 0.97138  0.61963  0.56760  Biso   1.000  C
  H5       1.0000 0.16989  0.69559  0.45439  Biso   1.000  H
  C13      1.0000 0.99771  0.69080  0.47762  Biso   1.000  C
  C14      1.0000 0.56202  0.34106  0.73611  Biso   1.000  C
  H6       1.0000 0.65685  0.63148  0.85526  Biso   1.000  H
  H7       1.0000 0.66710  0.86734  0.74917  Biso   1.000  H
  H8       1.0000 0.53646  0.86663  0.77416  Biso   1.000  H
  C15      1.0000 0.54700  0.92050  0.69189  Biso   1.000  C
  C16      1.0000 0.92272  0.66081  0.51932  Biso   1.000  C
  C17      1.0000 0.88651  0.58743  0.61214  Biso   1.000  C
  H9       1.0000 0.96754  0.72109  0.44519  Biso   1.000  H
  C18      1.0000 0.60175  0.27606  0.77609  Biso   1.000  C
  H10      1.0000 0.60655  0.33774  0.69666  Biso   1.000  H
  H11      1.0000 0.47039  0.31723  0.71528  Biso   1.000  H
  O5       1.0000 0.41412  0.90794  0.67514  Biso   1.000  O
  H12      1.0000 0.58980  0.99219  0.72128  Biso   1.000  H
  H13      1.0000 0.57820  0.90270  0.64720  Biso   1.000  H
  H14      1.0000 0.83907  0.66812  0.51520  Biso   1.000  H
  O6       1.0000 0.93799  0.55144  0.65903  Biso   1.000  O
  O7       1.0000 0.77918  0.59255  0.60293  Biso   1.000  O
  O8       1.0000 0.53020  0.27640  0.83005  Biso   1.000  O
  H15      1.0000 0.58740  0.20573  0.74248  Biso   1.000  H
  H16      1.0000 0.69263  0.30245  0.79879  Biso   1.000  H
  C19      1.0000 0.38082  0.97672  0.64217  Biso   1.000  C
  C20      1.0000 0.85320  0.51624  0.70024  Biso   1.000  C
  C21      1.0000 0.55354  0.20550  0.86275  Biso   1.000  C
  H17      1.0000 0.42048  0.97223  0.60079  Biso   1.000  H
  C22      1.0000 0.24166  0.94983  0.61776  Biso   1.000  C
  H18      1.0000 0.41102  0.04713  0.67680  Biso   1.000  H
  C23      1.0000 0.92311  0.53646  0.77465  Biso   1.000  C
  H19      1.0000 0.81446  0.44253  0.67621  Biso   1.000  H
  H20      1.0000 0.78486  0.55140  0.70228  Biso   1.000  H
  C24      1.0000 0.49955  0.22121  0.92757  Biso   1.000  C
  H21      1.0000 0.64529  0.21412  0.87645  Biso   1.000  H
  H22      1.0000 0.51526  0.13573  0.82828  Biso   1.000  H
  O9       1.0000 0.18508  0.96452  0.67755  Biso   1.000  O
  H23      1.0000 0.21766  0.99279  0.59078  Biso   1.000  H
  H24      1.0000 0.21128  0.87812  0.58537  Biso   1.000  H
  C25      1.0000 0.96739  0.63661  0.82319  Biso   1.000  C
  C26      1.0000 0.93660  0.45683  0.79857  Biso   1.000  C
  O10      1.0000 0.36682  0.20018  0.90723  Biso   1.000  O
  H25      1.0000 0.52268  0.17584  0.95257  Biso   1.000  H
  H26      1.0000 0.53421  0.29225  0.96076  Biso   1.000  H
  C27      1.0000 0.05185  0.93282  0.65560  Biso   1.000  C
  C28      1.0000 0.02333  0.65496  0.89385  Biso   1.000  C
  O11      1.0000 0.95131  0.71018  0.79595  Biso   1.000  O
  C29      1.0000 0.99176  0.47609  0.86950  Biso   1.000  C
  H27      1.0000 0.90765  0.38886  0.76597  Biso   1.000  H
  C30      1.0000 0.31200  0.21738  0.96820  Biso   1.000  C
  H28      1.0000 0.02560  0.86032  0.62461  Biso   1.000  H
  H29      1.0000 0.02221  0.97253  0.62739  Biso   1.000  H
  C31      1.0000 0.99381  0.94720  0.71860  Biso   1.000  C
  H30      1.0000 0.05379  0.72262  0.92666  Biso   1.000  H
  C32      1.0000 0.03501  0.57541  0.91665  Biso   1.000  C
  C33      1.0000 0.98368  0.81232  0.84519  Biso   1.000  C
  O12      1.0000 0.00499  0.40165  0.89797  Biso   1.000  O
  C34      1.0000 0.17309  0.18853  0.94486  Biso   1.000  C
  H31      1.0000 0.34161  0.28984  0.99898  Biso   1.000  H
  H32      1.0000 0.33843  0.17662  0.99646  Biso   1.000  H
  O13      1.0000 0.02348  0.88120  0.75489  Biso   1.000  O
  H33      1.0000 0.90135  0.93267  0.70276  Biso   1.000  H
  H34      1.0000 0.02545  0.01854  0.75168  Biso   1.000  H
  H35      1.0000 0.07308  0.58879  0.96515  Biso   1.000  H
  H36      1.0000 0.07516  0.83503  0.86650  Biso   1.000  H
  C35      1.0000 0.94775  0.87743  0.80516  Biso   1.000  C
  H37      1.0000 0.93818  0.81680  0.88427  Biso   1.000  H
  C36      1.0000 0.96991  0.30003  0.84990  Biso   1.000  C
  O14      1.0000 0.13563  0.25438  0.91055  Biso   1.000  O
  H38      1.0000 0.14370  0.11738  0.91130  Biso   1.000  H
  H39      1.0000 0.13488  0.19384  0.98688  Biso   1.000  H
  H40      1.0000 0.85809  0.84995  0.78000  Biso   1.000  H
  H41      1.0000 0.95838  0.94684  0.83920  Biso   1.000  H
  H42      1.0000 0.01518  0.29350  0.81056  Biso   1.000  H
  C37      1.0000 0.00240  0.23391  0.89048  Biso   1.000  C
  H43      1.0000 0.87832  0.27933  0.82865  Biso   1.000  H
  H44      1.0000 0.96683  0.24776  0.93368  Biso   1.000  H
  H45      1.0000 0.96640  0.16162  0.86018  Biso   1.000  H
  C38      1.0000 0.55527  0.44410  0.41087  Biso   1.000  C
  C39      1.0000 0.49887  0.42310  0.33390  Biso   1.000  C
  O15      1.0000 0.68040  0.42554  0.41650  Biso   1.000  O
  H46      1.0000 0.50121  0.39955  0.42940  Biso   1.000  H
  H47      1.0000 0.56159  0.51551  0.43967  Biso   1.000  H
  C40      1.0000 0.45552  0.32283  0.28626  Biso   1.000  C
  C41      1.0000 0.48450  0.50170  0.31035  Biso   1.000  C
  C42      1.0000 0.71131  0.38101  0.46248  Biso   1.000  C
  C43      1.0000 0.39744  0.30324  0.21582  Biso   1.000  C
  O16      1.0000 0.47461  0.24984  0.31410  Biso   1.000  O
  C44      1.0000 0.42602  0.48208  0.24012  Biso   1.000  C
  H48      1.0000 0.51487  0.56983  0.34268  Biso   1.000  H
  O17      1.0000 0.64259  0.35533  0.49861  Biso   1.000  O
  C45      1.0000 0.84178  0.36575  0.46745  Biso   1.000  C
  C46      1.0000 0.38288  0.38243  0.19302  Biso   1.000  C
  H49      1.0000 0.36746  0.23517  0.18317  Biso   1.000  H
  C47      1.0000 0.42500  0.14670  0.26796  Biso   1.000  C
  O18      1.0000 0.40649  0.55679  0.21373  Biso   1.000  O
  N2       1.0000 0.91221  0.39414  0.42468  Biso   1.000  N
  C48      1.0000 0.88305  0.32333  0.51654  Biso   1.000  C
  H50      1.0000 0.34309  0.36850  0.14468  Biso   1.000  H
  H51      1.0000 0.33286  0.13272  0.25077  Biso   1.000  H
  H52      1.0000 0.46350  0.13343  0.22578  Biso   1.000  H
  C49      1.0000 0.45297  0.07951  0.30810  Biso   1.000  C
  C50      1.0000 0.43796  0.65902  0.26389  Biso   1.000  C
  C51      1.0000 0.02858  0.38038  0.43239  Biso   1.000  C
  H53      1.0000 0.83007  0.30442  0.54560  Biso   1.000  H
  C52      1.0000 0.00223  0.30918  0.52232  Biso   1.000  C
  O19      1.0000 0.58582  0.09205  0.32480  Biso   1.000  O
  H54      1.0000 0.41016  0.00782  0.27872  Biso   1.000  H
  H55      1.0000 0.42176  0.09731  0.35280  Biso   1.000  H
  C53      1.0000 0.39823  0.72402  0.22390  Biso   1.000  C
  H56      1.0000 0.39341  0.66231  0.30329  Biso   1.000  H
  H57      1.0000 0.52957  0.68278  0.28471  Biso   1.000  H
  C54      1.0000 0.07724  0.33920  0.48067  Biso   1.000  C
  C55      1.0000 0.11345  0.41262  0.38780  Biso   1.000  C
  H58      1.0000 0.03242  0.27892  0.55481  Biso   1.000  H
  C56      1.0000 0.61915  0.02329  0.35783  Biso   1.000  C
  O20      1.0000 0.46975  0.72358  0.16990  Biso   1.000  O
  H59      1.0000 0.41256  0.79428  0.25752  Biso   1.000  H
  H60      1.0000 0.30735  0.69763  0.20121  Biso   1.000  H
  H61      1.0000 0.16089  0.33189  0.48480  Biso   1.000  H
  O21      1.0000 0.06195  0.44854  0.34091  Biso   1.000  O
  O22      1.0000 0.22080  0.40753  0.39706  Biso   1.000  O
  H62      1.0000 0.57950  0.02785  0.39921  Biso   1.000  H
  C57      1.0000 0.75830  0.05023  0.38218  Biso   1.000  C
  H63      1.0000 0.58885  0.95287  0.32320  Biso   1.000  H
  C58      1.0000 0.44641  0.79449  0.13719  Biso   1.000  C
  C59      1.0000 0.14676  0.48381  0.29970  Biso   1.000  C
  O23      1.0000 0.81488  0.03549  0.32245  Biso   1.000  O
  H64      1.0000 0.78230  0.00722  0.40922  Biso   1.000  H
  H65      1.0000 0.78868  0.12193  0.41457  Biso   1.000  H
  C60      1.0000 0.50041  0.77880  0.07242  Biso   1.000  C
  H66      1.0000 0.35465  0.78586  0.12349  Biso   1.000  H
  H67      1.0000 0.48470  0.86428  0.17172  Biso   1.000  H
  C61      1.0000 0.07687  0.46362  0.22535  Biso   1.000  C
  H68      1.0000 0.18550  0.55748  0.32379  Biso   1.000  H
  H69      1.0000 0.21511  0.44861  0.29772  Biso   1.000  H
  C62      1.0000 0.94811  0.06724  0.34434  Biso   1.000  C
  O24      1.0000 0.63314  0.79987  0.09271  Biso   1.000  O
  H70      1.0000 0.47728  0.82417  0.04743  Biso   1.000  H
  H71      1.0000 0.46575  0.70781  0.03918  Biso   1.000  H
  C63      1.0000 0.03257  0.36340  0.17680  Biso   1.000  C
  C64      1.0000 0.06336  0.54318  0.20142  Biso   1.000  C
  H72      1.0000 0.97436  0.13969  0.37539  Biso   1.000  H
  H73      1.0000 0.97777  0.02755  0.37260  Biso   1.000  H
  C65      1.0000 0.00616  0.05281  0.28139  Biso   1.000  C
  C66      1.0000 0.68798  0.78271  0.03180  Biso   1.000  C
  O25      1.0000 0.04866  0.28983  0.20405  Biso   1.000  O
  C67      1.0000 0.97665  0.34512  0.10614  Biso   1.000  C
  C68      1.0000 0.00818  0.52389  0.13045  Biso   1.000  C
  H74      1.0000 0.09231  0.61120  0.23397  Biso   1.000  H
  O26      1.0000 0.97648  0.11885  0.24505  Biso   1.000  O
  H75      1.0000 0.97451  0.98147  0.24831  Biso   1.000  H
  H76      1.0000 0.09859  0.06731  0.29718  Biso   1.000  H
  C69      1.0000 0.82685  0.81145  0.05508  Biso   1.000  C
  H77      1.0000 0.65835  0.71017  0.00102  Biso   1.000  H
  H78      1.0000 0.66152  0.82336  0.00348  Biso   1.000  H
  C70      1.0000 0.01628  0.18769  0.15480  Biso   1.000  C
  H79      1.0000 0.94615  0.27737  0.07328  Biso   1.000  H
  C71      1.0000 0.96493  0.42457  0.08329  Biso   1.000  C
  O27      1.0000 0.99496  0.59833  0.10197  Biso   1.000  O
  C72      1.0000 0.05221  0.12262  0.19479  Biso   1.000  C
  O28      1.0000 0.86433  0.74563  0.08944  Biso   1.000  O
  H80      1.0000 0.85628  0.88271  0.08869  Biso   1.000  H
  H81      1.0000 0.86508  0.80617  0.01311  Biso   1.000  H
  H82      1.0000 0.92480  0.16498  0.13350  Biso   1.000  H
  H83      1.0000 0.06176  0.18319  0.11567  Biso   1.000  H
  H84      1.0000 0.92686  0.41120  0.03479  Biso   1.000  H
  C73      1.0000 0.03005  0.69998  0.15009  Biso   1.000  C
  H85      1.0000 0.14189  0.15013  0.22000  Biso   1.000  H
  H86      1.0000 0.04158  0.05317  0.16080  Biso   1.000  H
  C74      1.0000 0.99756  0.76610  0.10952  Biso   1.000  C
  H87      1.0000 0.98476  0.70648  0.18938  Biso   1.000  H
  H88      1.0000 0.12164  0.72073  0.17129  Biso   1.000  H
  H89      1.0000 0.03315  0.75232  0.06632  Biso   1.000  H
  H90      1.0000 0.03356  0.83839  0.13981  Biso   1.000  H
