data_image0
_cell_length_a       13.239
_cell_length_b       16.731
_cell_length_c       18.274
_cell_angle_alpha    65.84
_cell_angle_beta     79.7
_cell_angle_gamma    89.32

_symmetry_space_group_name_H-M    "P 1"
_symmetry_int_tables_number       1

loop_
  _symmetry_equiv_pos_as_xyz
  'x, y, z'

loop_
  _atom_site_label
  _atom_site_occupancy
  _atom_site_fract_x
  _atom_site_fract_y
  _atom_site_fract_z
  _atom_site_thermal_displace_type
  _atom_site_B_iso_or_equiv
  _atom_site_type_symbol
  C1       1.0000 0.57258  0.56644  0.38106  Biso   1.000  C
  C2       1.0000 0.60147  0.52956  0.32717  Biso   1.000  C
  H1       1.0000 0.51086  0.55124  0.42090  Biso   1.000  H
  C3       1.0000 0.64970  0.63091  0.36768  Biso   1.000  C
  C4       1.0000 0.54391  0.46054  0.31330  Biso   1.000  C
  N1       1.0000 0.69493  0.57105  0.28080  Biso   1.000  N
  C5       1.0000 0.72468  0.63373  0.30518  Biso   1.000  C
  H2       1.0000 0.64920  0.66624  0.39725  Biso   1.000  H
  C6       1.0000 0.50093  0.38656  0.39737  Biso   1.000  C
  C7       1.0000 0.61242  0.42463  0.25978  Biso   1.000  C
  C8       1.0000 0.45529  0.50473  0.26999  Biso   1.000  C
  H3       1.0000 0.73063  0.55931  0.24121  Biso   1.000  H
  C9       1.0000 0.82808  0.68633  0.26956  Biso   1.000  C
  C10      1.0000 0.44305  0.30924  0.39450  Biso   1.000  C
  H4       1.0000 0.45367  0.41155  0.42976  Biso   1.000  H
  H5       1.0000 0.55865  0.36391  0.42627  Biso   1.000  H
  N2       1.0000 0.69134  0.37381  0.28587  Biso   1.000  N
  C11      1.0000 0.60631  0.42794  0.18488  Biso   1.000  C
  H6       1.0000 0.41825  0.46234  0.25832  Biso   1.000  H
  H7       1.0000 0.40785  0.52510  0.30548  Biso   1.000  H
  H8       1.0000 0.48345  0.55493  0.21867  Biso   1.000  H
  C12      1.0000 0.91143  0.63054  0.30616  Biso   1.000  C
  C13      1.0000 0.82094  0.76553  0.29308  Biso   1.000  C
  C14      1.0000 0.85154  0.72271  0.17688  Biso   1.000  C
  H9       1.0000 0.48943  0.28495  0.36108  Biso   1.000  H
  H10      1.0000 0.38382  0.33125  0.36719  Biso   1.000  H
  C15      1.0000 0.40374  0.23593  0.47869  Biso   1.000  C
  H11      1.0000 0.71077  0.36143  0.33279  Biso   1.000  H
  C16      1.0000 0.73656  0.34462  0.22746  Biso   1.000  C
  C17      1.0000 0.68483  0.37814  0.16447  Biso   1.000  C
  H12      1.0000 0.55810  0.45820  0.15219  Biso   1.000  H
  N3       1.0000 0.94727  0.56192  0.28722  Biso   1.000  N
  C18      1.0000 0.95946  0.62941  0.36689  Biso   1.000  C
  H13      1.0000 0.88545  0.80245  0.26907  Biso   1.000  H
  H14      1.0000 0.76389  0.80003  0.27237  Biso   1.000  H
  H15      1.0000 0.80896  0.74421  0.35271  Biso   1.000  H
  H16      1.0000 0.85072  0.67420  0.15989  Biso   1.000  H
  H17      1.0000 0.79935  0.76301  0.15482  Biso   1.000  H
  H18      1.0000 0.91955  0.75434  0.15616  Biso   1.000  H
  H19      1.0000 0.36335  0.19066  0.47216  Biso   1.000  H
  H20      1.0000 0.35663  0.26034  0.51169  Biso   1.000  H
  C19      1.0000 0.48815  0.19215  0.52525  Biso   1.000  C
  C20      1.0000 0.82628  0.28642  0.23871  Biso   1.000  C
  H21      1.0000 0.69881  0.36959  0.11541  Biso   1.000  H
  H22      1.0000 0.92881  0.54873  0.24928  Biso   1.000  H
  C21      1.0000 0.01585  0.51701  0.33591  Biso   1.000  C
  H23      1.0000 0.95047  0.66916  0.39230  Biso   1.000  H
  C22      1.0000 0.02456  0.55911  0.38558  Biso   1.000  C
  H24      1.0000 0.52471  0.23553  0.53698  Biso   1.000  H
  H25      1.0000 0.53866  0.17129  0.49110  Biso   1.000  H
  C23      1.0000 0.44412  0.11577  0.60425  Biso   1.000  C
  C24      1.0000 0.92431  0.33784  0.23290  Biso   1.000  C
  C25      1.0000 0.84535  0.25475  0.16948  Biso   1.000  C
  C26      1.0000 0.80232  0.20570  0.32021  Biso   1.000  C
  C27      1.0000 0.07289  0.44042  0.32950  Biso   1.000  C
  H26      1.0000 0.06709  0.54357  0.42536  Biso   1.000  H
  O1       1.0000 0.52575  0.07623  0.64744  Biso   1.000  O
  H27      1.0000 0.40846  0.07163  0.59288  Biso   1.000  H
  H28      1.0000 0.39334  0.13612  0.63858  Biso   1.000  H
  N4       1.0000 0.93826  0.36371  0.29326  Biso   1.000  N
  C28      1.0000 0.00990  0.36752  0.17382  Biso   1.000  C
  H29      1.0000 0.86014  0.30560  0.11657  Biso   1.000  H
  H30      1.0000 0.90402  0.21795  0.17547  Biso   1.000  H
  H31      1.0000 0.78394  0.22060  0.17248  Biso   1.000  H
  H32      1.0000 0.73940  0.17354  0.32277  Biso   1.000  H
  H33      1.0000 0.85974  0.16750  0.32491  Biso   1.000  H
  H34      1.0000 0.79230  0.22443  0.36518  Biso   1.000  H
  C29      1.0000 0.03307  0.40902  0.27176  Biso   1.000  C
  C30      1.0000 0.06095  0.36535  0.41576  Biso   1.000  C
  C31      1.0000 0.18797  0.47087  0.29626  Biso   1.000  C
  C32      1.0000 0.48584  0.00692  0.72278  Biso   1.000  C
  H35      1.0000 0.89345  0.35296  0.33866  Biso   1.000  H
  C33      1.0000 0.07868  0.41154  0.19850  Biso   1.000  C
  H36      1.0000 0.02195  0.36012  0.12421  Biso   1.000  H
  H37      1.0000 0.98651  0.35072  0.43886  Biso   1.000  H
  C34      1.0000 0.11117  0.28073  0.42096  Biso   1.000  C
  H38      1.0000 0.09033  0.38715  0.45089  Biso   1.000  H
  H39      1.0000 0.21513  0.48811  0.33451  Biso   1.000  H
  H40      1.0000 0.22584  0.42251  0.29021  Biso   1.000  H
  H41      1.0000 0.19576  0.52104  0.24298  Biso   1.000  H
  C35      1.0000 0.45476  0.02601  0.79059  Biso   1.000  C
  C36      1.0000 0.47782  0.92323  0.72669  Biso   1.000  C
  H42      1.0000 0.14491  0.43813  0.16881  Biso   1.000  H
  C37      1.0000 0.10047  0.21046  0.50747  Biso   1.000  C
  H43      1.0000 0.18514  0.29504  0.39646  Biso   1.000  H
  H44      1.0000 0.07964  0.25696  0.38827  Biso   1.000  H
  C38      1.0000 0.47125  0.11715  0.78619  Biso   1.000  C
  C39      1.0000 0.40660  0.95787  0.86195  Biso   1.000  C
  C40      1.0000 0.42825  0.85703  0.80269  Biso   1.000  C
  C41      1.0000 0.51807  0.90335  0.65447  Biso   1.000  C
  C42      1.0000 0.99051  0.17424  0.54938  Biso   1.000  C
  H45      1.0000 0.14204  0.16135  0.50606  Biso   1.000  H
  H46      1.0000 0.12960  0.23515  0.54065  Biso   1.000  H
  C43      1.0000 0.57994  0.15936  0.76224  Biso   1.000  C
  H47      1.0000 0.43074  0.15665  0.74685  Biso   1.000  H
  H48      1.0000 0.44119  0.11555  0.84045  Biso   1.000  H
  C44      1.0000 0.39067  0.87725  0.86837  Biso   1.000  C
  H49      1.0000 0.38370  0.96957  0.90875  Biso   1.000  H
  H50      1.0000 0.42100  0.79817  0.80843  Biso   1.000  H
  H51      1.0000 0.50370  0.83984  0.67066  Biso   1.000  H
  H52      1.0000 0.47908  0.93543  0.61097  Biso   1.000  H
  C45      1.0000 0.63172  0.92573  0.61867  Biso   1.000  C
  C46      1.0000 0.98904  0.09720  0.63040  Biso   1.000  C
  H53      1.0000 0.95786  0.15530  0.51389  Biso   1.000  H
  H54      1.0000 0.95044  0.22084  0.55830  Biso   1.000  H
  C47      1.0000 0.66444  0.11443  0.79017  Biso   1.000  C
  C48      1.0000 0.59437  0.24916  0.71544  Biso   1.000  C
  H55      1.0000 0.35369  0.83336  0.91774  Biso   1.000  H
  C49      1.0000 0.70817  0.89334  0.66528  Biso   1.000  C
  C50      1.0000 0.66169  0.98047  0.53765  Biso   1.000  C
  O2       1.0000 0.88380  0.06433  0.66950  Biso   1.000  O
  H56      1.0000 0.02198  0.11594  0.66596  Biso   1.000  H
  H57      1.0000 0.02832  0.05025  0.62160  Biso   1.000  H
  O3       1.0000 0.65297  0.02294  0.83391  Biso   1.000  O
  C51      1.0000 0.76199  0.15647  0.77184  Biso   1.000  C
  H58      1.0000 0.53779  0.28113  0.69638  Biso   1.000  H
  C52      1.0000 0.68959  0.29254  0.69638  Biso   1.000  C
  O4       1.0000 0.67957  0.83835  0.74685  Biso   1.000  O
  C53      1.0000 0.81237  0.91866  0.63174  Biso   1.000  C
  C54      1.0000 0.76364  0.00340  0.50209  Biso   1.000  C
  H59      1.0000 0.61066  0.00294  0.50527  Biso   1.000  H
  C55      1.0000 0.87959  0.99736  0.74697  Biso   1.000  C
  C56      1.0000 0.62188  0.99323  0.92006  Biso   1.000  C
  C57      1.0000 0.77246  0.24684  0.72455  Biso   1.000  C
  C58      1.0000 0.85442  0.11157  0.80465  Biso   1.000  C
  H60      1.0000 0.69839  0.35404  0.66376  Biso   1.000  H
  C59      1.0000 0.67109  0.74748  0.76194  Biso   1.000  C
  C60      1.0000 0.83948  0.97233  0.55018  Biso   1.000  C
  C61      1.0000 0.89378  0.88616  0.68398  Biso   1.000  C
  H61      1.0000 0.78281  0.04001  0.44546  Biso   1.000  H
  C62      1.0000 0.86826  0.01764  0.81399  Biso   1.000  C
  C63      1.0000 0.88609  0.91041  0.75620  Biso   1.000  C
  H62      1.0000 0.67485  0.01165  0.94303  Biso   1.000  H
  H63      1.0000 0.55629  0.01785  0.93338  Biso   1.000  H
  C64      1.0000 0.60864  0.89395  0.95433  Biso   1.000  C
  H64      1.0000 0.83769  0.27752  0.71147  Biso   1.000  H
  H65      1.0000 0.91686  0.14783  0.76829  Biso   1.000  H
  H66      1.0000 0.85174  0.11204  0.85896  Biso   1.000  H
  H67      1.0000 0.61895  0.73714  0.73359  Biso   1.000  H
  H68      1.0000 0.73794  0.72945  0.74159  Biso   1.000  H
  C65      1.0000 0.63996  0.69562  0.85206  Biso   1.000  C
  H69      1.0000 0.90996  0.98877  0.52586  Biso   1.000  H
  H70      1.0000 0.89126  0.82122  0.70487  Biso   1.000  H
  H71      1.0000 0.96198  0.90894  0.64836  Biso   1.000  H
  C66      1.0000 0.87061  0.95155  0.88988  Biso   1.000  C
  C67      1.0000 0.88446  0.84635  0.83464  Biso   1.000  C
  H72      1.0000 0.56281  0.87674  0.92745  Biso   1.000  H
  H73      1.0000 0.67376  0.87004  0.94627  Biso   1.000  H
  O5       1.0000 0.54208  0.87115  0.03046  Biso   1.000  O
  O6       1.0000 0.59888  0.85344  0.04164  Biso   1.000  O
  H74      1.0000 0.60775  0.73364  0.87558  Biso   1.000  H
  H75      1.0000 0.58989  0.64967  0.86183  Biso   1.000  H
  O7       1.0000 0.71677  0.66061  0.88939  Biso   1.000  O
  H76      1.0000 0.68611  0.70826  0.88157  Biso   1.000  H
  H77      1.0000 0.57210  0.70997  0.86965  Biso   1.000  H
  O8       1.0000 0.63738  0.62007  0.86495  Biso   1.000  O
  C68      1.0000 0.88015  0.86773  0.90038  Biso   1.000  C
  H78      1.0000 0.86527  0.96563  0.93576  Biso   1.000  H
  H79      1.0000 0.88636  0.78644  0.84314  Biso   1.000  H
  C69      1.0000 0.55064  0.76963  0.08978  Biso   1.000  C
  C70      1.0000 0.51581  0.77343  0.06296  Biso   1.000  C
  C71      1.0000 0.70486  0.60237  0.97303  Biso   1.000  C
  C72      1.0000 0.60377  0.57407  0.95036  Biso   1.000  C
  H80      1.0000 0.88400  0.82343  0.95268  Biso   1.000  H
  C73      1.0000 0.60725  0.72613  0.08679  Biso   1.000  C
  H81      1.0000 0.48911  0.73871  0.09156  Biso   1.000  H
  H82      1.0000 0.54562  0.76862  0.14324  Biso   1.000  H
  C74      1.0000 0.49865  0.71760  0.05019  Biso   1.000  C
  H83      1.0000 0.50337  0.74761  0.12168  Biso   1.000  H
  H84      1.0000 0.45676  0.80629  0.04928  Biso   1.000  H
  H85      1.0000 0.63870  0.57135  0.98806  Biso   1.000  H
  H86      1.0000 0.75590  0.56002  0.97847  Biso   1.000  H
  H87      1.0000 0.66200  0.57447  0.97486  Biso   1.000  H
  C75      1.0000 0.70607  0.64014  0.02948  Biso   1.000  C
  C76      1.0000 0.52142  0.60593  0.99136  Biso   1.000  C
  H88      1.0000 0.58548  0.51405  0.96234  Biso   1.000  H
  O9       1.0000 0.61767  0.68784  0.02545  Biso   1.000  O
  H89      1.0000 0.60231  0.67755  0.13915  Biso   1.000  H
  H90      1.0000 0.67114  0.75901  0.07628  Biso   1.000  H
  H91      1.0000 0.44824  0.73660  0.01580  Biso   1.000  H
  H92      1.0000 0.46250  0.67511  0.10164  Biso   1.000  H
  O10      1.0000 0.56514  0.66392  0.01726  Biso   1.000  O
  H93      1.0000 0.70353  0.59578  0.08380  Biso   1.000  H
  H94      1.0000 0.76828  0.67700  0.01299  Biso   1.000  H
  H95      1.0000 0.47988  0.63763  0.95207  Biso   1.000  H
  H96      1.0000 0.47897  0.55893  0.03614  Biso   1.000  H
  C77      1.0000 0.42759  0.43366  0.61885  Biso   1.000  C
  C78      1.0000 0.35046  0.36911  0.63229  Biso   1.000  C
  C79      1.0000 0.39869  0.47052  0.67280  Biso   1.000  C
  H97      1.0000 0.48930  0.44884  0.57908  Biso   1.000  H
  C80      1.0000 0.27548  0.36635  0.69479  Biso   1.000  C
  H98      1.0000 0.35098  0.33387  0.60266  Biso   1.000  H
  N5       1.0000 0.30516  0.42903  0.71917  Biso   1.000  N
  C81      1.0000 0.45617  0.53954  0.68667  Biso   1.000  C
  C82      1.0000 0.17209  0.31378  0.73035  Biso   1.000  C
  H99      1.0000 0.26953  0.44077  0.75876  Biso   1.000  H
  C83      1.0000 0.38766  0.57545  0.74019  Biso   1.000  C
  C84      1.0000 0.54486  0.49535  0.72998  Biso   1.000  C
  C85      1.0000 0.49915  0.61352  0.60260  Biso   1.000  C
  C86      1.0000 0.08866  0.36956  0.69375  Biso   1.000  C
  C87      1.0000 0.17915  0.23455  0.70689  Biso   1.000  C
  C88      1.0000 0.14856  0.27733  0.82304  Biso   1.000  C
  N6       1.0000 0.30883  0.62624  0.71404  Biso   1.000  N
  C89      1.0000 0.39377  0.57214  0.81509  Biso   1.000  C
  H100     1.0000 0.58191  0.53774  0.74165  Biso   1.000  H
  H101     1.0000 0.59230  0.47492  0.69449  Biso   1.000  H
  H102     1.0000 0.51673  0.44518  0.78125  Biso   1.000  H
  H103     1.0000 0.54651  0.58856  0.57016  Biso   1.000  H
  H104     1.0000 0.44151  0.63611  0.57370  Biso   1.000  H
  C90      1.0000 0.55710  0.69084  0.60547  Biso   1.000  C
  C91      1.0000 0.04070  0.37061  0.63309  Biso   1.000  C
  N7       1.0000 0.05288  0.43816  0.71276  Biso   1.000  N
  H105     1.0000 0.11464  0.19766  0.73084  Biso   1.000  H
  H106     1.0000 0.23628  0.20008  0.72754  Biso   1.000  H
  H107     1.0000 0.19120  0.25587  0.64726  Biso   1.000  H
  H108     1.0000 0.14936  0.32582  0.84008  Biso   1.000  H
  H109     1.0000 0.20080  0.23707  0.84515  Biso   1.000  H
  H110     1.0000 0.08062  0.24577  0.84375  Biso   1.000  H
  C92      1.0000 0.26361  0.65549  0.77245  Biso   1.000  C
  H111     1.0000 0.28939  0.63865  0.66718  Biso   1.000  H
  C93      1.0000 0.31534  0.62197  0.83544  Biso   1.000  C
  H112     1.0000 0.44198  0.54183  0.84778  Biso   1.000  H
  H113     1.0000 0.51072  0.71513  0.63889  Biso   1.000  H
  H114     1.0000 0.61626  0.66883  0.63278  Biso   1.000  H
  C94      1.0000 0.59642  0.76415  0.52128  Biso   1.000  C
  H115     1.0000 0.04968  0.33092  0.60767  Biso   1.000  H
  C95      1.0000 0.97553  0.44091  0.61439  Biso   1.000  C
  C96      1.0000 0.98424  0.48307  0.66406  Biso   1.000  C
  H116     1.0000 0.07128  0.45138  0.75064  Biso   1.000  H
  C97      1.0000 0.17380  0.71366  0.76127  Biso   1.000  C
  H117     1.0000 0.30135  0.63049  0.88456  Biso   1.000  H
  H118     1.0000 0.63682  0.80945  0.52775  Biso   1.000  H
  H119     1.0000 0.64345  0.73974  0.48829  Biso   1.000  H
  C98      1.0000 0.51202  0.80796  0.47466  Biso   1.000  C
  H120     1.0000 0.93308  0.45653  0.57455  Biso   1.000  H
  C99      1.0000 0.92727  0.55966  0.67048  Biso   1.000  C
  C100     1.0000 0.07585  0.66224  0.76707  Biso   1.000  C
  C101     1.0000 0.15480  0.74533  0.83049  Biso   1.000  C
  C102     1.0000 0.19784  0.79438  0.67976  Biso   1.000  C
  H121     1.0000 0.47537  0.76455  0.46299  Biso   1.000  H
  H122     1.0000 0.46149  0.82873  0.50888  Biso   1.000  H
  C103     1.0000 0.55598  0.88434  0.39566  Biso   1.000  C
  C104     1.0000 0.96710  0.59103  0.72815  Biso   1.000  C
  C105     1.0000 0.93922  0.63476  0.58415  Biso   1.000  C
  C106     1.0000 0.81220  0.52924  0.70365  Biso   1.000  C
  N8       1.0000 0.06192  0.63634  0.70665  Biso   1.000  N
  C107     1.0000 0.99018  0.63256  0.82615  Biso   1.000  C
  H123     1.0000 0.14003  0.69445  0.88334  Biso   1.000  H
  H124     1.0000 0.09615  0.78215  0.82444  Biso   1.000  H
  H125     1.0000 0.21623  0.77945  0.82743  Biso   1.000  H
  H126     1.0000 0.26068  0.82654  0.67720  Biso   1.000  H
  H127     1.0000 0.14042  0.83258  0.67506  Biso   1.000  H
  H128     1.0000 0.20778  0.77565  0.63480  Biso   1.000  H
  O11      1.0000 0.47441  0.92385  0.35253  Biso   1.000  O
  H129     1.0000 0.59170  0.92845  0.40709  Biso   1.000  H
  H130     1.0000 0.60682  0.86396  0.36139  Biso   1.000  H
  C108     1.0000 0.92147  0.58854  0.80147  Biso   1.000  C
  H131     1.0000 0.01359  0.64933  0.56105  Biso   1.000  H
  C109     1.0000 0.88900  0.71937  0.57895  Biso   1.000  C
  H132     1.0000 0.90975  0.61294  0.54908  Biso   1.000  H
  H133     1.0000 0.78495  0.51197  0.66547  Biso   1.000  H
  H134     1.0000 0.77432  0.57757  0.70976  Biso   1.000  H
  H135     1.0000 0.80440  0.47904  0.75699  Biso   1.000  H
  H136     1.0000 0.10672  0.64714  0.66125  Biso   1.000  H
  H137     1.0000 0.97820  0.63996  0.87576  Biso   1.000  H
  C110     1.0000 0.51432  0.99316  0.27720  Biso   1.000  C
  H138     1.0000 0.85517  0.56195  0.83116  Biso   1.000  H
  C111     1.0000 0.89969  0.78962  0.49250  Biso   1.000  C
  H139     1.0000 0.81496  0.70507  0.60345  Biso   1.000  H
  H140     1.0000 0.92052  0.74312  0.61170  Biso   1.000  H
  C112     1.0000 0.54539  0.97401  0.20938  Biso   1.000  C
  C113     1.0000 0.52234  0.07685  0.27329  Biso   1.000  C
  C114     1.0000 0.00957  0.82584  0.45059  Biso   1.000  C
  H141     1.0000 0.85812  0.83873  0.49391  Biso   1.000  H
  H142     1.0000 0.87057  0.76496  0.45926  Biso   1.000  H
  C115     1.0000 0.52891  0.88293  0.21378  Biso   1.000  C
  C116     1.0000 0.59356  0.04221  0.13802  Biso   1.000  C
  C117     1.0000 0.57183  0.14305  0.19728  Biso   1.000  C
  C118     1.0000 0.48209  0.09673  0.34550  Biso   1.000  C
  C119     1.0000 0.01112  0.90282  0.36957  Biso   1.000  C
  H143     1.0000 0.04230  0.84472  0.48609  Biso   1.000  H
  H144     1.0000 0.04971  0.77924  0.44167  Biso   1.000  H
  C120     1.0000 0.42016  0.84074  0.23767  Biso   1.000  C
  H145     1.0000 0.56935  0.84346  0.25306  Biso   1.000  H
  H146     1.0000 0.55898  0.88455  0.15946  Biso   1.000  H
  C121     1.0000 0.60942  0.12283  0.13160  Biso   1.000  C
  H147     1.0000 0.61639  0.03051  0.09122  Biso   1.000  H
  H148     1.0000 0.57918  0.20194  0.19148  Biso   1.000  H
  C122     1.0000 0.36844  0.07435  0.38131  Biso   1.000  C
  H149     1.0000 0.49646  0.16024  0.32931  Biso   1.000  H
  H150     1.0000 0.52108  0.06465  0.38900  Biso   1.000  H
  O12      1.0000 0.11628  0.93575  0.33047  Biso   1.000  O
  H151     1.0000 0.97819  0.88417  0.33396  Biso   1.000  H
  H152     1.0000 0.97176  0.94983  0.37837  Biso   1.000  H
  C123     1.0000 0.33565  0.88565  0.20981  Biso   1.000  C
  C124     1.0000 0.40580  0.75095  0.28447  Biso   1.000  C
  H153     1.0000 0.64641  0.16675  0.08218  Biso   1.000  H
  C125     1.0000 0.29199  0.10674  0.33469  Biso   1.000  C
  C126     1.0000 0.33848  0.01964  0.46226  Biso   1.000  C
  C127     1.0000 0.12057  0.00272  0.25300  Biso   1.000  C
  C128     1.0000 0.23818  0.84364  0.22807  Biso   1.000  C
  O13      1.0000 0.34719  0.97714  0.16606  Biso   1.000  O
  C129     1.0000 0.31056  0.70754  0.30359  Biso   1.000  C
  H154     1.0000 0.46237  0.71895  0.30359  Biso   1.000  H
  C130     1.0000 0.18780  0.08145  0.36817  Biso   1.000  C
  O14      1.0000 0.32060  0.16175  0.25306  Biso   1.000  O
  C131     1.0000 0.23652  0.99662  0.49788  Biso   1.000  C
  H155     1.0000 0.38950  0.99714  0.49470  Biso   1.000  H
  C132     1.0000 0.13190  0.98244  0.18598  Biso   1.000  C
  C133     1.0000 0.11407  0.08961  0.24378  Biso   1.000  C
  C134     1.0000 0.14567  0.88853  0.19527  Biso   1.000  C
  C135     1.0000 0.22771  0.75327  0.27536  Biso   1.000  C
  C136     1.0000 0.37820  0.00679  0.07991  Biso   1.000  C
  H156     1.0000 0.30179  0.64607  0.33615  Biso   1.000  H
  C137     1.0000 0.10638  0.11392  0.31599  Biso   1.000  C
  C138     1.0000 0.16068  0.02775  0.44979  Biso   1.000  C
  C139     1.0000 0.32908  0.25263  0.23797  Biso   1.000  C
  H157     1.0000 0.21729  0.96004  0.55445  Biso   1.000  H
  C140     1.0000 0.12955  0.04853  0.11010  Biso   1.000  C
  C141     1.0000 0.11564  0.15376  0.16527  Biso   1.000  C
  H158     1.0000 0.08330  0.85225  0.23168  Biso   1.000  H
  H159     1.0000 0.14834  0.88804  0.14101  Biso   1.000  H
  H160     1.0000 0.16247  0.72250  0.28850  Biso   1.000  H
  H161     1.0000 0.32532  0.98846  0.05688  Biso   1.000  H
  H162     1.0000 0.44387  0.98223  0.06660  Biso   1.000  H
  C142     1.0000 0.39153  0.10610  0.04558  Biso   1.000  C
  H163     1.0000 0.10890  0.17880  0.29510  Biso   1.000  H
  H164     1.0000 0.03818  0.09114  0.35161  Biso   1.000  H
  H165     1.0000 0.09021  0.01134  0.47405  Biso   1.000  H
  H166     1.0000 0.38113  0.26294  0.26638  Biso   1.000  H
  H167     1.0000 0.26214  0.27063  0.25838  Biso   1.000  H
  C143     1.0000 0.36012  0.30440  0.14792  Biso   1.000  C
  C144     1.0000 0.11993  0.13235  0.09959  Biso   1.000  C
  H168     1.0000 0.13481  0.03439  0.06421  Biso   1.000  H
  H169     1.0000 0.11374  0.21361  0.15677  Biso   1.000  H
  O15      1.0000 0.45807  0.12893  0.96951  Biso   1.000  O
  O16      1.0000 0.40129  0.14667  0.95827  Biso   1.000  O
  H170     1.0000 0.43734  0.12329  0.07252  Biso   1.000  H
  H171     1.0000 0.32632  0.13004  0.05370  Biso   1.000  H
  H172     1.0000 0.39233  0.26644  0.12439  Biso   1.000  H
  H173     1.0000 0.41028  0.35044  0.13808  Biso   1.000  H
  O17      1.0000 0.28338  0.33941  0.11059  Biso   1.000  O
  H174     1.0000 0.31404  0.29182  0.11841  Biso   1.000  H
  H175     1.0000 0.42806  0.29011  0.13032  Biso   1.000  H
  O18      1.0000 0.36278  0.38001  0.13502  Biso   1.000  O
  H176     1.0000 0.11616  0.17665  0.04729  Biso   1.000  H
  C145     1.0000 0.44944  0.23046  0.91019  Biso   1.000  C
  C146     1.0000 0.48435  0.22665  0.93701  Biso   1.000  C
  C147     1.0000 0.29524  0.39774  0.02688  Biso   1.000  C
  C148     1.0000 0.39639  0.42601  0.04961  Biso   1.000  C
  C149     1.0000 0.39283  0.27395  0.91318  Biso   1.000  C
  H177     1.0000 0.51105  0.26137  0.90842  Biso   1.000  H
  H178     1.0000 0.45455  0.23149  0.85667  Biso   1.000  H
  C150     1.0000 0.50151  0.28248  0.94978  Biso   1.000  C
  H179     1.0000 0.49679  0.25247  0.87830  Biso   1.000  H
  H180     1.0000 0.54332  0.19373  0.95069  Biso   1.000  H
  C151     1.0000 0.29408  0.35994  0.97049  Biso   1.000  C
  H181     1.0000 0.36146  0.42873  0.01191  Biso   1.000  H
  H182     1.0000 0.24426  0.44000  0.02151  Biso   1.000  H
  H183     1.0000 0.33816  0.42561  0.02511  Biso   1.000  H
  C152     1.0000 0.47874  0.39409  0.00861  Biso   1.000  C
  H184     1.0000 0.41470  0.48605  0.03757  Biso   1.000  H
  O19      1.0000 0.38250  0.31227  0.97446  Biso   1.000  O
  H185     1.0000 0.39787  0.32255  0.86076  Biso   1.000  H
  H186     1.0000 0.32895  0.24107  0.92369  Biso   1.000  H
  H187     1.0000 0.55184  0.26348  0.98418  Biso   1.000  H
  H188     1.0000 0.53768  0.32494  0.89827  Biso   1.000  H
  O20      1.0000 0.43494  0.33616  0.98271  Biso   1.000  O
  H189     1.0000 0.29655  0.40424  0.91618  Biso   1.000  H
  H190     1.0000 0.23188  0.32308  0.98699  Biso   1.000  H
  H191     1.0000 0.52120  0.44117  0.96377  Biso   1.000  H
  H192     1.0000 0.52028  0.36239  0.04790  Biso   1.000  H
