data_image0
_cell_length_a       14.034
_cell_length_b       18.437
_cell_length_c       22.964
_cell_angle_alpha    99.54
_cell_angle_beta     104.45
_cell_angle_gamma    108.53

_symmetry_space_group_name_H-M    "P 1"
_symmetry_int_tables_number       1

loop_
  _symmetry_equiv_pos_as_xyz
  'x, y, z'

loop_
  _atom_site_label
  _atom_site_occupancy
  _atom_site_fract_x
  _atom_site_fract_y
  _atom_site_fract_z
  _atom_site_thermal_displace_type
  _atom_site_B_iso_or_equiv
  _atom_site_type_symbol
  O1       1.0000 0.60839  0.22922  0.55252  Biso   1.000  O
  C1       1.0000 0.51882  0.16763  0.53539  Biso   1.000  C
  C2       1.0000 0.67681  0.25190  0.61714  Biso   1.000  C
  C3       1.0000 0.46678  0.14113  0.46591  Biso   1.000  C
  O2       1.0000 0.48256  0.13413  0.57034  Biso   1.000  O
  C4       1.0000 0.77741  0.23934  0.61635  Biso   1.000  C
  H1       1.0000 0.64182  0.21963  0.64071  Biso   1.000  H
  H2       1.0000 0.69271  0.30722  0.63651  Biso   1.000  H
  N1       1.0000 0.51840  0.18088  0.43269  Biso   1.000  N
  C5       1.0000 0.37121  0.07564  0.43932  Biso   1.000  C
  C6       1.0000 0.86979  0.30432  0.62816  Biso   1.000  C
  C7       1.0000 0.77684  0.16363  0.60161  Biso   1.000  C
  C8       1.0000 0.47683  0.15375  0.37030  Biso   1.000  C
  C9       1.0000 0.33053  0.04886  0.37544  Biso   1.000  C
  H3       1.0000 0.33598  0.05073  0.46419  Biso   1.000  H
  C10      1.0000 0.96208  0.29201  0.62559  Biso   1.000  C
  H4       1.0000 0.87029  0.35552  0.63758  Biso   1.000  H
  C11      1.0000 0.86891  0.15152  0.59848  Biso   1.000  C
  H5       1.0000 0.71461  0.12023  0.59358  Biso   1.000  H
  C12      1.0000 0.53943  0.20425  0.33760  Biso   1.000  C
  C13      1.0000 0.38491  0.08716  0.33997  Biso   1.000  C
  H6       1.0000 0.26693  0.00535  0.35631  Biso   1.000  H
  C14      1.0000 0.96331  0.21654  0.61103  Biso   1.000  C
  O3       1.0000 0.04841  0.36047  0.63735  Biso   1.000  O
  O4       1.0000 0.85946  0.07454  0.58336  Biso   1.000  O
  O5       1.0000 0.51128  0.16653  0.27670  Biso   1.000  O
  O6       1.0000 0.60519  0.26949  0.36144  Biso   1.000  O
  H7       1.0000 0.36040  0.06874  0.29667  Biso   1.000  H
  H8       1.0000 0.02530  0.20924  0.60958  Biso   1.000  H
  C15      1.0000 0.14946  0.35609  0.64500  Biso   1.000  C
  C16      1.0000 0.94872  0.05813  0.57426  Biso   1.000  C
  C17      1.0000 0.57423  0.21047  0.24301  Biso   1.000  C
  C18      1.0000 0.22872  0.43863  0.66031  Biso   1.000  C
  H9       1.0000 0.14947  0.32410  0.60688  Biso   1.000  H
  H10      1.0000 0.16728  0.33188  0.67850  Biso   1.000  H
  H11      1.0000 0.96556  0.07673  0.53959  Biso   1.000  H
  C19      1.0000 0.92052  0.97032  0.56096  Biso   1.000  C
  H12      1.0000 0.01029  0.08515  0.61140  Biso   1.000  H
  C20      1.0000 0.68421  0.20798  0.25944  Biso   1.000  C
  H13      1.0000 0.58001  0.26523  0.25318  Biso   1.000  H
  H14      1.0000 0.53842  0.18786  0.19850  Biso   1.000  H
  O7       1.0000 0.21469  0.46442  0.60604  Biso   1.000  O
  H15      1.0000 0.21796  0.47327  0.69259  Biso   1.000  H
  H16      1.0000 0.30010  0.43948  0.67528  Biso   1.000  H
  O8       1.0000 0.84424  0.93254  0.50072  Biso   1.000  O
  H17      1.0000 0.98373  0.95847  0.56297  Biso   1.000  H
  H18      1.0000 0.89197  0.95051  0.59209  Biso   1.000  H
  C21      1.0000 0.77193  0.27906  0.27908  Biso   1.000  C
  C22      1.0000 0.69715  0.13679  0.25430  Biso   1.000  C
  C23      1.0000 0.28843  0.54138  0.61248  Biso   1.000  C
  C24      1.0000 0.81262  0.84880  0.48710  Biso   1.000  C
  C25      1.0000 0.87260  0.27725  0.29345  Biso   1.000  C
  H19      1.0000 0.76280  0.32724  0.28249  Biso   1.000  H
  C26      1.0000 0.79917  0.13525  0.26998  Biso   1.000  C
  H20      1.0000 0.63790  0.08957  0.24040  Biso   1.000  H
  C27      1.0000 0.33069  0.53942  0.55919  Biso   1.000  C
  H21      1.0000 0.34637  0.55831  0.65139  Biso   1.000  H
  H22      1.0000 0.25361  0.57910  0.61341  Biso   1.000  H
  C28      1.0000 0.73804  0.81233  0.42131  Biso   1.000  C
  H23      1.0000 0.77756  0.82900  0.51589  Biso   1.000  H
  H24      1.0000 0.87453  0.83461  0.49181  Biso   1.000  H
  O9       1.0000 0.96392  0.34363  0.31207  Biso   1.000  O
  C29      1.0000 0.88788  0.20547  0.29014  Biso   1.000  C
  O10      1.0000 0.80324  0.06111  0.26205  Biso   1.000  O
  O11      1.0000 0.24569  0.51193  0.50198  Biso   1.000  O
  H25      1.0000 0.37896  0.59220  0.56269  Biso   1.000  H
  H26      1.0000 0.36984  0.50448  0.56008  Biso   1.000  H
  O12      1.0000 0.79672  0.82716  0.37954  Biso   1.000  O
  H27      1.0000 0.70303  0.75562  0.41449  Biso   1.000  H
  H28      1.0000 0.68410  0.83510  0.41407  Biso   1.000  H
  C30      1.0000 0.95253  0.41545  0.30339  Biso   1.000  C
  H29      1.0000 0.95595  0.20477  0.30120  Biso   1.000  H
  C31      1.0000 0.90459  0.05458  0.28258  Biso   1.000  C
  C32      1.0000 0.28450  0.50953  0.44958  Biso   1.000  C
  C33      1.0000 0.73092  0.80774  0.31678  Biso   1.000  C
  H30      1.0000 0.92291  0.43514  0.33358  Biso   1.000  H
  H31      1.0000 0.90450  0.40583  0.26191  Biso   1.000  H
  C34      1.0000 0.06038  0.47605  0.31170  Biso   1.000  C
  H32      1.0000 0.93680  0.07716  0.32738  Biso   1.000  H
  H33      1.0000 0.95140  0.08318  0.26238  Biso   1.000  H
  C35      1.0000 0.88828  0.96896  0.26630  Biso   1.000  C
  C36      1.0000 0.19489  0.46194  0.39028  Biso   1.000  C
  H34      1.0000 0.33761  0.48586  0.45551  Biso   1.000  H
  H35      1.0000 0.31762  0.56309  0.44678  Biso   1.000  H
  C37      1.0000 0.79596  0.84463  0.27936  Biso   1.000  C
  H36      1.0000 0.67397  0.82716  0.31520  Biso   1.000  H
  H37      1.0000 0.69965  0.75057  0.29971  Biso   1.000  H
  O13      1.0000 0.12888  0.50510  0.37436  Biso   1.000  O
  H38      1.0000 0.09388  0.45205  0.28617  Biso   1.000  H
  H39      1.0000 0.05093  0.52031  0.29667  Biso   1.000  H
  O14      1.0000 0.82424  0.92808  0.29803  Biso   1.000  O
  H40      1.0000 0.85446  0.94627  0.22169  Biso   1.000  H
  H41      1.0000 0.95644  0.96330  0.27778  Biso   1.000  H
  H42      1.0000 0.22318  0.45072  0.35691  Biso   1.000  H
  H43      1.0000 0.15359  0.41183  0.39569  Biso   1.000  H
  H44      1.0000 0.85937  0.83226  0.28641  Biso   1.000  H
  H45      1.0000 0.75549  0.82407  0.23531  Biso   1.000  H
  O15      1.0000 0.39480  0.73037  0.63856  Biso   1.000  O
  C38      1.0000 0.46056  0.79561  0.66241  Biso   1.000  C
  C39      1.0000 0.52313  0.84610  0.62965  Biso   1.000  C
  O16      1.0000 0.48863  0.83333  0.72330  Biso   1.000  O
  N2       1.0000 0.48158  0.81899  0.56731  Biso   1.000  N
  C40      1.0000 0.61507  0.91270  0.66003  Biso   1.000  C
  C41      1.0000 0.42576  0.78939  0.75699  Biso   1.000  C
  C42      1.0000 0.53318  0.85872  0.53404  Biso   1.000  C
  C43      1.0000 0.66946  0.95100  0.62456  Biso   1.000  C
  H46      1.0000 0.63954  0.93105  0.70328  Biso   1.000  H
  C44      1.0000 0.31575  0.79187  0.74052  Biso   1.000  C
  H47      1.0000 0.41992  0.73455  0.74677  Biso   1.000  H
  H48      1.0000 0.46157  0.81200  0.80150  Biso   1.000  H
  C45      1.0000 0.48116  0.83223  0.46461  Biso   1.000  C
  C46      1.0000 0.62875  0.92421  0.56064  Biso   1.000  C
  H49      1.0000 0.73305  0.99451  0.64369  Biso   1.000  H
  C47      1.0000 0.22803  0.72079  0.72087  Biso   1.000  C
  C48      1.0000 0.30284  0.86307  0.74570  Biso   1.000  C
  O17      1.0000 0.39154  0.77057  0.44744  Biso   1.000  O
  O18      1.0000 0.51743  0.86573  0.42966  Biso   1.000  O
  H50      1.0000 0.66400  0.94913  0.53581  Biso   1.000  H
  C49      1.0000 0.12736  0.72260  0.70650  Biso   1.000  C
  H51      1.0000 0.23716  0.67257  0.71751  Biso   1.000  H
  C50      1.0000 0.20072  0.86460  0.72997  Biso   1.000  C
  H52      1.0000 0.36208  0.91030  0.75960  Biso   1.000  H
  C51      1.0000 0.32315  0.74794  0.38281  Biso   1.000  C
  O19      1.0000 0.03606  0.65623  0.68793  Biso   1.000  O
  C52      1.0000 0.11201  0.79437  0.70981  Biso   1.000  C
  O20      1.0000 0.19670  0.93868  0.73790  Biso   1.000  O
  C53      1.0000 0.22255  0.76051  0.38360  Biso   1.000  C
  H53      1.0000 0.35816  0.78023  0.35929  Biso   1.000  H
  H54      1.0000 0.30728  0.69264  0.36349  Biso   1.000  H
  C54      1.0000 0.04746  0.58441  0.69661  Biso   1.000  C
  H55      1.0000 0.04404  0.79510  0.69880  Biso   1.000  H
  C55      1.0000 0.09530  0.94527  0.71737  Biso   1.000  C
  C56      1.0000 0.13012  0.69554  0.37184  Biso   1.000  C
  C57      1.0000 0.22315  0.83623  0.39839  Biso   1.000  C
  H56      1.0000 0.07705  0.56471  0.66637  Biso   1.000  H
  H57      1.0000 0.09547  0.59397  0.73809  Biso   1.000  H
  C58      1.0000 0.93960  0.52381  0.68830  Biso   1.000  C
  H58      1.0000 0.06316  0.92268  0.67258  Biso   1.000  H
  H59      1.0000 0.04849  0.91666  0.73758  Biso   1.000  H
  C59      1.0000 0.11171  0.03090  0.73370  Biso   1.000  C
  C60      1.0000 0.03788  0.70783  0.37436  Biso   1.000  C
  H60      1.0000 0.12967  0.64433  0.36237  Biso   1.000  H
  C61      1.0000 0.13105  0.84832  0.40147  Biso   1.000  C
  H61      1.0000 0.28535  0.87962  0.40637  Biso   1.000  H
  O21      1.0000 0.87108  0.49474  0.62559  Biso   1.000  O
  H62      1.0000 0.90608  0.54779  0.71378  Biso   1.000  H
  H63      1.0000 0.94901  0.47947  0.70328  Biso   1.000  H
  O22      1.0000 0.17572  0.07177  0.70193  Biso   1.000  O
  H64      1.0000 0.14550  0.05358  0.77827  Biso   1.000  H
  H65      1.0000 0.04349  0.03648  0.72218  Biso   1.000  H
  C62      1.0000 0.03665  0.78331  0.38892  Biso   1.000  C
  O23      1.0000 0.95158  0.63939  0.36265  Biso   1.000  O
  O24      1.0000 0.14053  0.92532  0.41664  Biso   1.000  O
  C63      1.0000 0.80507  0.53791  0.60968  Biso   1.000  C
  C64      1.0000 0.20400  0.15522  0.72059  Biso   1.000  C
  H66      1.0000 0.97468  0.79062  0.39042  Biso   1.000  H
  C65      1.0000 0.85050  0.64371  0.35500  Biso   1.000  C
  C66      1.0000 0.05127  0.94174  0.42574  Biso   1.000  C
  C67      1.0000 0.71546  0.49032  0.55037  Biso   1.000  C
  H67      1.0000 0.77678  0.54908  0.64309  Biso   1.000  H
  H68      1.0000 0.84640  0.58803  0.60431  Biso   1.000  H
  C68      1.0000 0.26904  0.19211  0.68317  Biso   1.000  C
  H69      1.0000 0.14062  0.16760  0.71359  Biso   1.000  H
  H70      1.0000 0.24449  0.17579  0.76469  Biso   1.000  H
  C69      1.0000 0.77127  0.56123  0.33969  Biso   1.000  C
  H71      1.0000 0.85049  0.67574  0.39308  Biso   1.000  H
  H72      1.0000 0.83268  0.66792  0.32150  Biso   1.000  H
  H73      1.0000 0.03443  0.92313  0.46041  Biso   1.000  H
  H74      1.0000 0.98969  0.91471  0.38860  Biso   1.000  H
  C70      1.0000 0.07939  0.02954  0.43904  Biso   1.000  C
  O25      1.0000 0.75429  0.48793  0.49802  Biso   1.000  O
  H75      1.0000 0.66238  0.51401  0.54449  Biso   1.000  H
  H76      1.0000 0.68224  0.43669  0.55317  Biso   1.000  H
  O26      1.0000 0.20320  0.17270  0.62046  Biso   1.000  O
  H77      1.0000 0.32602  0.17270  0.68480  Biso   1.000  H
  H78      1.0000 0.30033  0.24929  0.70029  Biso   1.000  H
  O27      1.0000 0.78529  0.53544  0.39396  Biso   1.000  O
  H79      1.0000 0.78200  0.52653  0.30741  Biso   1.000  H
  H80      1.0000 0.69986  0.56032  0.32472  Biso   1.000  H
  O28      1.0000 0.15568  0.06732  0.49928  Biso   1.000  O
  H81      1.0000 0.01621  0.04131  0.43698  Biso   1.000  H
  H82      1.0000 0.10802  0.04935  0.40791  Biso   1.000  H
  C71      1.0000 0.66929  0.46044  0.44081  Biso   1.000  C
  C72      1.0000 0.26195  0.18753  0.57869  Biso   1.000  C
  C73      1.0000 0.71144  0.45841  0.38748  Biso   1.000  C
  C74      1.0000 0.18734  0.15101  0.51290  Biso   1.000  C
  H83      1.0000 0.62103  0.40766  0.43731  Biso   1.000  H
  H84      1.0000 0.63010  0.49531  0.43988  Biso   1.000  H
  H85      1.0000 0.29694  0.24419  0.58551  Biso   1.000  H
  H86      1.0000 0.31577  0.16468  0.58588  Biso   1.000  H
  H87      1.0000 0.65361  0.44155  0.34861  Biso   1.000  H
  H88      1.0000 0.74637  0.42076  0.38659  Biso   1.000  H
  H89      1.0000 0.22240  0.17081  0.48411  Biso   1.000  H
  H90      1.0000 0.12543  0.16519  0.50819  Biso   1.000  H
  C75      1.0000 0.56827  0.24070  0.74775  Biso   1.000  C
  O29      1.0000 0.50635  0.19497  0.78088  Biso   1.000  O
  C76      1.0000 0.67918  0.24018  0.76459  Biso   1.000  C
  H91      1.0000 0.53317  0.21839  0.70309  Biso   1.000  H
  H92      1.0000 0.57219  0.29499  0.75820  Biso   1.000  H
  C77      1.0000 0.53655  0.23021  0.84238  Biso   1.000  C
  C78      1.0000 0.76451  0.31018  0.77668  Biso   1.000  C
  C79      1.0000 0.69542  0.17041  0.76716  Biso   1.000  C
  O30      1.0000 0.60247  0.29551  0.86776  Biso   1.000  O
  C80      1.0000 0.47941  0.17617  0.87513  Biso   1.000  C
  H93      1.0000 0.75351  0.35707  0.77528  Biso   1.000  H
  C81      1.0000 0.86683  0.31040  0.79096  Biso   1.000  C
  H94      1.0000 0.63792  0.12342  0.75918  Biso   1.000  H
  C82      1.0000 0.79802  0.17070  0.78167  Biso   1.000  C
  N3       1.0000 0.52315  0.19985  0.93729  Biso   1.000  N
  C83      1.0000 0.39022  0.10839  0.84364  Biso   1.000  C
  O31      1.0000 0.94709  0.38251  0.80402  Biso   1.000  O
  C84      1.0000 0.88449  0.24061  0.79282  Biso   1.000  C
  O32      1.0000 0.80629  0.09923  0.78480  Biso   1.000  O
  C85      1.0000 0.47373  0.15598  0.96948  Biso   1.000  C
  H95      1.0000 0.36509  0.09273  0.80020  Biso   1.000  H
  C86      1.0000 0.33881  0.06419  0.87775  Biso   1.000  C
  C87      1.0000 0.05027  0.38401  0.80981  Biso   1.000  C
  H96      1.0000 0.95284  0.24061  0.80141  Biso   1.000  H
  C88      1.0000 0.91105  0.09683  0.79931  Biso   1.000  C
  C89      1.0000 0.38021  0.08956  0.94219  Biso   1.000  C
  C90      1.0000 0.52432  0.17907  0.03887  Biso   1.000  C
  H97      1.0000 0.27812  0.01857  0.85778  Biso   1.000  H
  C91      1.0000 0.12676  0.46826  0.82880  Biso   1.000  C
  H98      1.0000 0.07079  0.35721  0.84088  Biso   1.000  H
  H99      1.0000 0.05128  0.35647  0.77029  Biso   1.000  H
  H100     1.0000 0.93887  0.10542  0.76529  Biso   1.000  H
  H101     1.0000 0.95861  0.13818  0.83669  Biso   1.000  H
  C92      1.0000 0.90375  0.01742  0.80888  Biso   1.000  C
  H102     1.0000 0.34614  0.06270  0.96668  Biso   1.000  H
  O33      1.0000 0.62261  0.22985  0.05735  Biso   1.000  O
  O34      1.0000 0.47999  0.15174  0.07326  Biso   1.000  O
  O35      1.0000 0.14295  0.49288  0.88447  Biso   1.000  O
  H103     1.0000 0.09666  0.49957  0.80561  Biso   1.000  H
  H104     1.0000 0.19236  0.47100  0.82087  Biso   1.000  H
  H105     1.0000 0.19680  0.46798  0.83169  Biso   1.000  H
  H106     1.0000 0.10720  0.49267  0.79590  Biso   1.000  H
  O36      1.0000 0.13402  0.51869  0.88820  Biso   1.000  O
  H107     1.0000 0.86734  0.00599  0.83907  Biso   1.000  H
  H108     1.0000 0.97444  0.01731  0.82507  Biso   1.000  H
  O37      1.0000 0.84711  0.95814  0.75120  Biso   1.000  O
  C93      1.0000 0.68692  0.24239  0.12193  Biso   1.000  C
  C94      1.0000 0.23650  0.57155  0.92040  Biso   1.000  C
  C95      1.0000 0.83667  0.87978  0.75409  Biso   1.000  C
  C96      1.0000 0.78436  0.22658  0.11950  Biso   1.000  C
  H109     1.0000 0.70634  0.29644  0.14582  Biso   1.000  H
  H110     1.0000 0.64720  0.20647  0.14148  Biso   1.000  H
  C97      1.0000 0.30975  0.55044  0.96640  Biso   1.000  C
  H111     1.0000 0.27028  0.58555  0.88969  Biso   1.000  H
  H112     1.0000 0.23145  0.61938  0.94200  Biso   1.000  H
  H113     1.0000 0.81513  0.84679  0.71187  Biso   1.000  H
  H114     1.0000 0.90576  0.88077  0.77640  Biso   1.000  H
  C98      1.0000 0.75826  0.84147  0.78517  Biso   1.000  C
  C99      1.0000 0.77632  0.14969  0.10112  Biso   1.000  C
  C100     1.0000 0.88016  0.28757  0.13401  Biso   1.000  C
  H115     1.0000 0.37598  0.59584  0.98656  Biso   1.000  H
  H116     1.0000 0.32536  0.50767  0.94541  Biso   1.000  H
  O38      1.0000 0.26341  0.52628  0.01269  Biso   1.000  O
  O39      1.0000 0.80644  0.86060  0.84994  Biso   1.000  O
  H117     1.0000 0.73002  0.78437  0.76828  Biso   1.000  H
  H118     1.0000 0.69957  0.85949  0.77640  Biso   1.000  H
  C101     1.0000 0.86481  0.13346  0.09659  Biso   1.000  C
  H119     1.0000 0.71142  0.10819  0.09160  Biso   1.000  H
  C102     1.0000 0.96831  0.27044  0.12972  Biso   1.000  C
  H120     1.0000 0.88623  0.33987  0.14652  Biso   1.000  H
  C103     1.0000 0.33210  0.50476  0.05511  Biso   1.000  C
  C104     1.0000 0.73324  0.82748  0.88059  Biso   1.000  C
  O40      1.0000 0.84794  0.05506  0.07662  Biso   1.000  O
  C105     1.0000 0.96172  0.19378  0.11152  Biso   1.000  C
  O41      1.0000 0.07274  0.34108  0.17451  Biso   1.000  O
  O42      1.0000 0.05870  0.32418  0.12930  Biso   1.000  O
  C106     1.0000 0.30331  0.50524  0.10942  Biso   1.000  C
  H121     1.0000 0.32827  0.45204  0.03682  Biso   1.000  H
  H122     1.0000 0.40449  0.54173  0.06528  Biso   1.000  H
  C107     1.0000 0.78991  0.84355  0.94867  Biso   1.000  C
  H123     1.0000 0.67937  0.85035  0.87518  Biso   1.000  H
  H124     1.0000 0.69832  0.77059  0.86198  Biso   1.000  H
  C108     1.0000 0.93319  0.03535  0.06439  Biso   1.000  C
  H125     1.0000 0.02127  0.18296  0.10928  Biso   1.000  H
  C109     1.0000 0.06781  0.39743  0.14320  Biso   1.000  C
  C110     1.0000 0.16270  0.33896  0.16070  Biso   1.000  C
  C111     1.0000 0.16833  0.34955  0.10242  Biso   1.000  C
  O43      1.0000 0.21868  0.45504  0.09990  Biso   1.000  O
  H126     1.0000 0.35406  0.49373  0.13989  Biso   1.000  H
  H127     1.0000 0.30148  0.55676  0.12538  Biso   1.000  H
  H128     1.0000 0.30649  0.55794  0.12701  Biso   1.000  H
  H129     1.0000 0.35651  0.49714  0.14101  Biso   1.000  H
  O44      1.0000 0.82873  0.92584  0.97690  Biso   1.000  O
  H130     1.0000 0.84844  0.82537  0.95409  Biso   1.000  H
  H131     1.0000 0.74163  0.81517  0.96818  Biso   1.000  H
  C112     1.0000 0.89422  0.94752  0.04008  Biso   1.000  C
  H132     1.0000 0.95614  0.06096  0.03402  Biso   1.000  H
  H133     1.0000 0.99313  0.05338  0.10252  Biso   1.000  H
  H134     1.0000 0.02021  0.40656  0.10909  Biso   1.000  H
  H135     1.0000 0.04747  0.40853  0.18011  Biso   1.000  H
  C113     1.0000 0.18119  0.45316  0.15520  Biso   1.000  C
  H136     1.0000 0.22441  0.37986  0.19271  Biso   1.000  H
  H137     1.0000 0.16762  0.28826  0.16318  Biso   1.000  H
  O45      1.0000 0.17070  0.43356  0.09510  Biso   1.000  O
  H138     1.0000 0.21419  0.32458  0.09020  Biso   1.000  H
  H139     1.0000 0.09799  0.32246  0.07181  Biso   1.000  H
  H140     1.0000 0.85392  0.92174  0.06458  Biso   1.000  H
  H141     1.0000 0.95386  0.93096  0.04270  Biso   1.000  H
  H142     1.0000 0.23407  0.43844  0.18109  Biso   1.000  H
  H143     1.0000 0.19351  0.50857  0.17129  Biso   1.000  H
  C114     1.0000 0.43164  0.75916  0.25225  Biso   1.000  C
  C115     1.0000 0.32078  0.75966  0.23536  Biso   1.000  C
  O46      1.0000 0.49364  0.80489  0.21912  Biso   1.000  O
  H144     1.0000 0.46679  0.78142  0.29691  Biso   1.000  H
  H145     1.0000 0.42777  0.70482  0.24180  Biso   1.000  H
  C116     1.0000 0.23548  0.68968  0.22332  Biso   1.000  C
  C117     1.0000 0.30457  0.82945  0.23284  Biso   1.000  C
  C118     1.0000 0.46344  0.76965  0.15762  Biso   1.000  C
  C119     1.0000 0.13313  0.68945  0.20900  Biso   1.000  C
  H146     1.0000 0.24642  0.64271  0.22467  Biso   1.000  H
  C120     1.0000 0.20194  0.82915  0.21828  Biso   1.000  C
  H147     1.0000 0.36207  0.87644  0.24082  Biso   1.000  H
  O47      1.0000 0.39745  0.70435  0.13224  Biso   1.000  O
  C121     1.0000 0.52055  0.82367  0.12482  Biso   1.000  C
  O48      1.0000 0.05289  0.61735  0.19598  Biso   1.000  O
  C122     1.0000 0.11542  0.75925  0.20718  Biso   1.000  C
  O49      1.0000 0.19367  0.90062  0.21516  Biso   1.000  O
  N4       1.0000 0.47671  0.79994  0.06267  Biso   1.000  N
  C123     1.0000 0.60976  0.89147  0.15636  Biso   1.000  C
  C124     1.0000 0.94964  0.61585  0.19019  Biso   1.000  C
  H148     1.0000 0.04715  0.75925  0.19859  Biso   1.000  H
  C125     1.0000 0.08894  0.90303  0.20069  Biso   1.000  C
  C126     1.0000 0.52625  0.84389  0.03052  Biso   1.000  C
  H149     1.0000 0.63482  0.90713  0.19980  Biso   1.000  H
  C127     1.0000 0.66117  0.93567  0.12225  Biso   1.000  C
  C128     1.0000 0.87320  0.53154  0.17120  Biso   1.000  C
  H150     1.0000 0.92919  0.64265  0.15912  Biso   1.000  H
  H151     1.0000 0.94868  0.64334  0.22971  Biso   1.000  H
  H152     1.0000 0.06112  0.89444  0.23471  Biso   1.000  H
  H153     1.0000 0.04135  0.86163  0.16331  Biso   1.000  H
  C129     1.0000 0.09622  0.98243  0.19108  Biso   1.000  C
  C130     1.0000 0.61976  0.91024  0.05781  Biso   1.000  C
  C131     1.0000 0.47564  0.82077  0.96108  Biso   1.000  C
  H154     1.0000 0.72181  0.98121  0.14218  Biso   1.000  H
  O50      1.0000 0.85701  0.50697  0.11549  Biso   1.000  O
  H155     1.0000 0.90330  0.50023  0.19439  Biso   1.000  H
  H156     1.0000 0.80760  0.52884  0.17909  Biso   1.000  H
  H157     1.0000 0.80318  0.53188  0.16831  Biso   1.000  H
  H158     1.0000 0.89276  0.50713  0.20410  Biso   1.000  H
  O51      1.0000 0.86597  0.48118  0.11180  Biso   1.000  O
  H159     1.0000 0.13263  0.99386  0.16089  Biso   1.000  H
  H160     1.0000 0.02552  0.98254  0.17489  Biso   1.000  H
  O52      1.0000 0.15281  0.04172  0.24880  Biso   1.000  O
  H161     1.0000 0.65384  0.93716  0.03332  Biso   1.000  H
  O53      1.0000 0.37735  0.76995  0.94265  Biso   1.000  O
  O54      1.0000 0.51995  0.84805  0.92669  Biso   1.000  O
  C132     1.0000 0.76346  0.42826  0.07960  Biso   1.000  C
  C133     1.0000 0.16332  0.12008  0.24591  Biso   1.000  C
  C134     1.0000 0.31306  0.75747  0.87807  Biso   1.000  C
  C135     1.0000 0.69014  0.44936  0.03360  Biso   1.000  C
  H162     1.0000 0.72968  0.41425  0.11031  Biso   1.000  H
  H163     1.0000 0.76847  0.38048  0.05800  Biso   1.000  H
  H164     1.0000 0.18483  0.15305  0.28809  Biso   1.000  H
  H165     1.0000 0.09420  0.11903  0.22360  Biso   1.000  H
  C136     1.0000 0.24170  0.15837  0.21478  Biso   1.000  C
  C137     1.0000 0.21563  0.77328  0.88050  Biso   1.000  C
  H166     1.0000 0.29362  0.70336  0.85418  Biso   1.000  H
  H167     1.0000 0.35276  0.79337  0.85848  Biso   1.000  H
  O55      1.0000 0.73658  0.47358  0.98731  Biso   1.000  O
  H168     1.0000 0.62398  0.40400  0.01339  Biso   1.000  H
  H169     1.0000 0.67456  0.49219  0.05459  Biso   1.000  H
  O56      1.0000 0.19354  0.13926  0.15006  Biso   1.000  O
  H170     1.0000 0.26992  0.21542  0.23167  Biso   1.000  H
  H171     1.0000 0.30042  0.14037  0.22360  Biso   1.000  H
  C138     1.0000 0.22360  0.85017  0.89888  Biso   1.000  C
  C139     1.0000 0.11982  0.71229  0.86599  Biso   1.000  C
  C140     1.0000 0.66789  0.49510  0.94489  Biso   1.000  C
  C141     1.0000 0.26675  0.17238  0.11941  Biso   1.000  C
  C142     1.0000 0.13515  0.86639  0.90336  Biso   1.000  C
  H172     1.0000 0.28856  0.89167  0.90840  Biso   1.000  H
  C143     1.0000 0.03165  0.72936  0.87028  Biso   1.000  C
  H173     1.0000 0.11376  0.65999  0.85348  Biso   1.000  H
  C144     1.0000 0.69665  0.49457  0.89058  Biso   1.000  C
  H174     1.0000 0.67169  0.54776  0.96318  Biso   1.000  H
  H175     1.0000 0.59545  0.45805  0.93467  Biso   1.000  H
  C145     1.0000 0.20998  0.15629  0.05128  Biso   1.000  C
  H176     1.0000 0.32060  0.14945  0.12482  Biso   1.000  H
  H177     1.0000 0.30157  0.22926  0.13798  Biso   1.000  H
  C146     1.0000 0.03819  0.80608  0.88848  Biso   1.000  C
  O57      1.0000 0.15202  0.94475  0.92338  Biso   1.000  O
  O58      1.0000 0.92725  0.65878  0.82549  Biso   1.000  O
  O59      1.0000 0.94129  0.67568  0.87070  Biso   1.000  O
  O60      1.0000 0.78128  0.54476  0.90010  Biso   1.000  O
  H178     1.0000 0.64590  0.50607  0.86011  Biso   1.000  H
  H179     1.0000 0.69848  0.44308  0.87457  Biso   1.000  H
  H180     1.0000 0.69349  0.44192  0.87299  Biso   1.000  H
  H181     1.0000 0.64345  0.50266  0.85899  Biso   1.000  H
  O61      1.0000 0.17125  0.07402  0.02310  Biso   1.000  O
  H182     1.0000 0.15155  0.17449  0.04591  Biso   1.000  H
  H183     1.0000 0.25834  0.18468  0.03178  Biso   1.000  H
  H184     1.0000 0.97869  0.81689  0.89067  Biso   1.000  H
  C147     1.0000 0.06670  0.96446  0.93561  Biso   1.000  C
  C148     1.0000 0.93215  0.60237  0.85680  Biso   1.000  C
  C149     1.0000 0.83729  0.66090  0.83930  Biso   1.000  C
  C150     1.0000 0.83163  0.65025  0.89758  Biso   1.000  C
  C151     1.0000 0.81879  0.54670  0.84480  Biso   1.000  C
  C152     1.0000 0.10571  0.05227  0.95987  Biso   1.000  C
  H185     1.0000 0.04383  0.93885  0.96598  Biso   1.000  H
  H186     1.0000 0.00679  0.94648  0.89748  Biso   1.000  H
  H187     1.0000 0.97978  0.59330  0.89091  Biso   1.000  H
  H188     1.0000 0.95250  0.59127  0.81989  Biso   1.000  H
  H189     1.0000 0.77558  0.62000  0.80729  Biso   1.000  H
  H190     1.0000 0.83234  0.71158  0.83678  Biso   1.000  H
  O62      1.0000 0.82929  0.56630  0.90490  Biso   1.000  O
  H191     1.0000 0.78579  0.67528  0.90980  Biso   1.000  H
  H192     1.0000 0.90200  0.67740  0.92819  Biso   1.000  H
  H193     1.0000 0.76591  0.56142  0.81891  Biso   1.000  H
  H194     1.0000 0.80648  0.49129  0.82871  Biso   1.000  H
  H195     1.0000 0.14597  0.07810  0.93537  Biso   1.000  H
  H196     1.0000 0.04613  0.06890  0.95730  Biso   1.000  H
  Ne1      1.0000 0.83277  0.19351  0.43926  Biso   1.000  Ne
  He1      1.0000 0.85166  0.26632  0.45266  Biso   1.000  He
  He2      1.0000 0.96289  0.37248  0.47483  Biso   1.000  He
  He3      1.0000 0.71075  0.07003  0.41374  Biso   1.000  He
  Ar1      1.0000 0.79106  0.18652  0.43661  Biso   1.000  Ar
  Ne2      1.0000 0.13222  0.77469  0.04805  Biso   1.000  Ne
  He4      1.0000 0.28537  0.89675  0.07789  Biso   1.000  He
  He5      1.0000 0.89672  0.72286  0.06051  Biso   1.000  He
  He6      1.0000 0.12801  0.68371  0.03739  Biso   1.000  He
  Ar2      1.0000 0.16288  0.73920  0.04422  Biso   1.000  Ar
  Ne3      1.0000 0.16719  0.80634  0.56072  Biso   1.000  Ne
  He7      1.0000 0.28895  0.93138  0.58656  Biso   1.000  He
  He8      1.0000 0.04449  0.59994  0.52420  Biso   1.000  He
  He9      1.0000 0.14913  0.73535  0.54763  Biso   1.000  He
  Ar3      1.0000 0.20549  0.81051  0.56265  Biso   1.000  Ar
  Ne4      1.0000 0.86774  0.22515  0.95194  Biso   1.000  Ne
  He10     1.0000 0.88303  0.36683  0.96337  Biso   1.000  He
  He11     1.0000 0.06250  0.17738  0.97324  Biso   1.000  He
  He12     1.0000 0.78743  0.19929  0.94776  Biso   1.000  He
  Ar4      1.0000 0.86484  0.23107  0.95569  Biso   1.000  Ar
