data_image0
_cell_length_a       14.821
_cell_length_b       15.65
_cell_length_c       17.686
_cell_angle_alpha    74.79
_cell_angle_beta     87.86
_cell_angle_gamma    66.48

_symmetry_space_group_name_H-M    "P 1"
_symmetry_int_tables_number       1

loop_
  _symmetry_equiv_pos_as_xyz
  'x, y, z'

loop_
  _atom_site_label
  _atom_site_occupancy
  _atom_site_fract_x
  _atom_site_fract_y
  _atom_site_fract_z
  _atom_site_thermal_displace_type
  _atom_site_B_iso_or_equiv
  _atom_site_type_symbol
  C1       1.0000 0.27257  0.62712  0.33102  Biso   1.000  C
  C2       1.0000 0.29566  0.53750  0.31510  Biso   1.000  C
  C3       1.0000 0.17838  0.69578  0.31610  Biso   1.000  C
  H1       1.0000 0.32158  0.63930  0.35159  Biso   1.000  H
  C4       1.0000 0.22495  0.51813  0.28472  Biso   1.000  C
  H2       1.0000 0.36000  0.49083  0.32550  Biso   1.000  H
  C5       1.0000 0.10888  0.67691  0.28419  Biso   1.000  C
  C6       1.0000 0.15085  0.79080  0.33672  Biso   1.000  C
  C7       1.0000 0.24855  0.42150  0.26767  Biso   1.000  C
  C8       1.0000 0.13027  0.58969  0.26861  Biso   1.000  C
  H3       1.0000 0.04485  0.72443  0.27249  Biso   1.000  H
  H4       1.0000 0.20958  0.79620  0.35318  Biso   1.000  H
  H5       1.0000 0.11767  0.84472  0.29130  Biso   1.000  H
  N1       1.0000 0.08385  0.79173  0.40201  Biso   1.000  N
  N2       1.0000 0.19465  0.36863  0.32080  Biso   1.000  N
  H6       1.0000 0.22860  0.43202  0.21320  Biso   1.000  H
  H7       1.0000 0.31906  0.38280  0.27631  Biso   1.000  H
  H8       1.0000 0.08087  0.57868  0.24722  Biso   1.000  H
  C9       1.0000 0.12525  0.73498  0.47312  Biso   1.000  C
  C10      1.0000 0.98737  0.83729  0.38908  Biso   1.000  C
  C11      1.0000 0.11262  0.36541  0.29341  Biso   1.000  C
  C12      1.0000 0.23062  0.32685  0.39467  Biso   1.000  C
  C13      1.0000 0.06747  0.71560  0.53118  Biso   1.000  C
  H9       1.0000 0.19344  0.70884  0.48299  Biso   1.000  H
  H10      1.0000 0.96055  0.88172  0.34078  Biso   1.000  H
  C14      1.0000 0.92535  0.82113  0.44520  Biso   1.000  C
  H11      1.0000 0.09036  0.39291  0.24070  Biso   1.000  H
  C15      1.0000 0.06316  0.32131  0.34407  Biso   1.000  C
  C16      1.0000 0.18121  0.28203  0.44791  Biso   1.000  C
  H12      1.0000 0.28911  0.32755  0.41100  Biso   1.000  H
  H13      1.0000 0.09684  0.67483  0.58019  Biso   1.000  H
  C17      1.0000 0.96625  0.75542  0.51831  Biso   1.000  C
  H14      1.0000 0.85738  0.85319  0.43492  Biso   1.000  H
  H15      1.0000 0.00699  0.31843  0.32509  Biso   1.000  H
  C18      1.0000 0.09391  0.28060  0.42352  Biso   1.000  C
  H16      1.0000 0.20673  0.25282  0.49991  Biso   1.000  H
  C19      1.0000 0.90616  0.71941  0.57648  Biso   1.000  C
  C20      1.0000 0.03382  0.24459  0.48170  Biso   1.000  C
  C21      1.0000 0.93698  0.67872  0.65588  Biso   1.000  C
  C22      1.0000 0.81883  0.71805  0.55210  Biso   1.000  C
  C23      1.0000 0.07469  0.17895  0.55480  Biso   1.000  C
  C24      1.0000 0.93260  0.28443  0.46877  Biso   1.000  C
  C25      1.0000 0.88746  0.63460  0.70659  Biso   1.000  C
  H17      1.0000 0.99308  0.68158  0.67492  Biso   1.000  H
  H18      1.0000 0.79335  0.74719  0.50009  Biso   1.000  H
  C26      1.0000 0.76942  0.67325  0.60528  Biso   1.000  C
  C27      1.0000 0.01270  0.16274  0.61086  Biso   1.000  C
  H19      1.0000 0.14269  0.14682  0.56508  Biso   1.000  H
  H20      1.0000 0.90321  0.32524  0.41982  Biso   1.000  H
  C28      1.0000 0.87483  0.26503  0.52689  Biso   1.000  C
  N3       1.0000 0.80546  0.63145  0.67921  Biso   1.000  N
  H21      1.0000 0.90978  0.60710  0.75930  Biso   1.000  H
  H22      1.0000 0.71094  0.67253  0.58900  Biso   1.000  H
  H23      1.0000 0.03949  0.11838  0.65917  Biso   1.000  H
  N4       1.0000 0.91619  0.20835  0.59799  Biso   1.000  N
  H24      1.0000 0.80660  0.29124  0.51701  Biso   1.000  H
  C29      1.0000 0.75152  0.57853  0.73227  Biso   1.000  C
  C30      1.0000 0.84922  0.20921  0.66328  Biso   1.000  C
  C31      1.0000 0.77516  0.48195  0.71529  Biso   1.000  C
  H25      1.0000 0.77145  0.56806  0.78680  Biso   1.000  H
  H26      1.0000 0.68108  0.61721  0.72369  Biso   1.000  H
  H27      1.0000 0.79049  0.20383  0.64677  Biso   1.000  H
  H28      1.0000 0.88238  0.15536  0.70871  Biso   1.000  H
  C32      1.0000 0.82169  0.30423  0.68391  Biso   1.000  C
  C33      1.0000 0.86980  0.41032  0.73139  Biso   1.000  C
  C34      1.0000 0.70441  0.46251  0.68491  Biso   1.000  C
  C35      1.0000 0.89123  0.32317  0.71582  Biso   1.000  C
  C36      1.0000 0.72754  0.37296  0.66898  Biso   1.000  C
  H29      1.0000 0.91920  0.42133  0.75278  Biso   1.000  H
  H30      1.0000 0.64004  0.50924  0.67450  Biso   1.000  H
  H31      1.0000 0.95520  0.27565  0.72751  Biso   1.000  H
  H32      1.0000 0.67856  0.36071  0.64841  Biso   1.000  H
  C37      1.0000 0.27257  0.62712  0.33102  Biso   1.000  C
  C38      1.0000 0.29566  0.53750  0.31510  Biso   1.000  C
  C39      1.0000 0.17838  0.69578  0.31610  Biso   1.000  C
  H33      1.0000 0.32158  0.63930  0.35159  Biso   1.000  H
  C40      1.0000 0.22495  0.51813  0.28472  Biso   1.000  C
  H34      1.0000 0.36000  0.49083  0.32550  Biso   1.000  H
  C41      1.0000 0.10888  0.67691  0.28419  Biso   1.000  C
  C42      1.0000 0.15085  0.79080  0.33672  Biso   1.000  C
  C43      1.0000 0.24855  0.42150  0.26767  Biso   1.000  C
  C44      1.0000 0.13027  0.58969  0.26861  Biso   1.000  C
  H35      1.0000 0.04485  0.72443  0.27249  Biso   1.000  H
  H36      1.0000 0.20958  0.79620  0.35318  Biso   1.000  H
  H37      1.0000 0.11767  0.84472  0.29130  Biso   1.000  H
  N5       1.0000 0.08385  0.79173  0.40201  Biso   1.000  N
  N6       1.0000 0.19465  0.36863  0.32080  Biso   1.000  N
  H38      1.0000 0.22860  0.43202  0.21320  Biso   1.000  H
  H39      1.0000 0.31906  0.38280  0.27631  Biso   1.000  H
  H40      1.0000 0.08087  0.57868  0.24722  Biso   1.000  H
  C45      1.0000 0.12525  0.73498  0.47312  Biso   1.000  C
  C46      1.0000 0.98737  0.83729  0.38908  Biso   1.000  C
  C47      1.0000 0.11262  0.36541  0.29341  Biso   1.000  C
  C48      1.0000 0.23062  0.32685  0.39467  Biso   1.000  C
  C49      1.0000 0.06747  0.71560  0.53118  Biso   1.000  C
  H41      1.0000 0.19344  0.70884  0.48299  Biso   1.000  H
  H42      1.0000 0.96055  0.88172  0.34078  Biso   1.000  H
  C50      1.0000 0.92535  0.82113  0.44520  Biso   1.000  C
  H43      1.0000 0.09036  0.39291  0.24070  Biso   1.000  H
  C51      1.0000 0.06316  0.32131  0.34407  Biso   1.000  C
  C52      1.0000 0.18121  0.28203  0.44791  Biso   1.000  C
  H44      1.0000 0.28911  0.32755  0.41100  Biso   1.000  H
  H45      1.0000 0.09684  0.67483  0.58019  Biso   1.000  H
  C53      1.0000 0.96625  0.75542  0.51831  Biso   1.000  C
  H46      1.0000 0.85738  0.85319  0.43492  Biso   1.000  H
  H47      1.0000 0.00699  0.31843  0.32509  Biso   1.000  H
  C54      1.0000 0.09391  0.28060  0.42352  Biso   1.000  C
  H48      1.0000 0.20673  0.25282  0.49991  Biso   1.000  H
  C55      1.0000 0.90616  0.71941  0.57648  Biso   1.000  C
  C56      1.0000 0.03382  0.24459  0.48170  Biso   1.000  C
  C57      1.0000 0.93698  0.67872  0.65588  Biso   1.000  C
  C58      1.0000 0.81883  0.71805  0.55210  Biso   1.000  C
  C59      1.0000 0.07469  0.17895  0.55480  Biso   1.000  C
  C60      1.0000 0.93260  0.28443  0.46877  Biso   1.000  C
  C61      1.0000 0.88746  0.63460  0.70659  Biso   1.000  C
  H49      1.0000 0.99308  0.68158  0.67492  Biso   1.000  H
  H50      1.0000 0.79335  0.74719  0.50009  Biso   1.000  H
  C62      1.0000 0.76942  0.67325  0.60528  Biso   1.000  C
  C63      1.0000 0.01270  0.16274  0.61086  Biso   1.000  C
  H51      1.0000 0.14269  0.14682  0.56508  Biso   1.000  H
  H52      1.0000 0.90321  0.32524  0.41982  Biso   1.000  H
  C64      1.0000 0.87483  0.26503  0.52689  Biso   1.000  C
  N7       1.0000 0.80546  0.63145  0.67921  Biso   1.000  N
  H53      1.0000 0.90978  0.60710  0.75930  Biso   1.000  H
  H54      1.0000 0.71094  0.67253  0.58900  Biso   1.000  H
  H55      1.0000 0.03949  0.11838  0.65917  Biso   1.000  H
  N8       1.0000 0.91619  0.20835  0.59799  Biso   1.000  N
  H56      1.0000 0.80660  0.29124  0.51701  Biso   1.000  H
  C65      1.0000 0.75152  0.57853  0.73227  Biso   1.000  C
  C66      1.0000 0.84922  0.20921  0.66328  Biso   1.000  C
  C67      1.0000 0.77516  0.48195  0.71529  Biso   1.000  C
  H57      1.0000 0.77145  0.56806  0.78680  Biso   1.000  H
  H58      1.0000 0.68108  0.61721  0.72369  Biso   1.000  H
  H59      1.0000 0.79049  0.20383  0.64677  Biso   1.000  H
  H60      1.0000 0.88238  0.15536  0.70871  Biso   1.000  H
  C68      1.0000 0.82169  0.30423  0.68391  Biso   1.000  C
  C69      1.0000 0.86980  0.41032  0.73139  Biso   1.000  C
  C70      1.0000 0.70441  0.46251  0.68491  Biso   1.000  C
  C71      1.0000 0.89123  0.32317  0.71582  Biso   1.000  C
  C72      1.0000 0.72754  0.37296  0.66898  Biso   1.000  C
  H61      1.0000 0.91920  0.42133  0.75278  Biso   1.000  H
  H62      1.0000 0.64004  0.50924  0.67450  Biso   1.000  H
  H63      1.0000 0.95520  0.27565  0.72751  Biso   1.000  H
  H64      1.0000 0.67856  0.36071  0.64841  Biso   1.000  H
