data_image0
_cell_length_a       12.587
_cell_length_b       18.349
_cell_length_c       13.403
_cell_angle_alpha    90
_cell_angle_beta     106.57
_cell_angle_gamma    90

_symmetry_space_group_name_H-M    "P 1"
_symmetry_int_tables_number       1

loop_
  _symmetry_equiv_pos_as_xyz
  'x, y, z'

loop_
  _atom_site_label
  _atom_site_occupancy
  _atom_site_fract_x
  _atom_site_fract_y
  _atom_site_fract_z
  _atom_site_thermal_displace_type
  _atom_site_B_iso_or_equiv
  _atom_site_type_symbol
  C1       1.0000 0.64102  0.67230  0.70362  Biso   1.000  C
  C2       1.0000 0.58280  0.69862  0.76909  Biso   1.000  C
  C3       1.0000 0.74636  0.69868  0.71460  Biso   1.000  C
  H1       1.0000 0.60932  0.63687  0.65209  Biso   1.000  H
  O1       1.0000 0.47788  0.66723  0.76263  Biso   1.000  O
  C4       1.0000 0.62574  0.74920  0.84350  Biso   1.000  C
  C5       1.0000 0.79215  0.75170  0.78847  Biso   1.000  C
  H2       1.0000 0.78825  0.68042  0.67124  Biso   1.000  H
  C6       1.0000 0.38579  0.70238  0.70923  Biso   1.000  C
  H3       1.0000 0.58459  0.76609  0.88826  Biso   1.000  H
  C7       1.0000 0.73050  0.77530  0.85230  Biso   1.000  C
  H4       1.0000 0.86379  0.77110  0.79493  Biso   1.000  H
  N1       1.0000 0.29249  0.66957  0.71070  Biso   1.000  N
  N2       1.0000 0.39821  0.76429  0.66198  Biso   1.000  N
  O2       1.0000 0.77877  0.82446  0.93357  Biso   1.000  O
  C8       1.0000 0.20689  0.70592  0.65513  Biso   1.000  C
  C9       1.0000 0.30160  0.79389  0.61068  Biso   1.000  C
  C10      1.0000 0.75058  0.89553  0.91870  Biso   1.000  C
  O3       1.0000 0.10804  0.67263  0.65193  Biso   1.000  O
  N3       1.0000 0.20067  0.76729  0.60274  Biso   1.000  N
  O4       1.0000 0.30110  0.85629  0.56062  Biso   1.000  O
  N4       1.0000 0.68567  0.91580  0.82739  Biso   1.000  N
  N5       1.0000 0.79331  0.93722  0.00106  Biso   1.000  N
  C11      1.0000 0.01238  0.70418  0.58911  Biso   1.000  C
  C12      1.0000 0.40760  0.88670  0.56732  Biso   1.000  C
  C13      1.0000 0.66547  0.98741  0.82077  Biso   1.000  C
  C14      1.0000 0.76549  0.00632  0.98269  Biso   1.000  C
  C15      1.0000 0.96940  0.76811  0.61659  Biso   1.000  C
  C16      1.0000 0.95407  0.67012  0.49757  Biso   1.000  C
  C17      1.0000 0.45392  0.93280  0.64789  Biso   1.000  C
  C18      1.0000 0.45569  0.87089  0.49049  Biso   1.000  C
  O5       1.0000 0.60189  0.01417  0.73149  Biso   1.000  O
  N6       1.0000 0.70148  0.03651  0.89488  Biso   1.000  N
  O6       1.0000 0.80185  0.05581  0.06030  Biso   1.000  O
  F1       1.0000 0.02419  0.80211  0.70440  Biso   1.000  F
  C19      1.0000 0.87147  0.79710  0.55416  Biso   1.000  C
  F2       1.0000 0.99504  0.60821  0.46791  Biso   1.000  F
  C20      1.0000 0.85524  0.69911  0.43530  Biso   1.000  C
  H5       1.0000 0.41781  0.94348  0.69957  Biso   1.000  H
  C21      1.0000 0.55420  0.96321  0.65162  Biso   1.000  C
  C22      1.0000 0.55721  0.90239  0.49594  Biso   1.000  C
  H6       1.0000 0.42062  0.83917  0.43491  Biso   1.000  H
  C23      1.0000 0.86105  0.02878  0.15690  Biso   1.000  C
  F3       1.0000 0.83211  0.85868  0.58258  Biso   1.000  F
  C24      1.0000 0.81428  0.76179  0.46472  Biso   1.000  C
  F4       1.0000 0.80250  0.66641  0.34562  Biso   1.000  F
  C25      1.0000 0.60820  0.94883  0.57697  Biso   1.000  C
  H7       1.0000 0.59224  0.89220  0.44331  Biso   1.000  H
  C26      1.0000 0.97402  0.02709  0.18617  Biso   1.000  C
  C27      1.0000 0.80702  0.00431  0.22595  Biso   1.000  C
  F5       1.0000 0.71870  0.78882  0.40478  Biso   1.000  F
  H8       1.0000 0.67824  0.97008  0.58133  Biso   1.000  H
  F6       1.0000 0.02863  0.04938  0.11798  Biso   1.000  F
  C28      1.0000 0.03292  0.00202  0.28176  Biso   1.000  C
  C29      1.0000 0.86442  0.97940  0.32286  Biso   1.000  C
  F7       1.0000 0.69595  0.00278  0.19559  Biso   1.000  F
  C30      1.0000 0.97932  0.97847  0.34987  Biso   1.000  C
  F8       1.0000 0.14430  0.99842  0.30636  Biso   1.000  F
  F9       1.0000 0.81086  0.95438  0.38770  Biso   1.000  F
  F10      1.0000 0.03545  0.94932  0.44079  Biso   1.000  F
  C31      1.0000 0.35902  0.32770  0.29643  Biso   1.000  C
  C32      1.0000 0.25358  0.30132  0.28537  Biso   1.000  C
  C33      1.0000 0.41722  0.30138  0.23088  Biso   1.000  C
  H9       1.0000 0.39070  0.36313  0.34788  Biso   1.000  H
  C34      1.0000 0.20779  0.24830  0.21150  Biso   1.000  C
  H10      1.0000 0.21179  0.31958  0.32881  Biso   1.000  H
  C35      1.0000 0.37428  0.25080  0.15646  Biso   1.000  C
  O7       1.0000 0.52209  0.33277  0.23742  Biso   1.000  O
  C36      1.0000 0.26952  0.22470  0.14767  Biso   1.000  C
  H11      1.0000 0.13617  0.22890  0.20512  Biso   1.000  H
  H12      1.0000 0.41543  0.23391  0.11170  Biso   1.000  H
  C37      1.0000 0.61417  0.29762  0.29082  Biso   1.000  C
  O8       1.0000 0.22117  0.17554  0.06640  Biso   1.000  O
  N7       1.0000 0.60181  0.23571  0.33799  Biso   1.000  N
  N8       1.0000 0.70745  0.33043  0.28926  Biso   1.000  N
  C38      1.0000 0.24936  0.10447  0.08127  Biso   1.000  C
  C39      1.0000 0.69842  0.20611  0.38929  Biso   1.000  C
  C40      1.0000 0.79307  0.29408  0.34492  Biso   1.000  C
  N9       1.0000 0.31426  0.08420  0.17258  Biso   1.000  N
  N10      1.0000 0.20671  0.06278  0.99891  Biso   1.000  N
  O9       1.0000 0.69895  0.14371  0.43942  Biso   1.000  O
  N11      1.0000 0.79929  0.23271  0.39731  Biso   1.000  N
  O10      1.0000 0.89200  0.32737  0.34811  Biso   1.000  O
  C41      1.0000 0.33447  0.01259  0.17919  Biso   1.000  C
  C42      1.0000 0.23453  0.99368  0.01728  Biso   1.000  C
  C43      1.0000 0.59244  0.11330  0.43273  Biso   1.000  C
  C44      1.0000 0.98758  0.29582  0.41093  Biso   1.000  C
  O11      1.0000 0.39813  0.98583  0.26848  Biso   1.000  O
  N12      1.0000 0.29846  0.96349  0.10509  Biso   1.000  N
  O12      1.0000 0.19820  0.94419  0.93975  Biso   1.000  O
  C45      1.0000 0.54610  0.06720  0.35208  Biso   1.000  C
  C46      1.0000 0.54432  0.12911  0.50948  Biso   1.000  C
  C47      1.0000 0.03062  0.23189  0.38338  Biso   1.000  C
  C48      1.0000 0.04587  0.32988  0.50240  Biso   1.000  C
  C49      1.0000 0.44584  0.03679  0.34842  Biso   1.000  C
  C50      1.0000 0.13899  0.97122  0.84315  Biso   1.000  C
  H13      1.0000 0.58221  0.05652  0.30040  Biso   1.000  H
  C51      1.0000 0.44283  0.09761  0.50411  Biso   1.000  C
  H14      1.0000 0.57942  0.16083  0.56514  Biso   1.000  H
  F11      1.0000 0.97583  0.19789  0.29557  Biso   1.000  F
  C52      1.0000 0.12847  0.20290  0.44581  Biso   1.000  C
  F12      1.0000 0.00501  0.39179  0.53213  Biso   1.000  F
  C53      1.0000 0.14478  0.30089  0.56467  Biso   1.000  C
  C54      1.0000 0.39182  0.05117  0.42300  Biso   1.000  C
  C55      1.0000 0.02600  0.97291  0.81380  Biso   1.000  C
  C56      1.0000 0.19300  0.99569  0.77402  Biso   1.000  C
  H15      1.0000 0.40780  0.10780  0.55673  Biso   1.000  H
  F13      1.0000 0.16791  0.14132  0.41739  Biso   1.000  F
  C57      1.0000 0.18568  0.23821  0.53533  Biso   1.000  C
  F14      1.0000 0.19754  0.33359  0.65442  Biso   1.000  F
  H16      1.0000 0.32180  0.02992  0.41872  Biso   1.000  H
  F15      1.0000 0.97142  0.95062  0.88207  Biso   1.000  F
  C58      1.0000 0.96710  0.99798  0.71821  Biso   1.000  C
  F16      1.0000 0.30409  0.99722  0.80446  Biso   1.000  F
  C59      1.0000 0.13560  0.02060  0.67711  Biso   1.000  C
  F17      1.0000 0.28132  0.21118  0.59519  Biso   1.000  F
  F18      1.0000 0.85571  0.00158  0.69361  Biso   1.000  F
  C60      1.0000 0.02070  0.02153  0.65010  Biso   1.000  C
  F19      1.0000 0.18918  0.04562  0.61234  Biso   1.000  F
  F20      1.0000 0.96459  0.05068  0.55925  Biso   1.000  F
  C61      1.0000 0.46943  0.73192  0.11661  Biso   1.000  C
  C62      1.0000 0.37150  0.70293  0.05418  Biso   1.000  C
  F21      1.0000 0.52422  0.69791  0.20442  Biso   1.000  F
  C63      1.0000 0.51241  0.79579  0.08913  Biso   1.000  C
  F22      1.0000 0.33206  0.64129  0.08259  Biso   1.000  F
  C64      1.0000 0.31431  0.73819  0.96474  Biso   1.000  C
  O13      1.0000 0.60797  0.82740  0.15187  Biso   1.000  O
  C65      1.0000 0.45413  0.82991  0.99766  Biso   1.000  C
  F23      1.0000 0.21865  0.71121  0.90480  Biso   1.000  F
  C66      1.0000 0.35519  0.80092  0.93531  Biso   1.000  C
  C67      1.0000 0.70690  0.79410  0.15506  Biso   1.000  C
  F24      1.0000 0.49499  0.89177  0.96793  Biso   1.000  F
  F25      1.0000 0.30245  0.83361  0.84564  Biso   1.000  F
  N13      1.0000 0.70068  0.73268  0.10267  Biso   1.000  N
  N14      1.0000 0.79252  0.83040  0.21072  Biso   1.000  N
  C68      1.0000 0.80163  0.70609  0.11069  Biso   1.000  C
  C69      1.0000 0.88579  0.79759  0.20916  Biso   1.000  C
  O14      1.0000 0.80110  0.64369  0.06056  Biso   1.000  O
  N15      1.0000 0.89816  0.73568  0.16199  Biso   1.000  N
  O15      1.0000 0.97788  0.83274  0.26256  Biso   1.000  O
  C70      1.0000 0.90763  0.61328  0.06733  Biso   1.000  C
  C71      1.0000 0.08283  0.80141  0.26910  Biso   1.000  C
  C72      1.0000 0.95387  0.56722  0.14790  Biso   1.000  C
  C73      1.0000 0.95564  0.62908  0.99050  Biso   1.000  C
  C74      1.0000 0.12569  0.75078  0.34352  Biso   1.000  C
  C75      1.0000 0.14105  0.82767  0.20364  Biso   1.000  C
  H17      1.0000 0.91776  0.55649  0.19959  Biso   1.000  H
  C76      1.0000 0.05423  0.53681  0.15164  Biso   1.000  C
  H18      1.0000 0.92057  0.66080  0.93492  Biso   1.000  H
  C77      1.0000 0.05716  0.59758  0.99595  Biso   1.000  C
  H19      1.0000 0.08462  0.73388  0.38828  Biso   1.000  H
  C78      1.0000 0.23053  0.72473  0.35232  Biso   1.000  C
  C79      1.0000 0.24639  0.80130  0.21461  Biso   1.000  C
  H20      1.0000 0.10927  0.86310  0.15210  Biso   1.000  H
  O16      1.0000 0.10192  0.48580  0.23150  Biso   1.000  O
  C80      1.0000 0.10823  0.55120  0.07699  Biso   1.000  C
  H21      1.0000 0.09219  0.60783  0.94333  Biso   1.000  H
  O17      1.0000 0.27880  0.67551  0.43358  Biso   1.000  O
  C81      1.0000 0.29218  0.74832  0.28849  Biso   1.000  C
  H22      1.0000 0.28818  0.81961  0.17118  Biso   1.000  H
  C82      1.0000 0.16550  0.51262  0.32079  Biso   1.000  C
  H23      1.0000 0.17817  0.52989  0.08127  Biso   1.000  H
  C83      1.0000 0.25061  0.60450  0.41872  Biso   1.000  C
  H24      1.0000 0.36380  0.72892  0.29487  Biso   1.000  H
  N16      1.0000 0.18570  0.58417  0.32741  Biso   1.000  N
  N17      1.0000 0.20151  0.46351  0.39490  Biso   1.000  N
  N18      1.0000 0.29326  0.56281  0.50107  Biso   1.000  N
  C84      1.0000 0.26552  0.49371  0.48270  Biso   1.000  C
  O18      1.0000 0.30180  0.44422  0.56031  Biso   1.000  O
  C85      1.0000 0.36100  0.47120  0.65692  Biso   1.000  C
  C86      1.0000 0.47397  0.47289  0.68618  Biso   1.000  C
  C87      1.0000 0.30697  0.49572  0.72596  Biso   1.000  C
  F26      1.0000 0.52858  0.45060  0.61799  Biso   1.000  F
  C88      1.0000 0.53287  0.49801  0.78178  Biso   1.000  C
  F27      1.0000 0.19590  0.49719  0.69560  Biso   1.000  F
  C89      1.0000 0.36437  0.52057  0.82288  Biso   1.000  C
  F28      1.0000 0.64426  0.50161  0.80637  Biso   1.000  F
  C90      1.0000 0.47927  0.52150  0.84989  Biso   1.000  C
  F29      1.0000 0.31081  0.54559  0.88772  Biso   1.000  F
  F30      1.0000 0.53540  0.55071  0.94081  Biso   1.000  F
  C91      1.0000 0.53061  0.26808  0.88344  Biso   1.000  C
  C92      1.0000 0.48763  0.20421  0.91092  Biso   1.000  C
  F31      1.0000 0.47582  0.30209  0.79563  Biso   1.000  F
  C93      1.0000 0.62852  0.29707  0.94579  Biso   1.000  C
  O19      1.0000 0.39197  0.17260  0.84810  Biso   1.000  O
  C94      1.0000 0.54592  0.17009  0.00238  Biso   1.000  C
  F32      1.0000 0.66788  0.35871  0.91738  Biso   1.000  F
  C95      1.0000 0.68571  0.26181  0.03523  Biso   1.000  C
  C96      1.0000 0.29312  0.20590  0.84491  Biso   1.000  C
  F33      1.0000 0.50503  0.10823  0.03204  Biso   1.000  F
  C97      1.0000 0.64483  0.19908  0.06466  Biso   1.000  C
  F34      1.0000 0.78129  0.28879  0.09517  Biso   1.000  F
  N19      1.0000 0.20752  0.16960  0.78933  Biso   1.000  N
  N20      1.0000 0.29926  0.26732  0.89729  Biso   1.000  N
  F35      1.0000 0.69749  0.16639  0.15433  Biso   1.000  F
  C98      1.0000 0.11422  0.20241  0.79081  Biso   1.000  C
  C99      1.0000 0.19839  0.29391  0.88928  Biso   1.000  C
  O20      1.0000 0.02214  0.16726  0.73740  Biso   1.000  O
  N21      1.0000 0.10178  0.26432  0.83798  Biso   1.000  N
  O21      1.0000 0.19892  0.35631  0.93941  Biso   1.000  O
  C100     1.0000 0.91719  0.19859  0.73087  Biso   1.000  C
  C101     1.0000 0.09241  0.38672  0.93271  Biso   1.000  C
  C102     1.0000 0.87427  0.24922  0.65653  Biso   1.000  C
  C103     1.0000 0.85899  0.17233  0.79641  Biso   1.000  C
  C104     1.0000 0.04607  0.43278  0.85207  Biso   1.000  C
  C105     1.0000 0.04429  0.37092  0.00947  Biso   1.000  C
  H25      1.0000 0.91540  0.26612  0.61169  Biso   1.000  H
  C106     1.0000 0.76951  0.27527  0.64773  Biso   1.000  C
  C107     1.0000 0.75357  0.19870  0.78543  Biso   1.000  C
  H26      1.0000 0.89067  0.13690  0.84786  Biso   1.000  H
  H27      1.0000 0.08217  0.44351  0.80038  Biso   1.000  H
  C108     1.0000 0.94581  0.46319  0.84841  Biso   1.000  C
  C109     1.0000 0.94280  0.40242  0.00409  Biso   1.000  C
  H28      1.0000 0.07945  0.33920  0.06505  Biso   1.000  H
  O22      1.0000 0.72121  0.32449  0.56638  Biso   1.000  O
  C110     1.0000 0.70776  0.25168  0.71148  Biso   1.000  C
  H29      1.0000 0.71176  0.18039  0.82879  Biso   1.000  H
  O23      1.0000 0.89810  0.51420  0.76846  Biso   1.000  O
  C111     1.0000 0.89179  0.44880  0.92298  Biso   1.000  C
  H30      1.0000 0.90783  0.39217  0.05664  Biso   1.000  H
  C112     1.0000 0.74943  0.39550  0.58133  Biso   1.000  C
  H31      1.0000 0.63622  0.27108  0.70510  Biso   1.000  H
  C113     1.0000 0.83452  0.48738  0.67918  Biso   1.000  C
  H32      1.0000 0.82177  0.47011  0.91870  Biso   1.000  H
  N22      1.0000 0.81431  0.41583  0.67256  Biso   1.000  N
  N23      1.0000 0.70668  0.43719  0.49889  Biso   1.000  N
  N24      1.0000 0.79851  0.53649  0.60507  Biso   1.000  N
  C114     1.0000 0.73450  0.50629  0.51727  Biso   1.000  C
  O24      1.0000 0.69825  0.55578  0.43973  Biso   1.000  O
  C115     1.0000 0.63904  0.52880  0.34313  Biso   1.000  C
  C116     1.0000 0.52597  0.52711  0.31378  Biso   1.000  C
  C117     1.0000 0.69297  0.50428  0.27401  Biso   1.000  C
  F36      1.0000 0.47136  0.54940  0.38197  Biso   1.000  F
  C118     1.0000 0.46707  0.50199  0.21819  Biso   1.000  C
  F37      1.0000 0.80411  0.50281  0.30437  Biso   1.000  F
  C119     1.0000 0.63557  0.47943  0.17709  Biso   1.000  C
  F38      1.0000 0.35568  0.49839  0.19360  Biso   1.000  F
  C120     1.0000 0.52067  0.47850  0.15008  Biso   1.000  C
  F39      1.0000 0.68923  0.45441  0.11233  Biso   1.000  F
  F40      1.0000 0.46464  0.44929  0.05924  Biso   1.000  F
