data_image0
_cell_length_a       15.884
_cell_length_b       12.48
_cell_length_c       14.175
_cell_angle_alpha    90
_cell_angle_beta     90
_cell_angle_gamma    90

_symmetry_space_group_name_H-M    "P 1"
_symmetry_int_tables_number       1

loop_
  _symmetry_equiv_pos_as_xyz
  'x, y, z'

loop_
  _atom_site_label
  _atom_site_occupancy
  _atom_site_fract_x
  _atom_site_fract_y
  _atom_site_fract_z
  _atom_site_thermal_displace_type
  _atom_site_B_iso_or_equiv
  _atom_site_type_symbol
  C1       1.0000 0.38177  0.47452  0.41601  Biso   1.000  C
  C2       1.0000 0.30376  0.45817  0.35422  Biso   1.000  C
  N1       1.0000 0.43578  0.38510  0.39118  Biso   1.000  N
  H1       1.0000 0.36729  0.47388  0.48388  Biso   1.000  H
  N2       1.0000 0.41495  0.57837  0.38681  Biso   1.000  N
  N3       1.0000 0.32284  0.36362  0.30088  Biso   1.000  N
  H2       1.0000 0.25233  0.44872  0.39280  Biso   1.000  H
  N4       1.0000 0.30037  0.55673  0.29884  Biso   1.000  N
  C3       1.0000 0.39984  0.32091  0.32691  Biso   1.000  C
  C4       1.0000 0.51687  0.36522  0.43217  Biso   1.000  C
  C5       1.0000 0.36527  0.62428  0.32092  Biso   1.000  C
  C6       1.0000 0.48313  0.63478  0.43217  Biso   1.000  C
  C7       1.0000 0.26706  0.31202  0.23577  Biso   1.000  C
  C8       1.0000 0.23458  0.58173  0.23217  Biso   1.000  C
  O1       1.0000 0.42993  0.23582  0.29608  Biso   1.000  O
  H3       1.0000 0.52852  0.28814  0.42942  Biso   1.000  H
  H4       1.0000 0.51530  0.38590  0.49891  Biso   1.000  H
  N5       1.0000 0.58505  0.42163  0.38681  Biso   1.000  N
  O2       1.0000 0.37321  0.71595  0.28868  Biso   1.000  O
  H5       1.0000 0.47148  0.71194  0.42942  Biso   1.000  H
  H6       1.0000 0.48470  0.61410  0.49891  Biso   1.000  H
  N6       1.0000 0.56422  0.61498  0.39118  Biso   1.000  N
  H7       1.0000 0.20902  0.32284  0.25721  Biso   1.000  H
  H8       1.0000 0.27833  0.23478  0.23668  Biso   1.000  H
  N7       1.0000 0.27399  0.34968  0.13996  Biso   1.000  N
  N8       1.0000 0.25183  0.54415  0.13792  Biso   1.000  N
  H9       1.0000 0.18182  0.54960  0.25411  Biso   1.000  H
  H10      1.0000 0.22671  0.65962  0.23041  Biso   1.000  H
  C9       1.0000 0.61823  0.52548  0.41601  Biso   1.000  C
  C10      1.0000 0.63473  0.37572  0.32092  Biso   1.000  C
  C11      1.0000 0.60016  0.67909  0.32691  Biso   1.000  C
  C12      1.0000 0.32970  0.30537  0.07577  Biso   1.000  C
  C13      1.0000 0.22929  0.44014  0.10011  Biso   1.000  C
  C14      1.0000 0.28444  0.61122  0.06921  Biso   1.000  C
  H11      1.0000 0.63271  0.52612  0.48388  Biso   1.000  H
  C15      1.0000 0.69624  0.54183  0.35422  Biso   1.000  C
  N9       1.0000 0.69963  0.44327  0.29884  Biso   1.000  N
  O3       1.0000 0.62679  0.28405  0.28868  Biso   1.000  O
  N10      1.0000 0.67716  0.63638  0.30088  Biso   1.000  N
  O4       1.0000 0.57007  0.76418  0.29608  Biso   1.000  O
  O5       1.0000 0.37138  0.22540  0.09002  Biso   1.000  O
  N11      1.0000 0.32731  0.36482  0.99584  Biso   1.000  N
  H12      1.0000 0.16772  0.42869  0.10222  Biso   1.000  H
  C16      1.0000 0.26152  0.44567  0.99711  Biso   1.000  C
  N12      1.0000 0.29023  0.55377  0.98829  Biso   1.000  N
  O6       1.0000 0.30320  0.70537  0.07958  Biso   1.000  O
  H13      1.0000 0.74773  0.55128  0.39280  Biso   1.000  H
  C17      1.0000 0.76542  0.41835  0.23217  Biso   1.000  C
  C18      1.0000 0.73294  0.68798  0.23577  Biso   1.000  C
  C19      1.0000 0.36880  0.32901  0.91048  Biso   1.000  C
  H14      1.0000 0.21632  0.42933  0.95118  Biso   1.000  H
  C20      1.0000 0.32870  0.59848  0.90328  Biso   1.000  C
  H15      1.0000 0.81818  0.45040  0.25411  Biso   1.000  H
  H16      1.0000 0.77329  0.34038  0.23041  Biso   1.000  H
  N13      1.0000 0.74817  0.45585  0.13792  Biso   1.000  N
  H17      1.0000 0.79098  0.67724  0.25721  Biso   1.000  H
  H18      1.0000 0.72173  0.76522  0.23668  Biso   1.000  H
  N14      1.0000 0.72601  0.65040  0.13996  Biso   1.000  N
  H19      1.0000 0.33058  0.33870  0.85700  Biso   1.000  H
  H20      1.0000 0.38120  0.25232  0.91598  Biso   1.000  H
  N15      1.0000 0.44655  0.38662  0.89213  Biso   1.000  N
  H21      1.0000 0.30011  0.56883  0.84790  Biso   1.000  H
  H22      1.0000 0.31982  0.67620  0.90286  Biso   1.000  H
  N16      1.0000 0.41677  0.57772  0.89510  Biso   1.000  N
  C21      1.0000 0.77071  0.55994  0.10011  Biso   1.000  C
  C22      1.0000 0.71556  0.38878  0.06921  Biso   1.000  C
  C23      1.0000 0.67030  0.69463  0.07577  Biso   1.000  C
  C24      1.0000 0.52373  0.34567  0.91633  Biso   1.000  C
  C25      1.0000 0.45272  0.48822  0.84430  Biso   1.000  C
  C26      1.0000 0.47627  0.65433  0.91633  Biso   1.000  C
  C27      1.0000 0.73848  0.55433  0.99711  Biso   1.000  C
  H23      1.0000 0.83228  0.57131  0.10222  Biso   1.000  H
  N17      1.0000 0.70977  0.44623  0.98829  Biso   1.000  N
  O7       1.0000 0.69680  0.29463  0.07958  Biso   1.000  O
  N18      1.0000 0.67269  0.63518  0.99584  Biso   1.000  N
  O8       1.0000 0.62862  0.77460  0.09002  Biso   1.000  O
  N19      1.0000 0.58323  0.42228  0.89510  Biso   1.000  N
  O9       1.0000 0.53740  0.25921  0.95139  Biso   1.000  O
  C28      1.0000 0.54728  0.51178  0.84430  Biso   1.000  C
  H24      1.0000 0.43031  0.48373  0.77926  Biso   1.000  H
  N20      1.0000 0.55351  0.61338  0.89213  Biso   1.000  N
  O10      1.0000 0.46260  0.74079  0.95139  Biso   1.000  O
  H25      1.0000 0.78368  0.57075  0.95118  Biso   1.000  H
  C29      1.0000 0.67130  0.40152  0.90328  Biso   1.000  C
  C30      1.0000 0.63120  0.67099  0.91048  Biso   1.000  C
  H26      1.0000 0.56969  0.51635  0.77926  Biso   1.000  H
  H27      1.0000 0.69989  0.43125  0.84790  Biso   1.000  H
  H28      1.0000 0.68018  0.32380  0.90286  Biso   1.000  H
  H29      1.0000 0.66942  0.66130  0.85700  Biso   1.000  H
  H30      1.0000 0.61880  0.74776  0.91598  Biso   1.000  H
  O11      1.0000 0.12679  0.21595  0.71132  Biso   1.000  O
  C31      1.0000 0.13473  0.12428  0.67908  Biso   1.000  C
  N21      1.0000 0.08505  0.07837  0.61319  Biso   1.000  N
  N22      1.0000 0.19963  0.05673  0.70116  Biso   1.000  N
  C32      1.0000 0.01687  0.13478  0.56776  Biso   1.000  C
  C33      1.0000 0.11823  0.97452  0.58399  Biso   1.000  C
  C34      1.0000 0.19624  0.95825  0.64578  Biso   1.000  C
  C35      1.0000 0.26542  0.08173  0.76776  Biso   1.000  C
  H31      1.0000 0.02852  0.21194  0.57058  Biso   1.000  H
  H32      1.0000 0.01530  0.11410  0.50109  Biso   1.000  H
  N23      1.0000 0.93578  0.11498  0.60882  Biso   1.000  N
  H33      1.0000 0.13271  0.97396  0.51612  Biso   1.000  H
  N24      1.0000 0.06422  0.88510  0.60882  Biso   1.000  N
  H34      1.0000 0.24767  0.94872  0.60720  Biso   1.000  H
  N25      1.0000 0.17716  0.86362  0.69912  Biso   1.000  N
  H35      1.0000 0.31818  0.04960  0.74589  Biso   1.000  H
  H36      1.0000 0.27329  0.15962  0.76959  Biso   1.000  H
  N26      1.0000 0.24817  0.04415  0.86208  Biso   1.000  N
  C36      1.0000 0.89984  0.17909  0.67309  Biso   1.000  C
  C37      1.0000 0.88177  0.02548  0.58399  Biso   1.000  C
  C38      1.0000 0.98313  0.86522  0.56776  Biso   1.000  C
  C39      1.0000 0.10016  0.82091  0.67309  Biso   1.000  C
  C40      1.0000 0.23294  0.81202  0.76416  Biso   1.000  C
  C41      1.0000 0.21556  0.11122  0.93079  Biso   1.000  C
  C42      1.0000 0.27071  0.94014  0.89989  Biso   1.000  C
  N27      1.0000 0.82284  0.13638  0.69912  Biso   1.000  N
  O12      1.0000 0.92993  0.26418  0.70392  Biso   1.000  O
  N28      1.0000 0.91495  0.92163  0.61319  Biso   1.000  N
  H37      1.0000 0.86729  0.02612  0.51612  Biso   1.000  H
  C43      1.0000 0.80376  0.04183  0.64578  Biso   1.000  C
  H38      1.0000 0.97148  0.78814  0.57058  Biso   1.000  H
  H39      1.0000 0.98470  0.88590  0.50109  Biso   1.000  H
  O13      1.0000 0.07007  0.73582  0.70392  Biso   1.000  O
  H40      1.0000 0.29098  0.82284  0.74279  Biso   1.000  H
  H41      1.0000 0.22173  0.73486  0.76332  Biso   1.000  H
  N29      1.0000 0.22601  0.84968  0.86004  Biso   1.000  N
  O14      1.0000 0.19680  0.20537  0.92042  Biso   1.000  O
  N30      1.0000 0.20977  0.05377  0.01164  Biso   1.000  N
  H42      1.0000 0.33228  0.92869  0.89778  Biso   1.000  H
  C44      1.0000 0.23848  0.94575  0.00289  Biso   1.000  C
  C45      1.0000 0.76706  0.18798  0.76416  Biso   1.000  C
  C46      1.0000 0.86527  0.87572  0.67908  Biso   1.000  C
  N31      1.0000 0.80037  0.94327  0.70116  Biso   1.000  N
  H43      1.0000 0.75233  0.05128  0.60720  Biso   1.000  H
  C47      1.0000 0.17030  0.80545  0.92416  Biso   1.000  C
  C48      1.0000 0.17130  0.09848  0.09672  Biso   1.000  C
  H44      1.0000 0.28368  0.92933  0.04882  Biso   1.000  H
  N32      1.0000 0.17269  0.86482  0.00416  Biso   1.000  N
  H45      1.0000 0.70902  0.17724  0.74279  Biso   1.000  H
  H46      1.0000 0.77833  0.26522  0.76332  Biso   1.000  H
  N33      1.0000 0.77399  0.15032  0.86004  Biso   1.000  N
  O15      1.0000 0.87321  0.78405  0.71132  Biso   1.000  O
  C49      1.0000 0.73458  0.91835  0.76776  Biso   1.000  C
  O16      1.0000 0.12862  0.72540  0.90998  Biso   1.000  O
  H47      1.0000 0.19989  0.06883  0.15210  Biso   1.000  H
  H48      1.0000 0.18018  0.17620  0.09707  Biso   1.000  H
  N34      1.0000 0.08323  0.07772  0.10490  Biso   1.000  N
  C50      1.0000 0.13120  0.82901  0.08952  Biso   1.000  C
  C51      1.0000 0.82970  0.19463  0.92416  Biso   1.000  C
  C52      1.0000 0.72929  0.05994  0.89989  Biso   1.000  C
  H49      1.0000 0.68182  0.95040  0.74589  Biso   1.000  H
  H50      1.0000 0.72671  0.84038  0.76959  Biso   1.000  H
  N35      1.0000 0.75183  0.95593  0.86208  Biso   1.000  N
  C53      1.0000 0.04728  0.98822  0.15570  Biso   1.000  C
  C54      1.0000 0.02373  0.15433  0.08367  Biso   1.000  C
  H51      1.0000 0.16942  0.83870  0.14300  Biso   1.000  H
  H52      1.0000 0.11880  0.75232  0.08402  Biso   1.000  H
  N36      1.0000 0.05345  0.88662  0.10787  Biso   1.000  N
  O17      1.0000 0.87138  0.27460  0.90998  Biso   1.000  O
  N37      1.0000 0.82731  0.13518  0.00416  Biso   1.000  N
  H53      1.0000 0.66772  0.07131  0.89778  Biso   1.000  H
  C55      1.0000 0.76152  0.05433  0.00289  Biso   1.000  C
  C56      1.0000 0.78444  0.88878  0.93079  Biso   1.000  C
  C57      1.0000 0.95272  0.01178  0.15570  Biso   1.000  C
  H54      1.0000 0.06969  0.98373  0.22067  Biso   1.000  H
  N38      1.0000 0.94655  0.11338  0.10787  Biso   1.000  N
  O18      1.0000 0.03740  0.24079  0.04861  Biso   1.000  O
  C58      1.0000 0.97627  0.84575  0.08367  Biso   1.000  C
  C59      1.0000 0.86880  0.17099  0.08952  Biso   1.000  C
  N39      1.0000 0.79023  0.94623  0.01164  Biso   1.000  N
  H55      1.0000 0.71632  0.07067  0.04882  Biso   1.000  H
  O19      1.0000 0.80320  0.79463  0.92042  Biso   1.000  O
  N40      1.0000 0.91677  0.92228  0.10490  Biso   1.000  N
  H56      1.0000 0.93031  0.01627  0.22067  Biso   1.000  H
  O20      1.0000 0.96267  0.75921  0.04861  Biso   1.000  O
  H57      1.0000 0.83058  0.16130  0.14300  Biso   1.000  H
  H58      1.0000 0.88120  0.24768  0.08402  Biso   1.000  H
  C60      1.0000 0.82870  0.90152  0.09672  Biso   1.000  C
  H59      1.0000 0.80011  0.93125  0.15210  Biso   1.000  H
  H60      1.0000 0.81982  0.82380  0.09707  Biso   1.000  H
  Ne1      1.0000 0.50000  0.50001  0.14223  Biso   1.000  Ne
  He1      1.0000 0.53097  0.25394  0.13806  Biso   1.000  He
  He2      1.0000 0.46868  0.74867  0.13810  Biso   1.000  He
  Ar1      1.0000 0.50000  0.50000  0.13790  Biso   1.000  Ar
  Ne2      1.0000 0.00000  0.00001  0.85776  Biso   1.000  Ne
  He3      1.0000 0.03199  0.25369  0.86184  Biso   1.000  He
  He4      1.0000 0.96937  0.75646  0.86197  Biso   1.000  He
  Ar2      1.0000 0.99998  0.00004  0.86209  Biso   1.000  Ar
