data_image0
_cell_length_a       30.284
_cell_length_b       30.284
_cell_length_c       18.45
_cell_angle_alpha    90
_cell_angle_beta     90
_cell_angle_gamma    120

_symmetry_space_group_name_H-M    "P 1"
_symmetry_int_tables_number       1

loop_
  _symmetry_equiv_pos_as_xyz
  'x, y, z'

loop_
  _atom_site_label
  _atom_site_occupancy
  _atom_site_fract_x
  _atom_site_fract_y
  _atom_site_fract_z
  _atom_site_thermal_displace_type
  _atom_site_B_iso_or_equiv
  _atom_site_type_symbol
  C1       1.0000 0.35325  0.43223  0.60493  Biso   1.000  C
  C2       1.0000 0.30165  0.38503  0.61724  Biso   1.000  C
  N1       1.0000 0.35398  0.47635  0.63843  Biso   1.000  N
  H1       1.0000 0.35935  0.43803  0.55382  Biso   1.000  H
  H2       1.0000 0.37938  0.42724  0.62634  Biso   1.000  H
  N2       1.0000 0.29615  0.36612  0.69192  Biso   1.000  N
  H3       1.0000 0.29786  0.35883  0.58444  Biso   1.000  H
  H4       1.0000 0.27546  0.39334  0.60791  Biso   1.000  H
  C3       1.0000 0.38695  0.50022  0.68753  Biso   1.000  C
  C4       1.0000 0.24257  0.33984  0.71485  Biso   1.000  C
  C5       1.0000 0.31938  0.33424  0.70103  Biso   1.000  C
  C6       1.0000 0.39008  0.54525  0.72461  Biso   1.000  C
  H5       1.0000 0.41036  0.48893  0.70092  Biso   1.000  H
  C7       1.0000 0.22566  0.37584  0.74504  Biso   1.000  C
  H6       1.0000 0.22167  0.32234  0.67371  Biso   1.000  H
  H7       1.0000 0.23786  0.31544  0.75165  Biso   1.000  H
  C8       1.0000 0.33908  0.33725  0.77864  Biso   1.000  C
  H8       1.0000 0.29428  0.29943  0.69062  Biso   1.000  H
  H9       1.0000 0.34737  0.34545  0.66791  Biso   1.000  H
  C9       1.0000 0.35456  0.56054  0.71106  Biso   1.000  C
  C10      1.0000 0.43026  0.57323  0.77285  Biso   1.000  C
  N3       1.0000 0.24697  0.39242  0.81751  Biso   1.000  N
  H10      1.0000 0.18917  0.35853  0.74753  Biso   1.000  H
  H11      1.0000 0.23756  0.40505  0.71382  Biso   1.000  H
  N4       1.0000 0.38686  0.38514  0.78894  Biso   1.000  N
  H12      1.0000 0.34478  0.30923  0.78694  Biso   1.000  H
  H13      1.0000 0.31417  0.33565  0.81241  Biso   1.000  H
  C11      1.0000 0.35897  0.60343  0.74553  Biso   1.000  C
  H14      1.0000 0.32695  0.54143  0.67794  Biso   1.000  H
  C12      1.0000 0.43559  0.61704  0.80585  Biso   1.000  C
  H15      1.0000 0.45439  0.56225  0.78325  Biso   1.000  H
  C13      1.0000 0.27537  0.44005  0.82851  Biso   1.000  C
  C14      1.0000 0.38816  0.41462  0.83892  Biso   1.000  C
  C15      1.0000 0.39966  0.63165  0.79236  Biso   1.000  C
  H16      1.0000 0.33408  0.61353  0.73702  Biso   1.000  H
  C16      1.0000 0.48007  0.64724  0.85355  Biso   1.000  C
  C17      1.0000 0.29846  0.46075  0.90033  Biso   1.000  C
  H17      1.0000 0.28197  0.46323  0.78916  Biso   1.000  H
  C18      1.0000 0.43546  0.46193  0.85702  Biso   1.000  C
  H18      1.0000 0.35756  0.40585  0.86553  Biso   1.000  H
  H19      1.0000 0.40285  0.66154  0.81545  Biso   1.000  H
  N5       1.0000 0.49006  0.69014  0.87973  Biso   1.000  N
  H20      1.0000 0.50217  0.63405  0.86504  Biso   1.000  H
  C19      1.0000 0.29177  0.42834  0.95881  Biso   1.000  C
  C20      1.0000 0.32626  0.51345  0.91073  Biso   1.000  C
  C21      1.0000 0.48048  0.47924  0.81724  Biso   1.000  C
  C22      1.0000 0.43656  0.48962  0.91913  Biso   1.000  C
  C23      1.0000 0.53627  0.71725  0.92385  Biso   1.000  C
  H21      1.0000 0.27276  0.39204  0.95214  Biso   1.000  H
  C24      1.0000 0.31236  0.44832  0.02591  Biso   1.000  C
  C25      1.0000 0.34626  0.53434  0.97913  Biso   1.000  C
  H22      1.0000 0.33188  0.53583  0.87051  Biso   1.000  H
  C26      1.0000 0.52486  0.52172  0.83913  Biso   1.000  C
  H23      1.0000 0.48046  0.46132  0.77425  Biso   1.000  H
  C27      1.0000 0.48147  0.53255  0.94125  Biso   1.000  C
  H24      1.0000 0.40586  0.47875  0.94656  Biso   1.000  H
  C28      1.0000 0.52305  0.72964  0.99772  Biso   1.000  C
  H25      1.0000 0.55137  0.69612  0.92981  Biso   1.000  H
  H26      1.0000 0.55997  0.74832  0.89984  Biso   1.000  H
  C29      1.0000 0.33897  0.50083  0.03626  Biso   1.000  C
  H27      1.0000 0.30817  0.42594  0.06553  Biso   1.000  H
  C30      1.0000 0.37237  0.58974  0.98976  Biso   1.000  C
  C31      1.0000 0.52585  0.54833  0.90054  Biso   1.000  C
  H28      1.0000 0.55549  0.53304  0.81133  Biso   1.000  H
  C32      1.0000 0.48168  0.56004  0.00813  Biso   1.000  C
  H29      1.0000 0.50027  0.74272  0.99122  Biso   1.000  H
  N6       1.0000 0.49876  0.68495  0.04482  Biso   1.000  N
  H30      1.0000 0.55387  0.75515  0.02043  Biso   1.000  H
  H31      1.0000 0.35266  0.51432  0.08325  Biso   1.000  H
  H32      1.0000 0.38047  0.61155  0.94824  Biso   1.000  H
  N7       1.0000 0.38457  0.60972  0.05252  Biso   1.000  N
  H33      1.0000 0.55716  0.57773  0.91534  Biso   1.000  H
  N8       1.0000 0.52206  0.59775  0.03203  Biso   1.000  N
  H34      1.0000 0.45026  0.54872  0.03382  Biso   1.000  H
  C33      1.0000 0.46128  0.68613  0.09404  Biso   1.000  C
  C34      1.0000 0.53667  0.67774  0.08444  Biso   1.000  C
  C35      1.0000 0.40958  0.66535  0.05794  Biso   1.000  C
  C36      1.0000 0.51827  0.62192  0.09913  Biso   1.000  C
  H35      1.0000 0.45768  0.66585  0.13593  Biso   1.000  H
  H36      1.0000 0.47326  0.72072  0.10851  Biso   1.000  H
  H37      1.0000 0.56737  0.69174  0.05615  Biso   1.000  H
  H38      1.0000 0.54369  0.69555  0.12981  Biso   1.000  H
  H39      1.0000 0.41409  0.67965  0.01014  Biso   1.000  H
  H40      1.0000 0.38878  0.67454  0.08623  Biso   1.000  H
  H41      1.0000 0.48347  0.60522  0.11501  Biso   1.000  H
  H42      1.0000 0.53906  0.61914  0.13604  Biso   1.000  H
  C37      1.0000 0.69231  0.27011  0.41220  Biso   1.000  C
  C38      1.0000 0.73298  0.29828  0.45902  Biso   1.000  C
  C39      1.0000 0.68790  0.22721  0.37772  Biso   1.000  C
  H43      1.0000 0.66741  0.28021  0.40369  Biso   1.000  H
  C40      1.0000 0.76892  0.28372  0.47252  Biso   1.000  C
  H44      1.0000 0.73619  0.32821  0.48211  Biso   1.000  H
  C41      1.0000 0.72340  0.21188  0.39127  Biso   1.000  C
  H45      1.0000 0.66029  0.20811  0.34461  Biso   1.000  H
  C42      1.0000 0.81341  0.31392  0.52022  Biso   1.000  C
  C43      1.0000 0.76359  0.23991  0.43951  Biso   1.000  C
  C44      1.0000 0.72028  0.16689  0.35420  Biso   1.000  C
  N9       1.0000 0.82340  0.35681  0.54640  Biso   1.000  N
  H46      1.0000 0.83549  0.30069  0.53171  Biso   1.000  H
  H47      1.0000 0.78770  0.22889  0.44992  Biso   1.000  H
  N10      1.0000 0.68730  0.14298  0.30509  Biso   1.000  N
  H48      1.0000 0.74370  0.15560  0.36759  Biso   1.000  H
  C45      1.0000 0.86959  0.38388  0.59051  Biso   1.000  C
  C46      1.0000 0.68659  0.09891  0.27160  Biso   1.000  C
  C47      1.0000 0.85639  0.39631  0.66439  Biso   1.000  C
  H49      1.0000 0.88471  0.36280  0.59648  Biso   1.000  H
  H50      1.0000 0.89331  0.41500  0.56650  Biso   1.000  H
  C48      1.0000 0.63499  0.05170  0.28390  Biso   1.000  C
  H51      1.0000 0.69269  0.10470  0.22049  Biso   1.000  H
  H52      1.0000 0.71272  0.09391  0.29301  Biso   1.000  H
  N11      1.0000 0.83208  0.35159  0.71149  Biso   1.000  N
  H53      1.0000 0.83361  0.40939  0.65789  Biso   1.000  H
  H54      1.0000 0.88719  0.42178  0.68710  Biso   1.000  H
  N12      1.0000 0.62949  0.03279  0.35859  Biso   1.000  N
  H55      1.0000 0.63120  0.02551  0.25111  Biso   1.000  H
  H56      1.0000 0.60880  0.06002  0.27458  Biso   1.000  H
  C49      1.0000 0.79462  0.35281  0.76070  Biso   1.000  C
  C50      1.0000 0.86999  0.34438  0.75111  Biso   1.000  C
  C51      1.0000 0.57589  0.00648  0.38152  Biso   1.000  C
  C52      1.0000 0.65272  0.00092  0.36770  Biso   1.000  C
  C53      1.0000 0.74290  0.33199  0.72461  Biso   1.000  C
  H57      1.0000 0.79100  0.33249  0.80260  Biso   1.000  H
  H58      1.0000 0.80659  0.38739  0.77518  Biso   1.000  H
  C54      1.0000 0.85160  0.28860  0.76580  Biso   1.000  C
  H59      1.0000 0.90071  0.35841  0.72282  Biso   1.000  H
  H60      1.0000 0.87701  0.36219  0.79648  Biso   1.000  H
  C55      1.0000 0.55900  0.04251  0.41171  Biso   1.000  C
  H61      1.0000 0.55498  0.98898  0.34038  Biso   1.000  H
  H62      1.0000 0.57118  0.98208  0.41832  Biso   1.000  H
  C56      1.0000 0.67240  0.00389  0.44531  Biso   1.000  C
  H63      1.0000 0.68069  0.01209  0.33458  Biso   1.000  H
  H64      1.0000 0.62762  0.96610  0.35729  Biso   1.000  H
  N13      1.0000 0.71791  0.27640  0.71919  Biso   1.000  N
  H65      1.0000 0.74741  0.34629  0.67680  Biso   1.000  H
  H66      1.0000 0.72212  0.34122  0.75290  Biso   1.000  H
  N14      1.0000 0.85538  0.26439  0.69870  Biso   1.000  N
  H67      1.0000 0.81680  0.27190  0.78168  Biso   1.000  H
  H68      1.0000 0.87240  0.28582  0.80271  Biso   1.000  H
  N15      1.0000 0.58030  0.05910  0.48417  Biso   1.000  N
  H69      1.0000 0.52251  0.02520  0.41420  Biso   1.000  H
  H70      1.0000 0.57088  0.07168  0.38049  Biso   1.000  H
  N16      1.0000 0.72020  0.05182  0.45561  Biso   1.000  N
  H71      1.0000 0.64749  0.00229  0.47908  Biso   1.000  H
  H72      1.0000 0.67812  0.97590  0.45360  Biso   1.000  H
  C57      1.0000 0.70571  0.25642  0.65642  Biso   1.000  C
  C58      1.0000 0.81502  0.22672  0.67480  Biso   1.000  C
  C59      1.0000 0.60869  0.10669  0.49518  Biso   1.000  C
  C60      1.0000 0.72150  0.08129  0.50558  Biso   1.000  C
  C61      1.0000 0.67959  0.20102  0.64580  Biso   1.000  C
  H73      1.0000 0.71379  0.27819  0.61491  Biso   1.000  H
  C62      1.0000 0.81479  0.19919  0.60791  Biso   1.000  C
  H74      1.0000 0.78360  0.21539  0.70049  Biso   1.000  H
  C63      1.0000 0.63178  0.12739  0.56699  Biso   1.000  C
  H75      1.0000 0.61531  0.12991  0.45583  Biso   1.000  H
  C64      1.0000 0.76880  0.12861  0.52369  Biso   1.000  C
  H76      1.0000 0.69088  0.07248  0.53220  Biso   1.000  H
  C65      1.0000 0.67231  0.16750  0.70293  Biso   1.000  C
  C66      1.0000 0.65958  0.18008  0.57740  Biso   1.000  C
  C67      1.0000 0.85919  0.21501  0.56721  Biso   1.000  C
  C68      1.0000 0.76990  0.15629  0.58580  Biso   1.000  C
  C69      1.0000 0.62511  0.09502  0.62547  Biso   1.000  C
  C70      1.0000 0.81379  0.14588  0.48390  Biso   1.000  C
  C71      1.0000 0.64570  0.11500  0.69257  Biso   1.000  C
  H77      1.0000 0.68600  0.18100  0.74992  Biso   1.000  H
  H78      1.0000 0.66521  0.20250  0.53718  Biso   1.000  H
  C72      1.0000 0.85820  0.18840  0.50580  Biso   1.000  C
  H79      1.0000 0.89050  0.24441  0.58201  Biso   1.000  H
  H80      1.0000 0.73918  0.14539  0.61322  Biso   1.000  H
  H81      1.0000 0.60610  0.05872  0.61881  Biso   1.000  H
  H82      1.0000 0.81380  0.12800  0.44092  Biso   1.000  H
  H83      1.0000 0.64151  0.09262  0.73220  Biso   1.000  H
  H84      1.0000 0.88881  0.19968  0.47799  Biso   1.000  H
  C73      1.0000 0.19154  0.85508  0.17247  Biso   1.000  C
  C74      1.0000 0.14714  0.81257  0.15057  Biso   1.000  C
  C75      1.0000 0.19251  0.88166  0.23388  Biso   1.000  C
  H85      1.0000 0.22215  0.86637  0.14466  Biso   1.000  H
  C76      1.0000 0.10213  0.79526  0.19035  Biso   1.000  C
  H86      1.0000 0.14713  0.79465  0.10759  Biso   1.000  H
  C77      1.0000 0.14813  0.86587  0.27458  Biso   1.000  C
  H87      1.0000 0.22382  0.91106  0.24867  Biso   1.000  H
  C78      1.0000 0.05484  0.74798  0.17225  Biso   1.000  C
  C79      1.0000 0.10324  0.82298  0.25247  Biso   1.000  C
  C80      1.0000 0.14834  0.89336  0.34146  Biso   1.000  C
  N17      1.0000 0.05353  0.71847  0.12228  Biso   1.000  N
  H88      1.0000 0.02422  0.73917  0.19886  Biso   1.000  H
  H89      1.0000 0.07253  0.81207  0.27989  Biso   1.000  H
  N18      1.0000 0.18872  0.93107  0.36537  Biso   1.000  N
  H90      1.0000 0.11694  0.88208  0.36715  Biso   1.000  H
  C81      1.0000 0.00574  0.67058  0.11198  Biso   1.000  C
  C82      1.0000 0.18495  0.95529  0.43247  Biso   1.000  C
  H91      1.0000 0.01144  0.64255  0.12027  Biso   1.000  H
  C83      1.0000 0.98604  0.66756  0.03436  Biso   1.000  C
  H92      1.0000 0.98084  0.66897  0.14575  Biso   1.000  H
  H93      1.0000 0.15015  0.93859  0.44835  Biso   1.000  H
  H94      1.0000 0.20573  0.95246  0.46938  Biso   1.000  H
  C84      1.0000 0.20333  0.01107  0.41778  Biso   1.000  C
  H95      1.0000 0.01403  0.67877  0.00125  Biso   1.000  H
  N19      1.0000 0.96283  0.69948  0.02526  Biso   1.000  N
  H96      1.0000 0.96094  0.63275  0.02396  Biso   1.000  H
  N20      1.0000 0.16542  0.01827  0.37816  Biso   1.000  N
  H97      1.0000 0.23403  0.02506  0.38949  Biso   1.000  H
  H98      1.0000 0.21035  0.02887  0.46314  Biso   1.000  H
  C85      1.0000 0.96831  0.71835  0.95057  Biso   1.000  C
  C86      1.0000 0.90923  0.67317  0.04818  Biso   1.000  C
  C87      1.0000 0.18972  0.06296  0.33106  Biso   1.000  C
  C88      1.0000 0.12796  0.01949  0.42737  Biso   1.000  C
  H99      1.0000 0.96452  0.69216  0.91778  Biso   1.000  H
  H100     1.0000 0.94212  0.72666  0.94125  Biso   1.000  H
  C89      1.0000 0.01991  0.76556  0.93827  Biso   1.000  C
  C90      1.0000 0.89232  0.70916  0.07837  Biso   1.000  C
  H101     1.0000 0.88833  0.65567  0.00705  Biso   1.000  H
  H102     1.0000 0.90452  0.64877  0.08499  Biso   1.000  H
  C91      1.0000 0.20294  0.05057  0.25718  Biso   1.000  C
  H103     1.0000 0.16695  0.07608  0.32455  Biso   1.000  H
  H104     1.0000 0.22053  0.08847  0.35377  Biso   1.000  H
  C92      1.0000 0.07624  0.99868  0.39127  Biso   1.000  C
  H105     1.0000 0.12434  0.99917  0.46927  Biso   1.000  H
  H106     1.0000 0.13994  0.05408  0.44184  Biso   1.000  H
  N21      1.0000 0.02064  0.80967  0.97176  Biso   1.000  N
  H107     1.0000 0.02601  0.77135  0.88715  Biso   1.000  H
  H108     1.0000 0.04604  0.76056  0.95967  Biso   1.000  H
  N22      1.0000 0.91363  0.72575  0.15084  Biso   1.000  N
  H109     1.0000 0.85583  0.69185  0.08087  Biso   1.000  H
  H110     1.0000 0.90422  0.73837  0.04715  Biso   1.000  H
  N23      1.0000 0.15672  0.02346  0.21306  Biso   1.000  N
  H111     1.0000 0.21805  0.02948  0.26314  Biso   1.000  H
  H112     1.0000 0.22665  0.08168  0.23317  Biso   1.000  H
  N24      1.0000 0.05125  0.94308  0.38585  Biso   1.000  N
  H113     1.0000 0.08075  0.01297  0.34347  Biso   1.000  H
  H114     1.0000 0.05545  0.00787  0.41957  Biso   1.000  H
  C93      1.0000 0.05363  0.83358  0.02087  Biso   1.000  C
  C94      1.0000 0.94203  0.77337  0.16184  Biso   1.000  C
  C95      1.0000 0.14673  0.98057  0.18688  Biso   1.000  C
  C96      1.0000 0.03903  0.92307  0.32309  Biso   1.000  C
  C97      1.0000 0.05674  0.87857  0.05794  Biso   1.000  C
  H115     1.0000 0.07702  0.82225  0.03425  Biso   1.000  H
  C98      1.0000 0.96513  0.79408  0.23366  Biso   1.000  C
  H116     1.0000 0.94863  0.79655  0.12249  Biso   1.000  H
  C99      1.0000 0.10225  0.95037  0.13919  Biso   1.000  C
  H117     1.0000 0.16883  0.96737  0.19837  Biso   1.000  H
  C100     1.0000 0.01292  0.86766  0.31247  Biso   1.000  C
  H118     1.0000 0.04713  0.94488  0.28157  Biso   1.000  H
  C101     1.0000 0.02123  0.89386  0.04439  Biso   1.000  C
  C102     1.0000 0.09692  0.90656  0.10618  Biso   1.000  C
  C103     1.0000 0.95843  0.76167  0.29214  Biso   1.000  C
  C104     1.0000 0.99293  0.84677  0.24407  Biso   1.000  C
  C105     1.0000 0.06632  0.96497  0.12569  Biso   1.000  C
  C106     1.0000 0.00564  0.83415  0.36959  Biso   1.000  C
  C107     1.0000 0.02564  0.93675  0.07886  Biso   1.000  C
  H119     1.0000 0.99361  0.87476  0.01127  Biso   1.000  H
  H120     1.0000 0.12105  0.89558  0.11659  Biso   1.000  H
  C108     1.0000 0.97904  0.78168  0.35924  Biso   1.000  C
  H121     1.0000 0.93942  0.72537  0.28547  Biso   1.000  H
  H122     1.0000 0.99854  0.86915  0.20385  Biso   1.000  H
  H123     1.0000 0.06952  0.99486  0.14878  Biso   1.000  H
  H124     1.0000 0.01934  0.84769  0.41659  Biso   1.000  H
  H125     1.0000 0.00074  0.94686  0.07035  Biso   1.000  H
  H126     1.0000 0.97483  0.75926  0.39886  Biso   1.000  H
