data_image0
_cell_length_a       24.918
_cell_length_b       24.918
_cell_length_c       11.201
_cell_angle_alpha    90
_cell_angle_beta     90
_cell_angle_gamma    120

_symmetry_space_group_name_H-M    "P 1"
_symmetry_int_tables_number       1

loop_
  _symmetry_equiv_pos_as_xyz
  'x, y, z'

loop_
  _atom_site_label
  _atom_site_occupancy
  _atom_site_fract_x
  _atom_site_fract_y
  _atom_site_fract_z
  _atom_site_thermal_displace_type
  _atom_site_B_iso_or_equiv
  _atom_site_type_symbol
  C1       1.0000 0.63197  0.68148  0.72779  Biso   1.000  C
  C2       1.0000 0.57701  0.69339  0.72181  Biso   1.000  C
  C3       1.0000 0.65210  0.68087  0.85662  Biso   1.000  C
  H1       1.0000 0.61988  0.64107  0.68967  Biso   1.000  H
  H2       1.0000 0.66727  0.71419  0.68244  Biso   1.000  H
  N1       1.0000 0.55372  0.68421  0.60209  Biso   1.000  N
  C4       1.0000 0.52358  0.64561  0.80180  Biso   1.000  C
  H3       1.0000 0.59018  0.73657  0.74877  Biso   1.000  H
  C5       1.0000 0.59878  0.63500  0.93242  Biso   1.000  C
  H4       1.0000 0.68530  0.66998  0.85698  Biso   1.000  H
  H5       1.0000 0.66927  0.72277  0.89126  Biso   1.000  H
  C6       1.0000 0.55239  0.72578  0.53709  Biso   1.000  C
  N2       1.0000 0.47411  0.65951  0.79796  Biso   1.000  N
  H6       1.0000 0.50837  0.60307  0.76877  Biso   1.000  H
  C7       1.0000 0.54651  0.64820  0.92956  Biso   1.000  C
  H7       1.0000 0.58420  0.59250  0.90242  Biso   1.000  H
  H8       1.0000 0.61299  0.63718  0.01571  Biso   1.000  H
  C8       1.0000 0.52106  0.70567  0.41907  Biso   1.000  C
  C9       1.0000 0.57899  0.79311  0.57227  Biso   1.000  C
  C10      1.0000 0.42170  0.62300  0.75306  Biso   1.000  C
  H9       1.0000 0.56047  0.68977  0.96366  Biso   1.000  H
  H10      1.0000 0.51188  0.61739  0.97929  Biso   1.000  H
  C11      1.0000 0.48841  0.64260  0.39318  Biso   1.000  C
  C12      1.0000 0.52288  0.74709  0.33318  Biso   1.000  C
  H11      1.0000 0.60151  0.80089  0.64789  Biso   1.000  H
  H12      1.0000 0.54529  0.80219  0.58173  Biso   1.000  H
  H13      1.0000 0.60739  0.81980  0.50987  Biso   1.000  H
  C13      1.0000 0.40108  0.55928  0.69994  Biso   1.000  C
  C14      1.0000 0.37489  0.64519  0.74904  Biso   1.000  C
  C15      1.0000 0.45988  0.62031  0.28471  Biso   1.000  C
  H14      1.0000 0.48579  0.61401  0.45228  Biso   1.000  H
  C16      1.0000 0.49300  0.72587  0.22328  Biso   1.000  C
  H15      1.0000 0.54479  0.79028  0.34952  Biso   1.000  H
  H16      1.0000 0.38500  0.52800  0.76341  Biso   1.000  H
  H17      1.0000 0.43660  0.55937  0.66164  Biso   1.000  H
  H18      1.0000 0.36870  0.54927  0.64039  Biso   1.000  H
  C17      1.0000 0.31108  0.60298  0.74904  Biso   1.000  C
  C18      1.0000 0.39698  0.70808  0.74904  Biso   1.000  C
  C19      1.0000 0.42649  0.55279  0.25560  Biso   1.000  C
  C20      1.0000 0.46227  0.66257  0.19820  Biso   1.000  C
  C21      1.0000 0.49271  0.76999  0.13249  Biso   1.000  C
  C22      1.0000 0.27028  0.62508  0.74904  Biso   1.000  C
  H19      1.0000 0.29610  0.55969  0.74913  Biso   1.000  H
  C23      1.0000 0.35480  0.72967  0.74904  Biso   1.000  C
  H20      1.0000 0.44031  0.73639  0.74913  Biso   1.000  H
  N3       1.0000 0.42351  0.53680  0.14713  Biso   1.000  N
  C24      1.0000 0.39790  0.50821  0.36131  Biso   1.000  C
  H21      1.0000 0.44297  0.64788  0.12276  Biso   1.000  H
  N4       1.0000 0.53627  0.82638  0.13829  Biso   1.000  N
  C25      1.0000 0.44238  0.74269  0.04026  Biso   1.000  C
  C26      1.0000 0.20129  0.57828  0.75306  Biso   1.000  C
  C27      1.0000 0.29191  0.68889  0.74904  Biso   1.000  C
  C28      1.0000 0.37698  0.79867  0.75306  Biso   1.000  C
  C29      1.0000 0.39141  0.47211  0.11106  Biso   1.000  C
  H22      1.0000 0.37988  0.52499  0.41764  Biso   1.000  H
  H23      1.0000 0.43008  0.50339  0.40166  Biso   1.000  H
  H24      1.0000 0.36541  0.46780  0.33220  Biso   1.000  H
  C30      1.0000 0.54219  0.87249  0.05107  Biso   1.000  C
  H25      1.0000 0.43570  0.77541  0.00750  Biso   1.000  H
  H26      1.0000 0.40397  0.71067  0.07731  Biso   1.000  H
  H27      1.0000 0.45461  0.72429  0.97607  Biso   1.000  H
  N5       1.0000 0.18542  0.52591  0.79796  Biso   1.000  N
  C31      1.0000 0.15819  0.59890  0.69994  Biso   1.000  C
  H28      1.0000 0.26362  0.70390  0.74913  Biso   1.000  H
  N6       1.0000 0.34050  0.81456  0.79796  Biso   1.000  N
  C32      1.0000 0.44067  0.84177  0.69994  Biso   1.000  C
  C33      1.0000 0.33031  0.45779  0.05107  Biso   1.000  C
  H29      1.0000 0.38271  0.44500  0.18257  Biso   1.000  H
  C34      1.0000 0.43271  0.46201  0.02312  Biso   1.000  C
  C35      1.0000 0.60819  0.90521  0.00321  Biso   1.000  C
  C36      1.0000 0.52791  0.91929  0.11106  Biso   1.000  C
  H30      1.0000 0.51239  0.85141  0.98402  Biso   1.000  H
  C37      1.0000 0.12201  0.47638  0.80180  Biso   1.000  C
  H31      1.0000 0.14299  0.61498  0.76341  Biso   1.000  H
  H32      1.0000 0.12282  0.56340  0.66164  Biso   1.000  H
  H33      1.0000 0.18060  0.63129  0.64039  Biso   1.000  H
  C38      1.0000 0.35440  0.87800  0.80180  Biso   1.000  C
  H34      1.0000 0.47199  0.85697  0.76341  Biso   1.000  H
  H35      1.0000 0.44059  0.87717  0.66164  Biso   1.000  H
  H36      1.0000 0.45071  0.81938  0.64039  Biso   1.000  H
  C39      1.0000 0.29699  0.39180  0.00321  Biso   1.000  C
  N7       1.0000 0.29007  0.46368  0.13829  Biso   1.000  N
  H37      1.0000 0.33899  0.48759  0.98402  Biso   1.000  H
  C40      1.0000 0.39928  0.39500  0.97420  Biso   1.000  C
  H38      1.0000 0.47141  0.47040  0.06383  Biso   1.000  H
  H39      1.0000 0.44399  0.49148  0.95581  Biso   1.000  H
  H40      1.0000 0.63760  0.92309  0.07062  Biso   1.000  H
  H41      1.0000 0.61627  0.87458  0.96268  Biso   1.000  H
  C41      1.0000 0.61886  0.95697  0.91447  Biso   1.000  C
  N8       1.0000 0.46320  0.88667  0.14713  Biso   1.000  N
  H42      1.0000 0.55501  0.93769  0.18257  Biso   1.000  H
  C42      1.0000 0.53799  0.97068  0.02312  Biso   1.000  C
  C43      1.0000 0.11638  0.42299  0.72181  Biso   1.000  C
  H43      1.0000 0.09469  0.49157  0.76877  Biso   1.000  H
  C44      1.0000 0.10169  0.45348  0.92956  Biso   1.000  C
  C45      1.0000 0.30658  0.88357  0.72181  Biso   1.000  C
  H44      1.0000 0.39691  0.90530  0.76877  Biso   1.000  H
  C46      1.0000 0.35179  0.89830  0.92956  Biso   1.000  C
  H45      1.0000 0.28549  0.36238  0.07062  Biso   1.000  H
  H46      1.0000 0.25831  0.38370  0.96268  Biso   1.000  H
  C47      1.0000 0.33811  0.38110  0.91447  Biso   1.000  C
  C48      1.0000 0.27728  0.50728  0.13249  Biso   1.000  C
  H47      1.0000 0.39070  0.36548  0.04026  Biso   1.000  H
  H48      1.0000 0.42608  0.39009  0.91528  Biso   1.000  H
  H49      1.0000 0.66247  0.97828  0.88671  Biso   1.000  H
  H50      1.0000 0.59169  0.93866  0.84412  Biso   1.000  H
  C49      1.0000 0.60502  0.00433  0.97420  Biso   1.000  C
  C50      1.0000 0.44720  0.87369  0.25560  Biso   1.000  C
  H51      1.0000 0.50850  0.95247  0.95581  Biso   1.000  H
  H52      1.0000 0.52961  0.00104  0.06383  Biso   1.000  H
  N9       1.0000 0.13049  0.44630  0.60209  Biso   1.000  N
  H53      1.0000 0.14638  0.40978  0.74877  Biso   1.000  H
  C51      1.0000 0.04951  0.36799  0.72779  Biso   1.000  C
  H54      1.0000 0.12929  0.43949  0.96366  Biso   1.000  H
  H55      1.0000 0.10552  0.48810  0.97929  Biso   1.000  H
  C52      1.0000 0.03623  0.40121  0.93242  Biso   1.000  C
  N10      1.0000 0.31579  0.86948  0.60209  Biso   1.000  N
  H56      1.0000 0.26338  0.85358  0.74877  Biso   1.000  H
  C53      1.0000 0.31849  0.95048  0.72779  Biso   1.000  C
  H57      1.0000 0.31021  0.87068  0.96366  Biso   1.000  H
  H58      1.0000 0.38260  0.89450  0.97929  Biso   1.000  H
  C54      1.0000 0.36499  0.96378  0.93242  Biso   1.000  C
  H59      1.0000 0.31579  0.33749  0.88671  Biso   1.000  H
  H60      1.0000 0.34698  0.40830  0.84412  Biso   1.000  H
  C55      1.0000 0.23292  0.50701  0.22328  Biso   1.000  C
  C56      1.0000 0.30032  0.55761  0.04026  Biso   1.000  C
  H61      1.0000 0.60991  0.03602  0.91528  Biso   1.000  H
  H62      1.0000 0.63449  0.02523  0.04026  Biso   1.000  H
  C57      1.0000 0.37970  0.83959  0.28471  Biso   1.000  C
  C58      1.0000 0.49180  0.88968  0.36131  Biso   1.000  C
  C59      1.0000 0.17339  0.44760  0.53709  Biso   1.000  C
  C60      1.0000 0.02878  0.34787  0.85662  Biso   1.000  C
  H63      1.0000 0.02121  0.38008  0.68967  Biso   1.000  H
  H64      1.0000 0.04691  0.33267  0.68244  Biso   1.000  H
  H65      1.0000 0.00829  0.41581  0.90242  Biso   1.000  H
  H66      1.0000 0.02418  0.38699  0.01571  Biso   1.000  H
  C61      1.0000 0.27419  0.82657  0.53709  Biso   1.000  C
  C62      1.0000 0.31909  0.97119  0.85662  Biso   1.000  C
  H67      1.0000 0.35889  0.97879  0.68967  Biso   1.000  H
  H68      1.0000 0.28579  0.95308  0.68244  Biso   1.000  H
  H69      1.0000 0.40751  0.99168  0.90242  Biso   1.000  H
  H70      1.0000 0.36280  0.97578  0.01571  Biso   1.000  H
  C63      1.0000 0.22417  0.47707  0.33318  Biso   1.000  C
  C64      1.0000 0.20030  0.53768  0.19820  Biso   1.000  C
  H71      1.0000 0.33969  0.56428  0.00750  Biso   1.000  H
  H72      1.0000 0.30670  0.59598  0.07731  Biso   1.000  H
  H73      1.0000 0.26968  0.54538  0.97607  Biso   1.000  H
  C65      1.0000 0.33740  0.79969  0.19820  Biso   1.000  C
  C66      1.0000 0.35740  0.84580  0.39318  Biso   1.000  C
  H74      1.0000 0.47500  0.85488  0.41764  Biso   1.000  H
  H75      1.0000 0.49662  0.92671  0.40166  Biso   1.000  H
  H76      1.0000 0.53220  0.89761  0.33220  Biso   1.000  H
  C67      1.0000 0.18458  0.47888  0.41907  Biso   1.000  C
  C68      1.0000 0.21411  0.42100  0.57227  Biso   1.000  C
  H77      1.0000 0.05349  0.33068  0.89126  Biso   1.000  H
  H78      1.0000 0.98470  0.31470  0.85698  Biso   1.000  H
  C69      1.0000 0.29429  0.81540  0.41907  Biso   1.000  C
  C70      1.0000 0.20689  0.78588  0.57227  Biso   1.000  C
  H79      1.0000 0.27720  0.94649  0.89126  Biso   1.000  H
  H80      1.0000 0.32999  0.01531  0.85698  Biso   1.000  H
  H81      1.0000 0.24550  0.45520  0.34952  Biso   1.000  H
  C71      1.0000 0.16041  0.54009  0.28471  Biso   1.000  C
  H82      1.0000 0.20490  0.55701  0.12276  Biso   1.000  H
  C72      1.0000 0.27409  0.76707  0.22328  Biso   1.000  C
  H83      1.0000 0.35208  0.79510  0.12276  Biso   1.000  H
  H84      1.0000 0.38601  0.87179  0.45228  Biso   1.000  H
  C73      1.0000 0.15418  0.51159  0.39318  Biso   1.000  C
  H85      1.0000 0.19940  0.39848  0.64789  Biso   1.000  H
  H86      1.0000 0.25688  0.45469  0.58173  Biso   1.000  H
  H87      1.0000 0.21239  0.39259  0.50987  Biso   1.000  H
  C74      1.0000 0.25289  0.77578  0.33318  Biso   1.000  C
  H88      1.0000 0.19911  0.80057  0.64789  Biso   1.000  H
  H89      1.0000 0.19782  0.74311  0.58173  Biso   1.000  H
  H90      1.0000 0.18022  0.78759  0.50987  Biso   1.000  H
  C75      1.0000 0.12631  0.57350  0.25560  Biso   1.000  C
  C76      1.0000 0.22999  0.72267  0.13249  Biso   1.000  C
  H91      1.0000 0.12819  0.51419  0.45228  Biso   1.000  H
  H92      1.0000 0.20970  0.75451  0.34952  Biso   1.000  H
  N11      1.0000 0.11330  0.57647  0.14713  Biso   1.000  N
  C77      1.0000 0.11030  0.60210  0.36131  Biso   1.000  C
  N12      1.0000 0.17359  0.70988  0.13829  Biso   1.000  N
  C78      1.0000 0.25730  0.69969  0.04026  Biso   1.000  C
  C79      1.0000 0.08068  0.60858  0.11106  Biso   1.000  C
  H93      1.0000 0.14510  0.62008  0.41764  Biso   1.000  H
  H94      1.0000 0.07329  0.56989  0.40166  Biso   1.000  H
  H95      1.0000 0.10239  0.63458  0.33220  Biso   1.000  H
  C80      1.0000 0.12749  0.66971  0.05107  Biso   1.000  C
  H96      1.0000 0.22460  0.66030  0.00750  Biso   1.000  H
  H97      1.0000 0.28930  0.69329  0.07731  Biso   1.000  H
  H98      1.0000 0.27568  0.73027  0.97607  Biso   1.000  H
  H99      1.0000 0.06232  0.61730  0.18257  Biso   1.000  H
  C81      1.0000 0.02929  0.56729  0.02312  Biso   1.000  C
  C82      1.0000 0.09481  0.70298  0.00321  Biso   1.000  C
  H100     1.0000 0.14858  0.66099  0.98402  Biso   1.000  H
  C83      1.0000 0.99567  0.60071  0.97420  Biso   1.000  C
  H101     1.0000 0.99899  0.52860  0.06383  Biso   1.000  H
  H102     1.0000 0.04748  0.55599  0.95581  Biso   1.000  H
  H103     1.0000 0.07688  0.71447  0.07062  Biso   1.000  H
  H104     1.0000 0.12539  0.74167  0.96268  Biso   1.000  H
  C84      1.0000 0.04299  0.66187  0.91447  Biso   1.000  C
  H105     1.0000 0.96396  0.57387  0.91528  Biso   1.000  H
  H106     1.0000 0.97480  0.60928  0.04026  Biso   1.000  H
  H107     1.0000 0.02169  0.68421  0.88671  Biso   1.000  H
  H108     1.0000 0.06130  0.65298  0.84412  Biso   1.000  H
  C85      1.0000 0.78266  0.81767  0.58629  Biso   1.000  C
  C86      1.0000 0.82061  0.81781  0.47898  Biso   1.000  C
  H109     1.0000 0.75261  0.77490  0.60807  Biso   1.000  H
  H110     1.0000 0.76077  0.83987  0.56584  Biso   1.000  H
  H111     1.0000 0.81051  0.83829  0.65387  Biso   1.000  H
  N13      1.0000 0.80740  0.81531  0.36988  Biso   1.000  N
  C87      1.0000 0.88209  0.82277  0.50817  Biso   1.000  C
  C88      1.0000 0.74957  0.81049  0.32774  Biso   1.000  C
  C89      1.0000 0.89328  0.80349  0.61709  Biso   1.000  C
  C90      1.0000 0.92978  0.84849  0.42434  Biso   1.000  C
  C91      1.0000 0.72180  0.75961  0.23382  Biso   1.000  C
  C92      1.0000 0.76227  0.87128  0.27024  Biso   1.000  C
  H112     1.0000 0.72010  0.80011  0.39577  Biso   1.000  H
  C93      1.0000 0.95208  0.80928  0.64360  Biso   1.000  C
  H113     1.0000 0.86116  0.78597  0.67512  Biso   1.000  H
  H114     1.0000 0.92259  0.86220  0.35006  Biso   1.000  H
  C94      1.0000 0.98679  0.85446  0.44532  Biso   1.000  C
  C95      1.0000 0.66169  0.75270  0.18463  Biso   1.000  C
  H115     1.0000 0.71351  0.71989  0.26971  Biso   1.000  H
  H116     1.0000 0.75170  0.76971  0.16784  Biso   1.000  H
  C96      1.0000 0.70017  0.86378  0.22311  Biso   1.000  C
  N14      1.0000 0.78762  0.92101  0.35979  Biso   1.000  N
  H117     1.0000 0.79227  0.88208  0.20284  Biso   1.000  H
  C97      1.0000 0.96228  0.79028  0.76234  Biso   1.000  C
  C98      1.0000 0.99760  0.83380  0.55450  Biso   1.000  C
  C99      1.0000 0.03760  0.88241  0.35390  Biso   1.000  C
  C100     1.0000 0.67028  0.81211  0.13311  Biso   1.000  C
  H118     1.0000 0.64550  0.72040  0.12186  Biso   1.000  H
  H119     1.0000 0.63058  0.73880  0.24953  Biso   1.000  H
  H120     1.0000 0.67157  0.85507  0.29087  Biso   1.000  H
  H121     1.0000 0.70818  0.90307  0.18561  Biso   1.000  H
  C101     1.0000 0.84479  0.96239  0.35390  Biso   1.000  C
  N15      1.0000 0.91478  0.75877  0.82930  Biso   1.000  N
  C102     1.0000 0.02779  0.80998  0.79359  Biso   1.000  C
  H122     1.0000 0.03651  0.83648  0.56816  Biso   1.000  H
  N16      1.0000 0.07902  0.86660  0.35979  Biso   1.000  N
  C103     1.0000 0.03198  0.92319  0.26221  Biso   1.000  C
  H123     1.0000 0.62948  0.80659  0.10928  Biso   1.000  H
  H124     1.0000 0.69660  0.82309  0.06080  Biso   1.000  H
  C104     1.0000 0.89117  0.96800  0.26221  Biso   1.000  C
  C105     1.0000 0.86772  0.01322  0.44532  Biso   1.000  C
  C106     1.0000 0.91799  0.74167  0.94956  Biso   1.000  C
  H125     1.0000 0.04409  0.79177  0.73672  Biso   1.000  H
  H126     1.0000 0.02940  0.79570  0.87439  Biso   1.000  H
  H127     1.0000 0.05290  0.85530  0.79029  Biso   1.000  H
  C107     1.0000 0.12869  0.89098  0.27024  Biso   1.000  C
  H128     1.0000 0.00648  0.89779  0.19552  Biso   1.000  H
  H129     1.0000 0.07330  0.95340  0.23284  Biso   1.000  H
  H130     1.0000 0.01252  0.94510  0.29828  Biso   1.000  H
  H131     1.0000 0.89128  0.99348  0.19552  Biso   1.000  H
  H132     1.0000 0.88008  0.92671  0.23284  Biso   1.000  H
  H133     1.0000 0.93259  0.98751  0.29828  Biso   1.000  H
  C108     1.0000 0.83619  0.00243  0.55450  Biso   1.000  C
  C109     1.0000 0.91869  0.07022  0.42434  Biso   1.000  C
  H134     1.0000 0.96241  0.76021  0.97348  Biso   1.000  H
  C110     1.0000 0.88581  0.67161  0.96286  Biso   1.000  C
  C111     1.0000 0.88690  0.76818  0.02910  Biso   1.000  C
  C112     1.0000 0.18950  0.93908  0.32774  Biso   1.000  C
  H135     1.0000 0.11790  0.91016  0.20284  Biso   1.000  H
  C113     1.0000 0.13619  0.83639  0.22311  Biso   1.000  C
  H136     1.0000 0.79999  0.96350  0.56816  Biso   1.000  H
  C114     1.0000 0.85722  0.04793  0.64360  Biso   1.000  C
  C115     1.0000 0.94069  0.11791  0.50817  Biso   1.000  C
  H137     1.0000 0.93958  0.07741  0.35006  Biso   1.000  H
  H138     1.0000 0.90869  0.65548  0.91670  Biso   1.000  H
  H139     1.0000 0.84329  0.65270  0.93036  Biso   1.000  H
  C116     1.0000 0.88300  0.65330  0.09562  Biso   1.000  C
  H140     1.0000 0.84459  0.75548  0.99741  Biso   1.000  H
  N17      1.0000 0.92567  0.83537  0.02366  Biso   1.000  N
  C117     1.0000 0.88208  0.74867  0.15900  Biso   1.000  C
  N18      1.0000 0.18471  0.99209  0.36988  Biso   1.000  N
  H141     1.0000 0.19990  0.91999  0.39577  Biso   1.000  H
  C118     1.0000 0.24039  0.96220  0.23382  Biso   1.000  C
  C119     1.0000 0.18789  0.85817  0.13311  Biso   1.000  C
  H142     1.0000 0.14489  0.81646  0.29087  Biso   1.000  H
  H143     1.0000 0.09689  0.80507  0.18561  Biso   1.000  H
  C120     1.0000 0.82800  0.03774  0.76234  Biso   1.000  C
  C121     1.0000 0.91022  0.10674  0.61709  Biso   1.000  C
  C122     1.0000 0.99720  0.17940  0.47898  Biso   1.000  C
  C123     1.0000 0.84956  0.67777  0.16847  Biso   1.000  C
  H144     1.0000 0.86131  0.60761  0.10249  Biso   1.000  H
  H145     1.0000 0.92557  0.66998  0.12677  Biso   1.000  H
  C124     1.0000 0.90677  0.86957  0.97152  Biso   1.000  C
  H146     1.0000 0.85849  0.76410  0.20454  Biso   1.000  H
  H147     1.0000 0.92418  0.76721  0.19400  Biso   1.000  H
  C125     1.0000 0.18219  0.00280  0.47898  Biso   1.000  C
  C126     1.0000 0.24730  0.90901  0.18463  Biso   1.000  C
  H148     1.0000 0.28008  0.99358  0.26971  Biso   1.000  H
  H149     1.0000 0.23030  0.98199  0.16784  Biso   1.000  H
  H150     1.0000 0.19342  0.82291  0.10928  Biso   1.000  H
  H151     1.0000 0.17688  0.87346  0.06080  Biso   1.000  H
  C127     1.0000 0.78217  0.97217  0.79359  Biso   1.000  C
  N19      1.0000 0.84401  0.08524  0.82930  Biso   1.000  N
  H152     1.0000 0.92481  0.13881  0.67512  Biso   1.000  H
  N20      1.0000 0.00789  0.19261  0.36988  Biso   1.000  N
  C128     1.0000 0.03501  0.21731  0.58629  Biso   1.000  C
  H153     1.0000 0.84837  0.66577  0.25310  Biso   1.000  H
  H154     1.0000 0.80628  0.65960  0.13990  Biso   1.000  H
  C129     1.0000 0.95390  0.93718  0.96634  Biso   1.000  C
  C130     1.0000 0.84377  0.84960  0.92108  Biso   1.000  C
  C131     1.0000 0.18231  0.96498  0.58629  Biso   1.000  C
  C132     1.0000 0.17723  0.05933  0.50817  Biso   1.000  C
  H155     1.0000 0.27958  0.92509  0.12186  Biso   1.000  H
  H156     1.0000 0.26120  0.89177  0.24953  Biso   1.000  H
  H157     1.0000 0.74772  0.95590  0.73672  Biso   1.000  H
  H158     1.0000 0.76630  0.97059  0.87439  Biso   1.000  H
  H159     1.0000 0.80239  0.94710  0.79029  Biso   1.000  H
  C133     1.0000 0.82371  0.08204  0.94956  Biso   1.000  C
  C134     1.0000 0.06091  0.25039  0.32774  Biso   1.000  C
  H160     1.0000 0.02230  0.24743  0.60807  Biso   1.000  H
  H161     1.0000 0.07912  0.23922  0.56584  Biso   1.000  H
  H162     1.0000 0.02781  0.18950  0.65387  Biso   1.000  H
  C135     1.0000 0.93747  0.98250  0.96599  Biso   1.000  C
  C136     1.0000 0.01750  0.95498  0.96599  Biso   1.000  C
  H163     1.0000 0.82300  0.86600  0.97072  Biso   1.000  H
  H164     1.0000 0.81930  0.80418  0.92001  Biso   1.000  H
  H165     1.0000 0.84810  0.86540  0.83948  Biso   1.000  H
  H166     1.0000 0.22510  0.97768  0.60807  Biso   1.000  H
  H167     1.0000 0.16009  0.92087  0.56584  Biso   1.000  H
  H168     1.0000 0.16170  0.97217  0.65387  Biso   1.000  H
  C137     1.0000 0.19653  0.08982  0.61709  Biso   1.000  C
  C138     1.0000 0.15149  0.08130  0.42434  Biso   1.000  C
  H169     1.0000 0.79779  0.03760  0.97348  Biso   1.000  H
  C139     1.0000 0.78577  0.11420  0.96286  Biso   1.000  C
  C140     1.0000 0.88131  0.11313  0.02910  Biso   1.000  C
  H170     1.0000 0.08000  0.27991  0.39577  Biso   1.000  H
  C141     1.0000 0.10902  0.23770  0.27024  Biso   1.000  C
  C142     1.0000 0.03781  0.27820  0.23382  Biso   1.000  C
  C143     1.0000 0.98329  0.04613  0.96634  Biso   1.000  C
  H171     1.0000 0.89490  0.97087  0.96563  Biso   1.000  H
  H172     1.0000 0.02909  0.92397  0.96563  Biso   1.000  H
  C144     1.0000 0.06281  0.01670  0.96634  Biso   1.000  C
  C145     1.0000 0.19073  0.14284  0.64360  Biso   1.000  C
  H173     1.0000 0.21399  0.07523  0.67512  Biso   1.000  H
  C146     1.0000 0.14550  0.13232  0.44532  Biso   1.000  C
  H174     1.0000 0.13779  0.06040  0.35006  Biso   1.000  H
  H175     1.0000 0.74679  0.09131  0.91670  Biso   1.000  H
  H176     1.0000 0.80938  0.15669  0.93036  Biso   1.000  H
  C147     1.0000 0.77029  0.11703  0.09562  Biso   1.000  C
  H177     1.0000 0.91087  0.15540  0.99741  Biso   1.000  H
  N21      1.0000 0.90969  0.07430  0.02366  Biso   1.000  N
  C148     1.0000 0.86660  0.11791  0.15900  Biso   1.000  C
  N22      1.0000 0.13341  0.21239  0.35979  Biso   1.000  N
  H178     1.0000 0.08981  0.20771  0.20284  Biso   1.000  H
  C149     1.0000 0.16358  0.29979  0.22311  Biso   1.000  C
  C150     1.0000 0.09101  0.33830  0.18463  Biso   1.000  C
  H179     1.0000 0.00640  0.28649  0.26971  Biso   1.000  H
  H180     1.0000 0.01801  0.24831  0.16784  Biso   1.000  H
  C151     1.0000 0.96281  0.09321  0.97152  Biso   1.000  C
  C152     1.0000 0.04503  0.06253  0.96599  Biso   1.000  C
  C153     1.0000 0.13042  0.03723  0.97152  Biso   1.000  C
  C154     1.0000 0.16623  0.16383  0.55450  Biso   1.000  C
  C155     1.0000 0.20970  0.17203  0.76234  Biso   1.000  C
  C156     1.0000 0.11762  0.15521  0.35390  Biso   1.000  C
  C157     1.0000 0.82821  0.15044  0.16847  Biso   1.000  C
  H181     1.0000 0.74630  0.13871  0.10249  Biso   1.000  H
  H182     1.0000 0.74440  0.07439  0.12677  Biso   1.000  H
  H183     1.0000 0.90557  0.14149  0.20454  Biso   1.000  H
  H184     1.0000 0.84300  0.07583  0.19400  Biso   1.000  H
  C158     1.0000 0.14183  0.32973  0.13311  Biso   1.000  C
  H185     1.0000 0.18352  0.32843  0.29087  Biso   1.000  H
  H186     1.0000 0.19491  0.29182  0.18561  Biso   1.000  H
  H187     1.0000 0.07492  0.35452  0.12186  Biso   1.000  H
  H188     1.0000 0.10821  0.36939  0.24953  Biso   1.000  H
  C159     1.0000 0.00580  0.15623  0.92108  Biso   1.000  C
  H189     1.0000 0.07600  0.10512  0.96563  Biso   1.000  H
  C160     1.0000 0.15039  0.99418  0.92108  Biso   1.000  C
  N23      1.0000 0.16460  0.09033  0.02366  Biso   1.000  N
  H190     1.0000 0.16350  0.20002  0.56816  Biso   1.000  H
  N24      1.0000 0.24121  0.15600  0.82930  Biso   1.000  N
  C161     1.0000 0.19001  0.21782  0.79359  Biso   1.000  C
  C162     1.0000 0.07681  0.10882  0.26221  Biso   1.000  C
  H191     1.0000 0.81739  0.15160  0.25310  Biso   1.000  H
  H192     1.0000 0.85330  0.19372  0.13990  Biso   1.000  H
  H193     1.0000 0.17711  0.37051  0.10928  Biso   1.000  H
  H194     1.0000 0.12650  0.30341  0.06080  Biso   1.000  H
  H195     1.0000 0.98488  0.18070  0.92001  Biso   1.000  H
  H196     1.0000 0.04301  0.17704  0.97072  Biso   1.000  H
  H197     1.0000 0.01733  0.15192  0.83948  Biso   1.000  H
  H198     1.0000 0.13399  0.95697  0.97072  Biso   1.000  H
  H199     1.0000 0.13461  0.98269  0.83948  Biso   1.000  H
  H200     1.0000 0.19582  0.01512  0.92001  Biso   1.000  H
  C163     1.0000 0.23179  0.11869  0.02910  Biso   1.000  C
  C164     1.0000 0.25831  0.17629  0.94956  Biso   1.000  C
  H201     1.0000 0.20818  0.25229  0.73672  Biso   1.000  H
  H202     1.0000 0.20430  0.23371  0.87439  Biso   1.000  H
  H203     1.0000 0.14472  0.19761  0.79029  Biso   1.000  H
  H204     1.0000 0.10220  0.10873  0.19552  Biso   1.000  H
  H205     1.0000 0.04659  0.11990  0.23284  Biso   1.000  H
  H206     1.0000 0.05489  0.06740  0.29828  Biso   1.000  H
  H207     1.0000 0.24450  0.08913  0.99741  Biso   1.000  H
  C165     1.0000 0.25132  0.13343  0.15900  Biso   1.000  C
  H208     1.0000 0.23979  0.20220  0.97348  Biso   1.000  H
  C166     1.0000 0.32839  0.21420  0.96286  Biso   1.000  C
  C167     1.0000 0.32220  0.17180  0.16847  Biso   1.000  C
  H209     1.0000 0.23591  0.09441  0.20454  Biso   1.000  H
  H210     1.0000 0.23281  0.15702  0.19400  Biso   1.000  H
  H211     1.0000 0.34452  0.25322  0.91670  Biso   1.000  H
  H212     1.0000 0.34729  0.19061  0.93036  Biso   1.000  H
  C168     1.0000 0.34670  0.22973  0.09562  Biso   1.000  C
  H213     1.0000 0.33418  0.18260  0.25310  Biso   1.000  H
  H214     1.0000 0.34040  0.14673  0.13990  Biso   1.000  H
  H215     1.0000 0.39242  0.25373  0.10249  Biso   1.000  H
  H216     1.0000 0.33000  0.25563  0.12677  Biso   1.000  H
  C169     1.0000 0.71038  0.50311  0.63932  Biso   1.000  C
  C170     1.0000 0.73979  0.46771  0.58888  Biso   1.000  C
  H217     1.0000 0.69119  0.51410  0.57450  Biso   1.000  H
  H218     1.0000 0.74207  0.54088  0.67842  Biso   1.000  H
  H219     1.0000 0.67861  0.47721  0.69771  Biso   1.000  H
  C171     1.0000 0.70098  0.39778  0.59414  Biso   1.000  C
  N25      1.0000 0.79361  0.49130  0.54031  Biso   1.000  N
  C172     1.0000 0.63648  0.36711  0.59379  Biso   1.000  C
  C173     1.0000 0.73059  0.36349  0.59379  Biso   1.000  C
  C174     1.0000 0.83708  0.55738  0.53843  Biso   1.000  C
  C175     1.0000 0.60220  0.30320  0.59414  Biso   1.000  C
  H220     1.0000 0.61591  0.39051  0.59334  Biso   1.000  H
  C176     1.0000 0.69677  0.29899  0.59414  Biso   1.000  C
  H221     1.0000 0.77461  0.38411  0.59334  Biso   1.000  H
  C177     1.0000 0.86849  0.57628  0.41470  Biso   1.000  C
  H222     1.0000 0.81531  0.58101  0.55683  Biso   1.000  H
  C178     1.0000 0.88727  0.57068  0.63432  Biso   1.000  C
  C179     1.0000 0.53231  0.27211  0.58888  Biso   1.000  C
  C180     1.0000 0.63288  0.26937  0.59379  Biso   1.000  C
  C181     1.0000 0.72790  0.26020  0.58888  Biso   1.000  C
  H223     1.0000 0.88769  0.55089  0.39523  Biso   1.000  H
  H224     1.0000 0.83708  0.56868  0.35291  Biso   1.000  H
  C182     1.0000 0.91799  0.64487  0.41487  Biso   1.000  C
  N26      1.0000 0.85660  0.55460  0.75199  Biso   1.000  N
  C183     1.0000 0.93600  0.63931  0.63441  Biso   1.000  C
  H225     1.0000 0.90728  0.54519  0.61816  Biso   1.000  H
  N27      1.0000 0.50867  0.30228  0.54031  Biso   1.000  N
  C184     1.0000 0.49689  0.20728  0.63932  Biso   1.000  C
  H226     1.0000 0.60949  0.22540  0.59334  Biso   1.000  H
  N28      1.0000 0.69771  0.20640  0.54031  Biso   1.000  N
  C185     1.0000 0.79267  0.28958  0.63932  Biso   1.000  C
  C186     1.0000 0.96718  0.65937  0.51067  Biso   1.000  C
  H227     1.0000 0.89809  0.67008  0.42952  Biso   1.000  H
  H228     1.0000 0.93817  0.65627  0.33560  Biso   1.000  H
  C187     1.0000 0.85079  0.50840  0.80921  Biso   1.000  C
  H229     1.0000 0.96767  0.64728  0.69574  Biso   1.000  H
  H230     1.0000 0.91608  0.66401  0.65494  Biso   1.000  H
  C188     1.0000 0.44261  0.27971  0.53843  Biso   1.000  C
  H231     1.0000 0.48590  0.17711  0.57450  Biso   1.000  H
  H232     1.0000 0.45910  0.20121  0.67842  Biso   1.000  H
  H233     1.0000 0.52280  0.20139  0.69771  Biso   1.000  H
  C189     1.0000 0.72030  0.16289  0.53843  Biso   1.000  C
  H234     1.0000 0.82288  0.30881  0.57450  Biso   1.000  H
  H235     1.0000 0.79878  0.25788  0.67842  Biso   1.000  H
  H236     1.0000 0.79860  0.32141  0.69771  Biso   1.000  H
  H237     1.0000 0.99749  0.70451  0.51120  Biso   1.000  H
  H238     1.0000 0.98987  0.63718  0.49272  Biso   1.000  H
  C190     1.0000 0.81958  0.49588  0.92893  Biso   1.000  C
  C191     1.0000 0.87430  0.46511  0.77154  Biso   1.000  C
  C192     1.0000 0.42368  0.29217  0.41470  Biso   1.000  C
  H239     1.0000 0.41898  0.23430  0.55683  Biso   1.000  H
  C193     1.0000 0.42931  0.31659  0.63432  Biso   1.000  C
  C194     1.0000 0.70778  0.13151  0.41470  Biso   1.000  C
  H240     1.0000 0.76568  0.18471  0.55683  Biso   1.000  H
  C195     1.0000 0.68341  0.11270  0.63432  Biso   1.000  C
  C196     1.0000 0.77758  0.51600  0.95250  Biso   1.000  C
  C197     1.0000 0.83468  0.46757  0.01759  Biso   1.000  C
  H241     1.0000 0.91867  0.48458  0.78868  Biso   1.000  H
  H242     1.0000 0.86740  0.45668  0.68574  Biso   1.000  H
  H243     1.0000 0.85198  0.42610  0.81582  Biso   1.000  H
  C198     1.0000 0.35510  0.27308  0.41487  Biso   1.000  C
  H244     1.0000 0.44908  0.33680  0.39523  Biso   1.000  H
  H245     1.0000 0.43130  0.26840  0.35291  Biso   1.000  H
  C199     1.0000 0.36069  0.29672  0.63441  Biso   1.000  C
  N29      1.0000 0.44540  0.30200  0.75199  Biso   1.000  N
  H246     1.0000 0.45479  0.36210  0.61816  Biso   1.000  H
  H247     1.0000 0.66317  0.11228  0.39523  Biso   1.000  H
  H248     1.0000 0.73158  0.16289  0.35291  Biso   1.000  H
  C200     1.0000 0.72690  0.08202  0.41487  Biso   1.000  C
  N30      1.0000 0.69798  0.14338  0.75199  Biso   1.000  N
  C201     1.0000 0.70328  0.06400  0.63441  Biso   1.000  C
  H249     1.0000 0.63788  0.09268  0.61816  Biso   1.000  H
  C202     1.0000 0.74971  0.50640  0.06696  Biso   1.000  C
  H250     1.0000 0.76749  0.53611  0.89188  Biso   1.000  H
  H251     1.0000 0.86408  0.45478  0.00116  Biso   1.000  H
  C203     1.0000 0.80850  0.45719  0.12927  Biso   1.000  C
  C204     1.0000 0.34059  0.30779  0.51067  Biso   1.000  C
  H252     1.0000 0.32990  0.22799  0.42952  Biso   1.000  H
  H253     1.0000 0.34369  0.28189  0.33560  Biso   1.000  H
  H254     1.0000 0.35271  0.32039  0.69574  Biso   1.000  H
  H255     1.0000 0.33597  0.25209  0.65494  Biso   1.000  H
  C205     1.0000 0.49161  0.34241  0.80921  Biso   1.000  C
  C206     1.0000 0.69218  0.03281  0.51067  Biso   1.000  C
  H256     1.0000 0.77200  0.10190  0.42952  Biso   1.000  H
  H257     1.0000 0.71808  0.06182  0.33560  Biso   1.000  H
  C207     1.0000 0.65760  0.14921  0.80921  Biso   1.000  C
  H258     1.0000 0.67961  0.03230  0.69574  Biso   1.000  H
  H259     1.0000 0.74792  0.08392  0.65494  Biso   1.000  H
  C208     1.0000 0.70549  0.52800  0.09678  Biso   1.000  C
  C209     1.0000 0.76537  0.47689  0.15284  Biso   1.000  C
  C210     1.0000 0.82406  0.42508  0.22489  Biso   1.000  C
  H260     1.0000 0.29551  0.29301  0.51120  Biso   1.000  H
  H261     1.0000 0.36280  0.35269  0.49272  Biso   1.000  H
  C211     1.0000 0.50409  0.32369  0.92893  Biso   1.000  C
  C212     1.0000 0.53487  0.40918  0.77154  Biso   1.000  C
  H262     1.0000 0.70701  0.00250  0.51120  Biso   1.000  H
  H263     1.0000 0.64728  0.01010  0.49272  Biso   1.000  H
  C213     1.0000 0.67628  0.18040  0.92893  Biso   1.000  C
  C214     1.0000 0.59079  0.12572  0.77154  Biso   1.000  C
  N31      1.0000 0.69848  0.53398  0.20980  Biso   1.000  N
  C215     1.0000 0.67449  0.54209  0.99464  Biso   1.000  C
  H264     1.0000 0.74681  0.46970  0.22953  Biso   1.000  H
  N32      1.0000 0.87788  0.43221  0.22177  Biso   1.000  N
  C216     1.0000 0.77309  0.38870  0.31158  Biso   1.000  C
  C217     1.0000 0.48399  0.26159  0.95250  Biso   1.000  C
  C218     1.0000 0.53242  0.36711  0.01759  Biso   1.000  C
  H265     1.0000 0.51540  0.43411  0.78868  Biso   1.000  H
  H266     1.0000 0.54330  0.41071  0.68574  Biso   1.000  H
  H267     1.0000 0.57390  0.42591  0.81582  Biso   1.000  H
  C219     1.0000 0.73837  0.22239  0.95250  Biso   1.000  C
  C220     1.0000 0.63289  0.16529  0.01759  Biso   1.000  C
  H268     1.0000 0.56588  0.08128  0.78868  Biso   1.000  H
  H269     1.0000 0.58928  0.13258  0.68574  Biso   1.000  H
  H270     1.0000 0.57409  0.14801  0.81582  Biso   1.000  H
  C221     1.0000 0.65418  0.55140  0.25319  Biso   1.000  C
  H271     1.0000 0.70409  0.58180  0.95831  Biso   1.000  H
  H272     1.0000 0.66060  0.50918  0.93447  Biso   1.000  H
  H273     1.0000 0.63880  0.54431  0.02500  Biso   1.000  H
  C222     1.0000 0.89557  0.40098  0.31033  Biso   1.000  C
  H274     1.0000 0.77520  0.41572  0.37729  Biso   1.000  H
  H275     1.0000 0.77741  0.35441  0.34336  Biso   1.000  H
  H276     1.0000 0.73298  0.37197  0.27114  Biso   1.000  H
  H277     1.0000 0.46387  0.23138  0.89188  Biso   1.000  H
  C223     1.0000 0.49358  0.24329  0.06696  Biso   1.000  C
  H278     1.0000 0.54519  0.40928  0.00116  Biso   1.000  H
  C224     1.0000 0.54278  0.35130  0.12927  Biso   1.000  C
  H279     1.0000 0.76858  0.23249  0.89188  Biso   1.000  H
  C225     1.0000 0.75669  0.25028  0.06696  Biso   1.000  C
  C226     1.0000 0.64867  0.19148  0.12927  Biso   1.000  C
  H280     1.0000 0.59071  0.13592  0.00116  Biso   1.000  H
  C227     1.0000 0.59901  0.49459  0.31033  Biso   1.000  C
  C228     1.0000 0.68549  0.60117  0.34943  Biso   1.000  C
  H281     1.0000 0.63970  0.56739  0.18597  Biso   1.000  H
  C229     1.0000 0.89719  0.34579  0.25319  Biso   1.000  C
  C230     1.0000 0.95809  0.44727  0.36559  Biso   1.000  C
  H282     1.0000 0.86369  0.38490  0.37497  Biso   1.000  H
  C231     1.0000 0.52310  0.28851  0.15284  Biso   1.000  C
  C232     1.0000 0.47200  0.17748  0.09678  Biso   1.000  C
  C233     1.0000 0.57489  0.39899  0.22489  Biso   1.000  C
  C234     1.0000 0.71148  0.23457  0.15284  Biso   1.000  C
  C235     1.0000 0.82250  0.29449  0.09678  Biso   1.000  C
  C236     1.0000 0.60100  0.17591  0.22489  Biso   1.000  C
  N33      1.0000 0.56778  0.44570  0.22177  Biso   1.000  N
  C237     1.0000 0.55270  0.51081  0.36559  Biso   1.000  C
  H283     1.0000 0.61510  0.47879  0.37497  Biso   1.000  H
  C238     1.0000 0.64121  0.61711  0.40648  Biso   1.000  C
  H284     1.0000 0.70321  0.58620  0.41130  Biso   1.000  H
  H285     1.0000 0.71988  0.63898  0.31310  Biso   1.000  H
  N34      1.0000 0.83547  0.30149  0.20980  Biso   1.000  N
  C239     1.0000 0.91570  0.31451  0.34943  Biso   1.000  C
  H286     1.0000 0.92768  0.36029  0.18597  Biso   1.000  H
  H287     1.0000 0.95499  0.48161  0.40318  Biso   1.000  H
  H288     1.0000 0.99000  0.46511  0.30221  Biso   1.000  H
  C240     1.0000 0.97758  0.41539  0.46014  Biso   1.000  C
  H289     1.0000 0.53028  0.27711  0.22953  Biso   1.000  H
  C241     1.0000 0.45788  0.13239  0.99464  Biso   1.000  C
  N35      1.0000 0.46599  0.16451  0.20980  Biso   1.000  N
  C242     1.0000 0.61129  0.38439  0.31158  Biso   1.000  C
  H290     1.0000 0.72288  0.25320  0.22953  Biso   1.000  H
  C243     1.0000 0.86758  0.32549  0.99464  Biso   1.000  C
  N36      1.0000 0.55431  0.12211  0.22177  Biso   1.000  N
  C244     1.0000 0.61557  0.22688  0.31158  Biso   1.000  C
  H291     1.0000 0.51839  0.47341  0.40318  Biso   1.000  H
  H292     1.0000 0.53490  0.52489  0.30221  Biso   1.000  H
  C245     1.0000 0.58457  0.56220  0.46014  Biso   1.000  C
  H293     1.0000 0.62749  0.63671  0.34604  Biso   1.000  H
  H294     1.0000 0.66321  0.64811  0.47023  Biso   1.000  H
  H295     1.0000 0.88297  0.29681  0.41130  Biso   1.000  H
  H296     1.0000 0.91907  0.28008  0.31310  Biso   1.000  H
  C246     1.0000 0.97590  0.35881  0.40648  Biso   1.000  C
  H297     1.0000 0.94897  0.40288  0.52924  Biso   1.000  H
  H298     1.0000 0.01991  0.44459  0.48880  Biso   1.000  H
  H299     1.0000 0.41820  0.12229  0.95831  Biso   1.000  H
  H300     1.0000 0.49078  0.15139  0.93447  Biso   1.000  H
  H301     1.0000 0.45570  0.09449  0.02500  Biso   1.000  H
  C247     1.0000 0.44857  0.10278  0.25319  Biso   1.000  C
  H302     1.0000 0.58428  0.35951  0.37729  Biso   1.000  H
  H303     1.0000 0.64560  0.42299  0.34336  Biso   1.000  H
  H304     1.0000 0.62800  0.36099  0.27114  Biso   1.000  H
  H305     1.0000 0.87769  0.29588  0.95831  Biso   1.000  H
  H306     1.0000 0.84860  0.33939  0.93447  Biso   1.000  H
  H307     1.0000 0.90548  0.36117  0.02500  Biso   1.000  H
  C248     1.0000 0.50541  0.10440  0.31033  Biso   1.000  C
  H308     1.0000 0.64049  0.22480  0.37729  Biso   1.000  H
  H309     1.0000 0.57700  0.22262  0.34336  Biso   1.000  H
  H310     1.0000 0.63900  0.26701  0.27114  Biso   1.000  H
  H311     1.0000 0.55541  0.57531  0.48880  Biso   1.000  H
  H312     1.0000 0.59710  0.54607  0.52924  Biso   1.000  H
  H313     1.0000 0.98488  0.33680  0.47023  Biso   1.000  H
  H314     1.0000 0.00918  0.37248  0.34604  Biso   1.000  H
  C249     1.0000 0.39880  0.08429  0.34943  Biso   1.000  C
  H315     1.0000 0.43261  0.07229  0.18597  Biso   1.000  H
  C250     1.0000 0.48920  0.04189  0.36559  Biso   1.000  C
  H316     1.0000 0.52119  0.13629  0.37497  Biso   1.000  H
  H317     1.0000 0.41379  0.11701  0.41130  Biso   1.000  H
  H318     1.0000 0.36099  0.08091  0.31310  Biso   1.000  H
  C251     1.0000 0.38290  0.02410  0.40648  Biso   1.000  C
  H319     1.0000 0.52659  0.04500  0.40318  Biso   1.000  H
  H320     1.0000 0.47511  0.01001  0.30221  Biso   1.000  H
  C252     1.0000 0.43779  0.02238  0.46014  Biso   1.000  C
  H321     1.0000 0.36328  0.99078  0.34604  Biso   1.000  H
  H322     1.0000 0.35188  0.01511  0.47023  Biso   1.000  H
  H323     1.0000 0.42470  0.98007  0.48880  Biso   1.000  H
  H324     1.0000 0.45392  0.05102  0.52924  Biso   1.000  H
  Ne1      1.0000 0.66666  0.33333  0.93424  Biso   1.000  Ne
  He1      1.0000 0.66666  0.33333  0.27638  Biso   1.000  He
  He2      1.0000 0.64351  0.47530  0.81287  Biso   1.000  He
  He3      1.0000 0.52075  0.16305  0.80865  Biso   1.000  He
  He4      1.0000 0.82674  0.35529  0.81705  Biso   1.000  He
  Ar1      1.0000 0.66665  0.33333  0.93812  Biso   1.000  Ar
  Ne2      1.0000 0.33333  0.66666  0.41981  Biso   1.000  Ne
  He5      1.0000 0.52748  0.82984  0.45393  Biso   1.000  He
  He6      1.0000 0.34000  0.46868  0.55824  Biso   1.000  He
  He7      1.0000 0.20340  0.69309  0.47463  Biso   1.000  He
  He8      1.0000 0.44853  0.89789  0.52588  Biso   1.000  He
  He9      1.0000 0.33331  0.66664  0.07078  Biso   1.000  He
  Ar2      1.0000 0.33329  0.66555  0.41053  Biso   1.000  Ar
  Ne3      1.0000 1.00000  0.00000  0.64300  Biso   1.000  Ne
  He10     1.0000 0.11841  0.92044  0.75757  Biso   1.000  He
  He11     1.0000 0.80125  0.88100  0.75820  Biso   1.000  He
  He12     1.0000 0.11767  0.21202  0.66070  Biso   1.000  He
  He13     1.0000 0.99999  0.99999  0.29370  Biso   1.000  He
  Ar3      1.0000 0.99999  0.99999  0.63063  Biso   1.000  Ar
