data_image0
_cell_length_a       26.8
_cell_length_b       26.8
_cell_length_c       11.403
_cell_angle_alpha    90
_cell_angle_beta     90
_cell_angle_gamma    120

_symmetry_space_group_name_H-M    "P 1"
_symmetry_int_tables_number       1

loop_
  _symmetry_equiv_pos_as_xyz
  'x, y, z'

loop_
  _atom_site_label
  _atom_site_occupancy
  _atom_site_fract_x
  _atom_site_fract_y
  _atom_site_fract_z
  _atom_site_thermal_displace_type
  _atom_site_B_iso_or_equiv
  _atom_site_type_symbol
  C1       1.0000 0.49879  0.62220  0.42629  Biso   1.000  C
  C2       1.0000 0.49940  0.65702  0.32237  Biso   1.000  C
  H1       1.0000 0.50079  0.64241  0.49724  Biso   1.000  H
  H2       1.0000 0.46390  0.58549  0.42577  Biso   1.000  H
  H3       1.0000 0.53139  0.61652  0.42217  Biso   1.000  H
  N1       1.0000 0.49729  0.64250  0.21740  Biso   1.000  N
  C3       1.0000 0.50089  0.71268  0.34824  Biso   1.000  C
  C4       1.0000 0.49770  0.58980  0.18311  Biso   1.000  C
  C5       1.0000 0.48169  0.73741  0.26318  Biso   1.000  C
  C6       1.0000 0.52011  0.74052  0.45348  Biso   1.000  C
  C7       1.0000 0.43971  0.54710  0.12339  Biso   1.000  C
  C8       1.0000 0.54729  0.60549  0.09769  Biso   1.000  C
  H4       1.0000 0.50309  0.57171  0.25300  Biso   1.000  H
  H5       1.0000 0.46981  0.71992  0.19021  Biso   1.000  H
  C9       1.0000 0.48018  0.78649  0.28642  Biso   1.000  C
  C10      1.0000 0.52048  0.79119  0.47961  Biso   1.000  C
  H6       1.0000 0.53340  0.72479  0.50960  Biso   1.000  H
  C11      1.0000 0.44381  0.49531  0.08094  Biso   1.000  C
  N2       1.0000 0.39312  0.52810  0.20696  Biso   1.000  N
  H7       1.0000 0.43272  0.56580  0.05674  Biso   1.000  H
  C12      1.0000 0.55231  0.55732  0.05288  Biso   1.000  C
  H8       1.0000 0.54281  0.62569  0.03157  Biso   1.000  H
  H9       1.0000 0.58308  0.63198  0.13672  Biso   1.000  H
  C13      1.0000 0.50061  0.81449  0.39384  Biso   1.000  C
  C14      1.0000 0.45651  0.81131  0.19653  Biso   1.000  C
  C15      1.0000 0.54000  0.81820  0.60011  Biso   1.000  C
  C16      1.0000 0.49648  0.51289  0.00114  Biso   1.000  C
  H10      1.0000 0.40901  0.46959  0.03806  Biso   1.000  H
  H11      1.0000 0.44632  0.47450  0.14821  Biso   1.000  H
  C17      1.0000 0.35480  0.54348  0.19653  Biso   1.000  C
  H12      1.0000 0.56310  0.54038  0.11620  Biso   1.000  H
  H13      1.0000 0.58230  0.57102  0.99369  Biso   1.000  H
  H14      1.0000 0.50089  0.84879  0.40849  Biso   1.000  H
  N3       1.0000 0.47190  0.86499  0.20696  Biso   1.000  N
  C18      1.0000 0.41439  0.76848  0.10681  Biso   1.000  C
  N4       1.0000 0.56597  0.79911  0.66079  Biso   1.000  N
  C19      1.0000 0.52291  0.86142  0.63790  Biso   1.000  C
  H15      1.0000 0.49900  0.47890  0.98307  Biso   1.000  H
  H16      1.0000 0.49058  0.52759  0.92783  Biso   1.000  H
  C20      1.0000 0.30631  0.51979  0.28642  Biso   1.000  C
  C21      1.0000 0.35410  0.58558  0.10681  Biso   1.000  C
  C22      1.0000 0.45291  0.89261  0.12339  Biso   1.000  C
  H17      1.0000 0.41079  0.73151  0.11892  Biso   1.000  H
  H18      1.0000 0.37742  0.76551  0.11611  Biso   1.000  H
  H19      1.0000 0.42851  0.78179  0.02903  Biso   1.000  H
  C23      1.0000 0.58319  0.81579  0.78321  Biso   1.000  C
  H20      1.0000 0.50371  0.86840  0.57441  Biso   1.000  H
  H21      1.0000 0.49751  0.84659  0.70403  Biso   1.000  H
  H22      1.0000 0.55679  0.89679  0.65921  Biso   1.000  H
  C24      1.0000 0.25571  0.51828  0.26318  Biso   1.000  C
  C25      1.0000 0.31392  0.49941  0.39384  Biso   1.000  C
  H23      1.0000 0.32068  0.58920  0.11892  Biso   1.000  H
  H24      1.0000 0.38809  0.62259  0.11611  Biso   1.000  H
  H25      1.0000 0.35328  0.57149  0.02903  Biso   1.000  H
  C26      1.0000 0.41022  0.90790  0.18311  Biso   1.000  C
  C27      1.0000 0.50469  0.94849  0.08094  Biso   1.000  C
  H26      1.0000 0.43419  0.86689  0.05674  Biso   1.000  H
  H27      1.0000 0.57389  0.84539  0.80689  Biso   1.000  H
  C28      1.0000 0.64910  0.83992  0.79304  Biso   1.000  C
  C29      1.0000 0.55091  0.76279  0.85986  Biso   1.000  C
  H28      1.0000 0.25011  0.53021  0.19021  Biso   1.000  H
  C30      1.0000 0.21179  0.49911  0.34824  Biso   1.000  C
  C31      1.0000 0.27068  0.47950  0.47961  Biso   1.000  C
  H29      1.0000 0.34791  0.49911  0.40849  Biso   1.000  H
  N5       1.0000 0.35750  0.85478  0.21740  Biso   1.000  N
  H30      1.0000 0.42831  0.93139  0.25300  Biso   1.000  H
  C32      1.0000 0.39449  0.94181  0.09769  Biso   1.000  C
  C33      1.0000 0.48710  0.98361  0.00114  Biso   1.000  C
  H31      1.0000 0.53041  0.93940  0.03806  Biso   1.000  H
  H32      1.0000 0.52549  0.97180  0.14821  Biso   1.000  H
  H33      1.0000 0.65869  0.81269  0.75813  Biso   1.000  H
  H34      1.0000 0.66932  0.87572  0.74936  Biso   1.000  H
  C34      1.0000 0.66930  0.85069  0.92020  Biso   1.000  C
  N6       1.0000 0.48933  0.74306  0.85486  Biso   1.000  N
  C35      1.0000 0.57062  0.77481  0.98842  Biso   1.000  C
  H35      1.0000 0.55730  0.73229  0.82969  Biso   1.000  H
  C36      1.0000 0.22039  0.47989  0.45348  Biso   1.000  C
  C37      1.0000 0.15762  0.50061  0.32237  Biso   1.000  C
  C38      1.0000 0.27820  0.45998  0.60011  Biso   1.000  C
  C39      1.0000 0.34300  0.84241  0.32237  Biso   1.000  C
  H36      1.0000 0.37429  0.91708  0.03157  Biso   1.000  H
  H37      1.0000 0.36802  0.95112  0.13672  Biso   1.000  H
  C40      1.0000 0.44268  0.99498  0.05288  Biso   1.000  C
  H38      1.0000 0.47240  0.96301  0.92783  Biso   1.000  H
  H39      1.0000 0.52109  0.02010  0.98307  Biso   1.000  H
  H40      1.0000 0.70948  0.86098  0.92318  Biso   1.000  H
  H41      1.0000 0.66651  0.88309  0.95010  Biso   1.000  H
  C41      1.0000 0.63489  0.79941  0.99798  Biso   1.000  C
  C42      1.0000 0.45201  0.69252  0.81978  Biso   1.000  C
  H42      1.0000 0.56040  0.80170  0.02166  Biso   1.000  H
  H43      1.0000 0.55101  0.73918  0.03280  Biso   1.000  H
  H44      1.0000 0.19141  0.46662  0.50960  Biso   1.000  H
  N7       1.0000 0.14518  0.50268  0.21740  Biso   1.000  N
  C43      1.0000 0.12341  0.50122  0.42629  Biso   1.000  C
  N8       1.0000 0.23314  0.43405  0.66079  Biso   1.000  N
  C44      1.0000 0.33851  0.47709  0.63790  Biso   1.000  C
  C45      1.0000 0.28732  0.78821  0.34824  Biso   1.000  C
  C46      1.0000 0.37781  0.87658  0.42629  Biso   1.000  C
  H45      1.0000 0.42899  0.01127  0.99369  Biso   1.000  H
  H46      1.0000 0.45959  0.02269  0.11620  Biso   1.000  H
  H47      1.0000 0.64398  0.76969  0.97808  Biso   1.000  H
  H48      1.0000 0.64650  0.81062  0.07866  Biso   1.000  H
  C47      1.0000 0.39088  0.67899  0.81689  Biso   1.000  C
  C48      1.0000 0.46542  0.64650  0.77936  Biso   1.000  C
  C49      1.0000 0.09208  0.50229  0.18311  Biso   1.000  C
  H49      1.0000 0.14161  0.49919  0.49724  Biso   1.000  H
  H50      1.0000 0.12160  0.53612  0.42577  Biso   1.000  H
  H51      1.0000 0.08508  0.46860  0.42217  Biso   1.000  H
  C50      1.0000 0.23262  0.41681  0.78321  Biso   1.000  C
  H52      1.0000 0.36472  0.49631  0.57441  Biso   1.000  H
  H53      1.0000 0.34909  0.50251  0.70403  Biso   1.000  H
  H54      1.0000 0.33999  0.44318  0.65921  Biso   1.000  H
  C51      1.0000 0.26260  0.74431  0.26318  Biso   1.000  C
  C52      1.0000 0.25950  0.77960  0.45348  Biso   1.000  C
  H55      1.0000 0.35760  0.85840  0.49724  Biso   1.000  H
  H56      1.0000 0.41449  0.87839  0.42577  Biso   1.000  H
  H57      1.0000 0.38349  0.91488  0.42217  Biso   1.000  H
  C53      1.0000 0.34532  0.62190  0.81619  Biso   1.000  C
  C54      1.0000 0.37809  0.72341  0.81619  Biso   1.000  C
  H58      1.0000 0.43018  0.61238  0.75761  Biso   1.000  H
  H59      1.0000 0.49081  0.66042  0.71297  Biso   1.000  H
  H60      1.0000 0.48349  0.63750  0.84197  Biso   1.000  H
  H61      1.0000 0.06860  0.49691  0.25300  Biso   1.000  H
  C55      1.0000 0.05822  0.45270  0.09769  Biso   1.000  C
  C56      1.0000 0.10738  0.56029  0.12339  Biso   1.000  C
  H62      1.0000 0.27149  0.42612  0.80689  Biso   1.000  H
  C57      1.0000 0.19078  0.35089  0.79304  Biso   1.000  C
  C58      1.0000 0.21189  0.44908  0.85986  Biso   1.000  C
  C59      1.0000 0.21348  0.69368  0.28642  Biso   1.000  C
  H63      1.0000 0.28010  0.74991  0.19021  Biso   1.000  H
  C60      1.0000 0.20880  0.72931  0.47961  Biso   1.000  C
  H64      1.0000 0.27519  0.80859  0.50960  Biso   1.000  H
  C61      1.0000 0.28812  0.60915  0.81689  Biso   1.000  C
  H65      1.0000 0.35339  0.59200  0.81522  Biso   1.000  H
  C62      1.0000 0.32101  0.71186  0.81689  Biso   1.000  C
  H66      1.0000 0.40802  0.76141  0.81522  Biso   1.000  H
  H67      1.0000 0.08288  0.45718  0.03157  Biso   1.000  H
  H68      1.0000 0.04890  0.41690  0.13672  Biso   1.000  H
  C63      1.0000 0.00501  0.44770  0.05288  Biso   1.000  C
  N9       1.0000 0.13502  0.60691  0.20696  Biso   1.000  N
  C64      1.0000 0.05149  0.55620  0.08094  Biso   1.000  C
  H69      1.0000 0.13310  0.56731  0.05674  Biso   1.000  H
  H70      1.0000 0.15400  0.34128  0.75813  Biso   1.000  H
  H71      1.0000 0.20639  0.33068  0.74936  Biso   1.000  H
  C65      1.0000 0.18139  0.33068  0.92020  Biso   1.000  C
  N10      1.0000 0.25374  0.51070  0.85486  Biso   1.000  N
  C66      1.0000 0.20421  0.42939  0.98842  Biso   1.000  C
  H72      1.0000 0.17501  0.44271  0.82969  Biso   1.000  H
  C67      1.0000 0.18869  0.64521  0.19653  Biso   1.000  C
  C68      1.0000 0.18551  0.68610  0.39384  Biso   1.000  C
  C69      1.0000 0.18180  0.72182  0.60011  Biso   1.000  C
  C70      1.0000 0.24053  0.54801  0.81978  Biso   1.000  C
  C71      1.0000 0.27660  0.65469  0.81619  Biso   1.000  C
  C72      1.0000 0.30746  0.75947  0.81978  Biso   1.000  C
  C73      1.0000 0.01641  0.50350  0.00114  Biso   1.000  C
  H73      1.0000 0.98871  0.41772  0.99369  Biso   1.000  H
  H74      1.0000 0.97729  0.43689  0.11620  Biso   1.000  H
  H75      1.0000 0.06062  0.59101  0.03806  Biso   1.000  H
  H76      1.0000 0.02819  0.55370  0.14821  Biso   1.000  H
  H77      1.0000 0.15151  0.29048  0.92318  Biso   1.000  H
  H78      1.0000 0.21659  0.33348  0.95010  Biso   1.000  H
  C74      1.0000 0.16450  0.36511  0.99798  Biso   1.000  C
  H79      1.0000 0.24129  0.43960  0.02166  Biso   1.000  H
  H80      1.0000 0.18819  0.44900  0.03280  Biso   1.000  H
  C75      1.0000 0.23149  0.64590  0.10681  Biso   1.000  C
  H81      1.0000 0.15120  0.65210  0.40849  Biso   1.000  H
  N11      1.0000 0.20088  0.76684  0.66079  Biso   1.000  N
  C76      1.0000 0.13858  0.66150  0.63790  Biso   1.000  C
  C77      1.0000 0.18111  0.53461  0.77936  Biso   1.000  C
  H82      1.0000 0.23859  0.64659  0.81522  Biso   1.000  H
  N12      1.0000 0.25695  0.74629  0.85486  Biso   1.000  N
  C78      1.0000 0.35351  0.81889  0.77936  Biso   1.000  C
  H83      1.0000 0.97990  0.50100  0.98307  Biso   1.000  H
  H84      1.0000 0.03702  0.50940  0.92783  Biso   1.000  H
  H85      1.0000 0.12570  0.35602  0.97808  Biso   1.000  H
  H86      1.0000 0.16411  0.35352  0.07866  Biso   1.000  H
  H87      1.0000 0.26849  0.67929  0.11892  Biso   1.000  H
  H88      1.0000 0.23450  0.61191  0.11611  Biso   1.000  H
  H89      1.0000 0.21821  0.64672  0.02903  Biso   1.000  H
  C79      1.0000 0.18419  0.76740  0.78321  Biso   1.000  C
  H90      1.0000 0.13161  0.63530  0.57441  Biso   1.000  H
  H91      1.0000 0.15340  0.65090  0.70403  Biso   1.000  H
  H92      1.0000 0.10320  0.65999  0.65921  Biso   1.000  H
  H93      1.0000 0.18222  0.56981  0.75761  Biso   1.000  H
  H94      1.0000 0.16959  0.50919  0.71297  Biso   1.000  H
  H95      1.0000 0.15400  0.51651  0.84197  Biso   1.000  H
  C80      1.0000 0.23718  0.78808  0.85986  Biso   1.000  C
  H96      1.0000 0.38760  0.81781  0.75761  Biso   1.000  H
  H97      1.0000 0.33960  0.83039  0.71297  Biso   1.000  H
  H98      1.0000 0.36251  0.84599  0.84197  Biso   1.000  H
  H99      1.0000 0.15458  0.72850  0.80689  Biso   1.000  H
  C81      1.0000 0.16008  0.80920  0.79304  Biso   1.000  C
  C82      1.0000 0.22521  0.79580  0.98842  Biso   1.000  C
  H100     1.0000 0.26769  0.82501  0.82969  Biso   1.000  H
  H101     1.0000 0.18729  0.84599  0.75813  Biso   1.000  H
  H102     1.0000 0.12430  0.79360  0.74936  Biso   1.000  H
  C83      1.0000 0.14929  0.81859  0.92020  Biso   1.000  C
  C84      1.0000 0.20060  0.83552  0.99798  Biso   1.000  C
  H103     1.0000 0.19830  0.75870  0.02166  Biso   1.000  H
  H104     1.0000 0.26078  0.81178  0.03280  Biso   1.000  H
  H105     1.0000 0.13898  0.84849  0.92318  Biso   1.000  H
  H106     1.0000 0.11688  0.78339  0.95010  Biso   1.000  H
  H107     1.0000 0.23028  0.87430  0.97808  Biso   1.000  H
  H108     1.0000 0.18941  0.83591  0.07866  Biso   1.000  H
  C85      1.0000 0.49343  0.47588  0.45970  Biso   1.000  C
  C86      1.0000 0.51751  0.43405  0.44988  Biso   1.000  C
  H109     1.0000 0.52063  0.51268  0.42480  Biso   1.000  H
  H110     1.0000 0.45764  0.46029  0.41603  Biso   1.000  H
  C87      1.0000 0.48264  0.48528  0.58686  Biso   1.000  C
  N13      1.0000 0.53423  0.43353  0.32746  Biso   1.000  N
  H111     1.0000 0.48793  0.39518  0.47356  Biso   1.000  H
  C88      1.0000 0.57052  0.45477  0.52653  Biso   1.000  C
  H112     1.0000 0.47233  0.51518  0.58984  Biso   1.000  H
  H113     1.0000 0.45022  0.45007  0.61677  Biso   1.000  H
  C89      1.0000 0.53392  0.50217  0.66465  Biso   1.000  C
  C90      1.0000 0.51513  0.38846  0.26677  Biso   1.000  C
  N14      1.0000 0.59027  0.41293  0.52153  Biso   1.000  N
  C91      1.0000 0.55856  0.46248  0.65509  Biso   1.000  C
  H114     1.0000 0.60101  0.49165  0.49636  Biso   1.000  H
  H115     1.0000 0.52273  0.50255  0.74533  Biso   1.000  H
  H116     1.0000 0.56363  0.54099  0.64474  Biso   1.000  H
  C92      1.0000 0.47193  0.32818  0.30457  Biso   1.000  C
  C93      1.0000 0.54212  0.39596  0.14628  Biso   1.000  C
  C94      1.0000 0.64080  0.42616  0.48645  Biso   1.000  C
  H117     1.0000 0.53165  0.42539  0.68833  Biso   1.000  H
  H118     1.0000 0.59412  0.47847  0.69947  Biso   1.000  H
  H119     1.0000 0.46493  0.30195  0.24108  Biso   1.000  H
  H120     1.0000 0.48674  0.31759  0.37069  Biso   1.000  H
  H121     1.0000 0.43655  0.32668  0.32588  Biso   1.000  H
  C95      1.0000 0.59284  0.44628  0.12014  Biso   1.000  C
  C96      1.0000 0.51886  0.35279  0.06051  Biso   1.000  C
  C97      1.0000 0.65435  0.37855  0.48356  Biso   1.000  C
  C98      1.0000 0.68686  0.48558  0.44602  Biso   1.000  C
  H122     1.0000 0.60854  0.47528  0.17627  Biso   1.000  H
  C99      1.0000 0.62064  0.45486  0.01491  Biso   1.000  C
  H123     1.0000 0.48452  0.31875  0.07516  Biso   1.000  H
  C100     1.0000 0.54683  0.36037  0.95308  Biso   1.000  C
  C101     1.0000 0.71141  0.39006  0.48286  Biso   1.000  C
  C102     1.0000 0.60992  0.32133  0.48286  Biso   1.000  C
  H124     1.0000 0.72092  0.48446  0.42427  Biso   1.000  H
  H125     1.0000 0.67294  0.49708  0.37964  Biso   1.000  H
  H126     1.0000 0.69585  0.51268  0.50864  Biso   1.000  H
  C103     1.0000 0.59592  0.41095  0.92984  Biso   1.000  C
  C104     1.0000 0.67632  0.50906  0.98904  Biso   1.000  C
  C105     1.0000 0.52201  0.31186  0.86319  Biso   1.000  C
  H127     1.0000 0.74134  0.42806  0.48189  Biso   1.000  H
  C106     1.0000 0.72420  0.34563  0.48356  Biso   1.000  C
  H128     1.0000 0.57194  0.31328  0.48189  Biso   1.000  H
  C107     1.0000 0.62144  0.27579  0.48356  Biso   1.000  C
  H129     1.0000 0.61343  0.41655  0.85688  Biso   1.000  H
  C108     1.0000 0.71115  0.54327  0.09296  Biso   1.000  C
  N15      1.0000 0.69085  0.52147  0.88407  Biso   1.000  N
  N16      1.0000 0.46834  0.27355  0.87363  Biso   1.000  N
  C109     1.0000 0.56484  0.31259  0.77348  Biso   1.000  C
  C110     1.0000 0.67866  0.28859  0.48286  Biso   1.000  C
  C111     1.0000 0.78535  0.35921  0.48645  Biso   1.000  C
  C112     1.0000 0.57386  0.21465  0.48645  Biso   1.000  C
  H130     1.0000 0.69094  0.52509  0.16390  Biso   1.000  H
  H131     1.0000 0.74784  0.54508  0.09243  Biso   1.000  H
  H132     1.0000 0.71683  0.58157  0.08884  Biso   1.000  H
  C113     1.0000 0.74354  0.57455  0.84978  Biso   1.000  C
  C114     1.0000 0.44073  0.22698  0.79006  Biso   1.000  C
  H133     1.0000 0.60183  0.34598  0.78558  Biso   1.000  H
  H134     1.0000 0.56782  0.27855  0.78278  Biso   1.000  H
  H135     1.0000 0.55153  0.31336  0.69569  Biso   1.000  H
  H136     1.0000 0.68673  0.25869  0.48189  Biso   1.000  H
  N17      1.0000 0.82265  0.40970  0.52153  Biso   1.000  N
  C115     1.0000 0.79874  0.31315  0.44602  Biso   1.000  C
  N18      1.0000 0.58707  0.17734  0.52153  Biso   1.000  N
  C116     1.0000 0.51443  0.20125  0.44602  Biso   1.000  C
  H137     1.0000 0.76165  0.59807  0.91967  Biso   1.000  H
  C117     1.0000 0.72781  0.60846  0.76436  Biso   1.000  C
  C118     1.0000 0.78623  0.55925  0.79006  Biso   1.000  C
  C119     1.0000 0.42542  0.16898  0.84978  Biso   1.000  C
  C120     1.0000 0.38484  0.22288  0.74761  Biso   1.000  C
  H138     1.0000 0.46642  0.23396  0.72341  Biso   1.000  H
  C121     1.0000 0.88425  0.42948  0.52653  Biso   1.000  C
  H139     1.0000 0.76353  0.27907  0.42427  Biso   1.000  H
  H140     1.0000 0.82413  0.32706  0.37964  Biso   1.000  H
  H141     1.0000 0.81683  0.30419  0.50864  Biso   1.000  H
  C122     1.0000 0.54524  0.11577  0.52653  Biso   1.000  C
  H142     1.0000 0.51554  0.23646  0.42427  Biso   1.000  H
  H143     1.0000 0.50294  0.17588  0.37964  Biso   1.000  H
  H144     1.0000 0.48733  0.18316  0.50864  Biso   1.000  H
  H145     1.0000 0.70763  0.58377  0.69824  Biso   1.000  H
  H146     1.0000 0.70135  0.61776  0.80339  Biso   1.000  H
  C123     1.0000 0.77602  0.66167  0.71955  Biso   1.000  C
  N19      1.0000 0.80524  0.53168  0.87363  Biso   1.000  N
  C124     1.0000 0.83804  0.61518  0.74761  Biso   1.000  C
  H147     1.0000 0.76753  0.53358  0.72341  Biso   1.000  H
  N20      1.0000 0.47853  0.16937  0.88407  Biso   1.000  N
  H148     1.0000 0.40193  0.16355  0.91967  Biso   1.000  H
  C125     1.0000 0.39154  0.11935  0.76436  Biso   1.000  C
  C126     1.0000 0.34974  0.17015  0.66781  Biso   1.000  C
  H149     1.0000 0.39394  0.25765  0.70473  Biso   1.000  H
  H150     1.0000 0.36154  0.22038  0.81487  Biso   1.000  H
  C127     1.0000 0.91654  0.48248  0.44988  Biso   1.000  C
  C128     1.0000 0.90394  0.44146  0.65509  Biso   1.000  C
  H151     1.0000 0.89064  0.39897  0.49636  Biso   1.000  H
  C129     1.0000 0.56595  0.08346  0.44988  Biso   1.000  C
  C130     1.0000 0.53756  0.09608  0.65509  Biso   1.000  C
  H152     1.0000 0.50833  0.10935  0.49636  Biso   1.000  H
  H153     1.0000 0.79293  0.68937  0.78286  Biso   1.000  H
  H154     1.0000 0.76234  0.67796  0.66035  Biso   1.000  H
  C131     1.0000 0.82042  0.65025  0.66781  Biso   1.000  C
  C132     1.0000 0.78983  0.47795  0.86319  Biso   1.000  C
  H155     1.0000 0.86373  0.60605  0.70473  Biso   1.000  H
  H156     1.0000 0.85881  0.63845  0.81487  Biso   1.000  H
  C133     1.0000 0.49094  0.16726  0.98904  Biso   1.000  C
  H157     1.0000 0.41623  0.12387  0.69824  Biso   1.000  H
  H158     1.0000 0.38224  0.08359  0.80339  Biso   1.000  H
  C134     1.0000 0.33833  0.11435  0.71955  Biso   1.000  C
  H159     1.0000 0.31323  0.16765  0.64974  Biso   1.000  H
  H160     1.0000 0.37034  0.17605  0.59449  Biso   1.000  H
  N21      1.0000 0.89930  0.46576  0.32746  Biso   1.000  N
  H161     1.0000 0.90723  0.51208  0.47356  Biso   1.000  H
  C135     1.0000 0.98242  0.50656  0.45970  Biso   1.000  C
  C136     1.0000 0.96822  0.46606  0.66465  Biso   1.000  C
  H162     1.0000 0.89375  0.46839  0.68833  Biso   1.000  H
  H163     1.0000 0.88435  0.40587  0.69947  Biso   1.000  H
  N22      1.0000 0.56647  0.10069  0.32746  Biso   1.000  N
  H164     1.0000 0.60481  0.09276  0.47356  Biso   1.000  H
  C137     1.0000 0.52413  0.01758  0.45970  Biso   1.000  C
  C138     1.0000 0.49782  0.03175  0.66465  Biso   1.000  C
  H165     1.0000 0.57462  0.10625  0.68833  Biso   1.000  H
  H166     1.0000 0.52154  0.11569  0.69947  Biso   1.000  H
  H167     1.0000 0.85442  0.68675  0.64974  Biso   1.000  H
  H168     1.0000 0.80572  0.62966  0.59449  Biso   1.000  H
  C139     1.0000 0.81353  0.45318  0.95308  Biso   1.000  C
  C140     1.0000 0.74773  0.43517  0.77348  Biso   1.000  C
  C141     1.0000 0.54511  0.16575  0.01491  Biso   1.000  C
  C142     1.0000 0.45673  0.16786  0.09296  Biso   1.000  C
  H169     1.0000 0.31063  0.10358  0.78286  Biso   1.000  H
  H170     1.0000 0.32203  0.08436  0.66035  Biso   1.000  H
  C143     1.0000 0.87334  0.48489  0.26677  Biso   1.000  C
  H171     1.0000 0.99204  0.47937  0.42480  Biso   1.000  H
  H172     1.0000 0.00264  0.54236  0.41603  Biso   1.000  H
  C144     1.0000 0.00264  0.51737  0.58686  Biso   1.000  C
  H173     1.0000 0.97982  0.47726  0.74533  Biso   1.000  H
  H174     1.0000 0.97733  0.43637  0.64474  Biso   1.000  H
  C145     1.0000 0.61155  0.12667  0.26677  Biso   1.000  C
  H175     1.0000 0.48734  0.00797  0.42480  Biso   1.000  H
  H176     1.0000 0.53973  0.99737  0.41603  Biso   1.000  H
  C146     1.0000 0.51473  0.99737  0.58686  Biso   1.000  C
  H177     1.0000 0.49743  0.02016  0.74533  Biso   1.000  H
  H178     1.0000 0.45902  0.02266  0.64474  Biso   1.000  H
  C147     1.0000 0.83395  0.48118  0.06051  Biso   1.000  C
  C148     1.0000 0.81501  0.40406  0.92984  Biso   1.000  C
  H179     1.0000 0.74412  0.39816  0.78558  Biso   1.000  H
  H180     1.0000 0.71074  0.43215  0.78278  Biso   1.000  H
  H181     1.0000 0.76185  0.44848  0.69569  Biso   1.000  H
  C149     1.0000 0.55374  0.14658  0.12014  Biso   1.000  C
  C150     1.0000 0.58905  0.18497  0.92984  Biso   1.000  C
  H182     1.0000 0.47496  0.16588  0.16390  Biso   1.000  H
  H183     1.0000 0.45493  0.20276  0.09243  Biso   1.000  H
  H184     1.0000 0.41841  0.13525  0.08884  Biso   1.000  H
  C151     1.0000 0.85382  0.45787  0.14628  Biso   1.000  C
  C152     1.0000 0.85623  0.52806  0.30457  Biso   1.000  C
  H185     1.0000 0.99985  0.54978  0.61677  Biso   1.000  H
  H186     1.0000 0.04283  0.52767  0.58984  Biso   1.000  H
  C153     1.0000 0.60401  0.14615  0.14628  Biso   1.000  C
  C154     1.0000 0.67185  0.14378  0.30457  Biso   1.000  C
  H187     1.0000 0.54994  0.00017  0.61677  Biso   1.000  H
  H188     1.0000 0.48485  0.95717  0.58984  Biso   1.000  H
  H189     1.0000 0.83423  0.51548  0.07516  Biso   1.000  H
  C155     1.0000 0.83424  0.37937  0.01491  Biso   1.000  C
  H190     1.0000 0.80313  0.38657  0.85688  Biso   1.000  H
  H191     1.0000 0.52473  0.13326  0.17627  Biso   1.000  H
  H192     1.0000 0.58343  0.19686  0.85688  Biso   1.000  H
  C156     1.0000 0.63966  0.18648  0.95308  Biso   1.000  C
  C157     1.0000 0.85343  0.40716  0.12014  Biso   1.000  C
  H193     1.0000 0.83706  0.53508  0.24108  Biso   1.000  H
  H194     1.0000 0.83086  0.51328  0.37069  Biso   1.000  H
  H195     1.0000 0.89013  0.56348  0.32588  Biso   1.000  H
  C158     1.0000 0.64724  0.16605  0.06051  Biso   1.000  C
  H196     1.0000 0.69804  0.16295  0.24108  Biso   1.000  H
  H197     1.0000 0.68241  0.16916  0.37069  Biso   1.000  H
  H198     1.0000 0.67333  0.10987  0.32588  Biso   1.000  H
  C159     1.0000 0.83273  0.32366  0.98904  Biso   1.000  C
  C160     1.0000 0.68815  0.21017  0.86319  Biso   1.000  C
  H199     1.0000 0.86675  0.39148  0.17627  Biso   1.000  H
  H200     1.0000 0.68123  0.16575  0.07516  Biso   1.000  H
  C161     1.0000 0.83211  0.28885  0.09296  Biso   1.000  C
  N23      1.0000 0.83064  0.30918  0.88407  Biso   1.000  N
  N24      1.0000 0.72644  0.19475  0.87363  Biso   1.000  N
  C162     1.0000 0.68744  0.25227  0.77348  Biso   1.000  C
  H201     1.0000 0.83412  0.30905  0.16390  Biso   1.000  H
  H202     1.0000 0.79725  0.25218  0.09243  Biso   1.000  H
  H203     1.0000 0.86471  0.28316  0.08884  Biso   1.000  H
  C163     1.0000 0.83102  0.25645  0.84978  Biso   1.000  C
  C164     1.0000 0.77303  0.21375  0.79006  Biso   1.000  C
  H204     1.0000 0.65403  0.25589  0.78558  Biso   1.000  H
  H205     1.0000 0.72143  0.28928  0.78278  Biso   1.000  H
  H206     1.0000 0.68663  0.23818  0.69569  Biso   1.000  H
  H207     1.0000 0.83641  0.23835  0.91967  Biso   1.000  H
  C165     1.0000 0.88064  0.27217  0.76436  Biso   1.000  C
  C166     1.0000 0.77714  0.16196  0.74761  Biso   1.000  C
  H208     1.0000 0.76604  0.23245  0.72341  Biso   1.000  H
  H209     1.0000 0.87615  0.29238  0.69824  Biso   1.000  H
  H210     1.0000 0.91643  0.29867  0.80339  Biso   1.000  H
  C167     1.0000 0.88564  0.22396  0.71955  Biso   1.000  C
  C168     1.0000 0.82983  0.17958  0.66781  Biso   1.000  C
  H211     1.0000 0.74236  0.13628  0.70473  Biso   1.000  H
  H212     1.0000 0.77964  0.14115  0.81487  Biso   1.000  H
  H213     1.0000 0.89645  0.20707  0.78286  Biso   1.000  H
  H214     1.0000 0.91562  0.23766  0.66035  Biso   1.000  H
  H215     1.0000 0.83235  0.14559  0.64974  Biso   1.000  H
  H216     1.0000 0.82393  0.19427  0.59449  Biso   1.000  H
  C169     1.0000 0.67167  0.78102  0.38621  Biso   1.000  C
  C170     1.0000 0.72487  0.78601  0.43103  Biso   1.000  C
  H217     1.0000 0.64397  0.77025  0.44953  Biso   1.000  H
  H218     1.0000 0.65537  0.75103  0.32702  Biso   1.000  H
  C171     1.0000 0.68307  0.83681  0.33447  Biso   1.000  C
  C172     1.0000 0.75876  0.83565  0.51644  Biso   1.000  C
  H219     1.0000 0.74956  0.79054  0.36490  Biso   1.000  H
  H220     1.0000 0.71557  0.75025  0.47005  Biso   1.000  H
  H221     1.0000 0.64656  0.83431  0.31641  Biso   1.000  H
  H222     1.0000 0.70367  0.84272  0.26116  Biso   1.000  H
  C173     1.0000 0.71817  0.88955  0.41428  Biso   1.000  C
  N25      1.0000 0.81186  0.83604  0.55073  Biso   1.000  N
  H223     1.0000 0.73526  0.83022  0.58634  Biso   1.000  H
  C174     1.0000 0.77406  0.89364  0.45672  Biso   1.000  C
  H224     1.0000 0.72727  0.92432  0.37139  Biso   1.000  H
  H225     1.0000 0.69487  0.88705  0.48154  Biso   1.000  H
  C175     1.0000 0.82428  0.83393  0.65570  Biso   1.000  C
  N26      1.0000 0.80168  0.94022  0.54030  Biso   1.000  N
  H226     1.0000 0.79975  0.90062  0.39007  Biso   1.000  H
  C176     1.0000 0.87845  0.83242  0.68158  Biso   1.000  C
  C177     1.0000 0.79006  0.83453  0.75962  Biso   1.000  C
  C178     1.0000 0.85534  0.97852  0.52986  Biso   1.000  C
  C179     1.0000 0.92238  0.85163  0.59651  Biso   1.000  C
  C180     1.0000 0.88707  0.81325  0.78681  Biso   1.000  C
  H227     1.0000 0.80829  0.83255  0.83057  Biso   1.000  H
  H228     1.0000 0.78826  0.86943  0.75910  Biso   1.000  H
  H229     1.0000 0.75174  0.80191  0.75550  Biso   1.000  H
  C181     1.0000 0.89815  0.97921  0.44015  Biso   1.000  C
  C182     1.0000 0.88014  0.02699  0.61975  Biso   1.000  C
  H230     1.0000 0.91676  0.86353  0.52355  Biso   1.000  H
  C183     1.0000 0.97299  0.85314  0.61975  Biso   1.000  C
  C184     1.0000 0.93734  0.81281  0.81294  Biso   1.000  C
  H231     1.0000 0.85806  0.79993  0.84294  Biso   1.000  H
  H232     1.0000 0.90115  0.94522  0.44944  Biso   1.000  H
  H233     1.0000 0.88487  0.98003  0.36236  Biso   1.000  H
  H234     1.0000 0.93515  0.01260  0.45225  Biso   1.000  H
  C185     1.0000 0.92926  0.07762  0.59651  Biso   1.000  C
  C186     1.0000 0.85217  0.01941  0.72718  Biso   1.000  C
  C187     1.0000 0.98058  0.83272  0.72718  Biso   1.000  C
  C188     1.0000 0.02148  0.87684  0.52986  Biso   1.000  C
  C189     1.0000 0.94488  0.79334  0.93344  Biso   1.000  C
  H235     1.0000 0.94676  0.08322  0.52355  Biso   1.000  H
  C190     1.0000 0.95397  0.12152  0.68158  Biso   1.000  C
  H236     1.0000 0.81786  0.98542  0.74182  Biso   1.000  H
  C191     1.0000 0.87545  0.06263  0.81294  Biso   1.000  C
  H237     1.0000 0.01457  0.83242  0.74182  Biso   1.000  H
  N27      1.0000 0.05977  0.86142  0.54030  Biso   1.000  N
  C192     1.0000 0.02077  0.91893  0.44015  Biso   1.000  C
  N28      1.0000 0.89980  0.76736  0.99412  Biso   1.000  N
  C193     1.0000 0.00519  0.81044  0.97124  Biso   1.000  C
  C194     1.0000 0.92616  0.11291  0.78681  Biso   1.000  C
  C195     1.0000 0.00965  0.17573  0.65570  Biso   1.000  C
  C196     1.0000 0.84846  0.05513  0.93344  Biso   1.000  C
  C197     1.0000 0.10636  0.88042  0.45672  Biso   1.000  C
  H238     1.0000 0.98736  0.92255  0.45225  Biso   1.000  H
  H239     1.0000 0.05476  0.95595  0.44944  Biso   1.000  H
  H240     1.0000 0.01996  0.90485  0.36236  Biso   1.000  H
  C198     1.0000 0.89928  0.75012  0.11655  Biso   1.000  C
  H241     1.0000 0.03138  0.82962  0.90774  Biso   1.000  H
  H242     1.0000 0.00666  0.77654  0.99255  Biso   1.000  H
  H243     1.0000 0.01575  0.83582  0.03736  Biso   1.000  H
  H244     1.0000 0.94185  0.14190  0.84294  Biso   1.000  H
  N29      1.0000 0.02416  0.18809  0.55073  Biso   1.000  N
  C199     1.0000 0.04446  0.20989  0.75962  Biso   1.000  C
  C200     1.0000 0.80526  0.99485  0.97124  Biso   1.000  C
  N30      1.0000 0.86754  0.10015  0.99412  Biso   1.000  N
  C201     1.0000 0.16436  0.92311  0.51644  Biso   1.000  C
  C202     1.0000 0.11047  0.82863  0.41428  Biso   1.000  C
  H245     1.0000 0.09937  0.89912  0.39007  Biso   1.000  H
  H246     1.0000 0.93815  0.75943  0.14023  Biso   1.000  H
  C203     1.0000 0.85746  0.68425  0.12637  Biso   1.000  C
  C204     1.0000 0.87857  0.78244  0.19319  Biso   1.000  C
  C205     1.0000 0.07688  0.24122  0.51644  Biso   1.000  C
  H247     1.0000 0.02425  0.19171  0.83057  Biso   1.000  H
  H248     1.0000 0.08115  0.21170  0.75910  Biso   1.000  H
  H249     1.0000 0.05014  0.24820  0.75550  Biso   1.000  H
  H250     1.0000 0.79826  0.96861  0.90774  Biso   1.000  H
  H251     1.0000 0.76988  0.99334  0.99255  Biso   1.000  H
  H252     1.0000 0.82007  0.98425  0.03736  Biso   1.000  H
  C206     1.0000 0.85084  0.10071  0.11655  Biso   1.000  C
  N31      1.0000 0.16397  0.97585  0.55073  Biso   1.000  N
  H253     1.0000 0.16975  0.90502  0.58634  Biso   1.000  H
  C207     1.0000 0.21397  0.93884  0.43103  Biso   1.000  C
  C208     1.0000 0.16316  0.84625  0.33447  Biso   1.000  C
  H254     1.0000 0.07569  0.80295  0.37139  Biso   1.000  H
  H255     1.0000 0.11298  0.80782  0.48154  Biso   1.000  H
  H256     1.0000 0.82068  0.67464  0.09147  Biso   1.000  H
  H257     1.0000 0.87306  0.66404  0.08270  Biso   1.000  H
  C209     1.0000 0.84806  0.66404  0.25353  Biso   1.000  C
  N32      1.0000 0.92040  0.84401  0.18820  Biso   1.000  N
  C210     1.0000 0.87089  0.76275  0.32176  Biso   1.000  C
  H258     1.0000 0.84167  0.77602  0.16303  Biso   1.000  H
  H259     1.0000 0.09496  0.26470  0.58634  Biso   1.000  H
  C211     1.0000 0.06114  0.27513  0.43103  Biso   1.000  C
  C212     1.0000 0.11957  0.22592  0.45672  Biso   1.000  C
  H260     1.0000 0.82124  0.06181  0.14023  Biso   1.000  H
  C213     1.0000 0.82674  0.14251  0.12637  Biso   1.000  C
  C214     1.0000 0.90383  0.12140  0.19319  Biso   1.000  C
  C215     1.0000 0.16606  0.99033  0.65570  Biso   1.000  C
  H261     1.0000 0.20949  0.95905  0.36490  Biso   1.000  H
  H262     1.0000 0.24976  0.96534  0.47005  Biso   1.000  H
  C216     1.0000 0.21897  0.89063  0.38621  Biso   1.000  C
  H263     1.0000 0.16568  0.81225  0.31641  Biso   1.000  H
  H264     1.0000 0.15726  0.86094  0.26116  Biso   1.000  H
  H265     1.0000 0.81819  0.62384  0.25651  Biso   1.000  H
  H266     1.0000 0.88327  0.66684  0.28343  Biso   1.000  H
  C217     1.0000 0.83115  0.69842  0.33132  Biso   1.000  C
  C218     1.0000 0.90719  0.88132  0.15312  Biso   1.000  C
  H267     1.0000 0.90795  0.77292  0.35499  Biso   1.000  H
  H268     1.0000 0.85487  0.78235  0.36613  Biso   1.000  H
  H269     1.0000 0.04094  0.25039  0.36490  Biso   1.000  H
  H270     1.0000 0.03468  0.28443  0.47005  Biso   1.000  H
  C219     1.0000 0.10933  0.32829  0.38621  Biso   1.000  C
  N33      1.0000 0.13855  0.19830  0.54030  Biso   1.000  N
  C220     1.0000 0.17135  0.28180  0.41428  Biso   1.000  C
  H271     1.0000 0.10085  0.20020  0.39007  Biso   1.000  H
  H272     1.0000 0.85394  0.17930  0.09147  Biso   1.000  H
  H273     1.0000 0.79096  0.12691  0.08270  Biso   1.000  H
  C221     1.0000 0.81595  0.15190  0.25353  Biso   1.000  C
  N34      1.0000 0.92361  0.07960  0.18820  Biso   1.000  N
  C222     1.0000 0.89187  0.12911  0.32176  Biso   1.000  C
  H274     1.0000 0.93435  0.15832  0.16303  Biso   1.000  H
  C223     1.0000 0.16544  0.95551  0.75962  Biso   1.000  C
  C224     1.0000 0.16755  0.04599  0.68158  Biso   1.000  C
  H275     1.0000 0.22978  0.87374  0.44953  Biso   1.000  H
  H276     1.0000 0.24896  0.90433  0.32702  Biso   1.000  H
  H277     1.0000 0.83077  0.68683  0.41200  Biso   1.000  H
  H278     1.0000 0.79235  0.68933  0.31141  Biso   1.000  H
  C225     1.0000 0.95477  0.94246  0.15022  Biso   1.000  C
  C226     1.0000 0.84777  0.86792  0.11269  Biso   1.000  C
  H279     1.0000 0.12625  0.35600  0.44953  Biso   1.000  H
  H280     1.0000 0.09567  0.34462  0.32702  Biso   1.000  H
  C227     1.0000 0.15376  0.31692  0.33447  Biso   1.000  C
  C228     1.0000 0.12317  0.14462  0.52986  Biso   1.000  C
  H281     1.0000 0.19707  0.27271  0.37139  Biso   1.000  H
  H282     1.0000 0.19215  0.30511  0.48154  Biso   1.000  H
  H283     1.0000 0.80564  0.18180  0.25651  Biso   1.000  H
  H284     1.0000 0.78354  0.11670  0.28343  Biso   1.000  H
  C229     1.0000 0.86725  0.16883  0.33132  Biso   1.000  C
  C230     1.0000 0.97412  0.09279  0.15312  Biso   1.000  C
  H285     1.0000 0.86496  0.09201  0.35499  Biso   1.000  H
  H286     1.0000 0.92743  0.14509  0.36613  Biso   1.000  H
  H287     1.0000 0.16745  0.97572  0.83057  Biso   1.000  H
  H288     1.0000 0.13058  0.91885  0.75910  Biso   1.000  H
  H289     1.0000 0.19805  0.94983  0.75550  Biso   1.000  H
  C231     1.0000 0.14835  0.07073  0.59651  Biso   1.000  C
  C232     1.0000 0.18676  0.07383  0.78681  Biso   1.000  C
  C233     1.0000 0.94325  0.98800  0.14952  Biso   1.000  C
  C234     1.0000 0.01199  0.95526  0.14952  Biso   1.000  C
  H290     1.0000 0.84887  0.90312  0.09094  Biso   1.000  H
  H291     1.0000 0.83627  0.84254  0.04630  Biso   1.000  H
  H292     1.0000 0.82066  0.84983  0.17530  Biso   1.000  H
  H293     1.0000 0.18775  0.35341  0.31641  Biso   1.000  H
  H294     1.0000 0.13906  0.29632  0.26116  Biso   1.000  H
  C235     1.0000 0.14684  0.11980  0.61975  Biso   1.000  C
  C236     1.0000 0.08104  0.10179  0.44015  Biso   1.000  C
  H295     1.0000 0.85607  0.16922  0.41200  Biso   1.000  H
  H296     1.0000 0.89694  0.20761  0.31141  Biso   1.000  H
  C237     1.0000 0.98766  0.04518  0.15022  Biso   1.000  C
  C238     1.0000 0.02017  0.15220  0.11269  Biso   1.000  C
  H297     1.0000 0.13647  0.05323  0.52355  Biso   1.000  H
  C239     1.0000 0.18714  0.12450  0.81294  Biso   1.000  C
  H298     1.0000 0.20006  0.05810  0.84294  Biso   1.000  H
  H299     1.0000 0.90527  0.97994  0.14856  Biso   1.000  H
  H300     1.0000 0.02007  0.92535  0.14856  Biso   1.000  H
  C240     1.0000 0.05753  0.01230  0.15022  Biso   1.000  C
  C241     1.0000 0.16726  0.14781  0.72718  Biso   1.000  C
  H301     1.0000 0.07745  0.06482  0.45225  Biso   1.000  H
  H302     1.0000 0.04407  0.09882  0.44944  Biso   1.000  H
  H303     1.0000 0.09516  0.11510  0.36236  Biso   1.000  H
  C242     1.0000 0.04474  0.05672  0.14952  Biso   1.000  C
  H304     1.0000 0.05426  0.15112  0.09094  Biso   1.000  H
  H305     1.0000 0.00626  0.16371  0.04630  Biso   1.000  H
  H306     1.0000 0.02917  0.17930  0.17530  Biso   1.000  H
  C243     1.0000 0.20665  0.15151  0.93344  Biso   1.000  C
  C244     1.0000 0.11866  0.02583  0.15312  Biso   1.000  C
  H307     1.0000 0.16754  0.18210  0.74182  Biso   1.000  H
  H308     1.0000 0.07468  0.09473  0.14856  Biso   1.000  H
  N35      1.0000 0.23263  0.13243  0.99412  Biso   1.000  N
  C245     1.0000 0.18957  0.19473  0.97124  Biso   1.000  C
  C246     1.0000 0.13207  0.97982  0.11269  Biso   1.000  C
  N36      1.0000 0.15598  0.07637  0.18820  Biso   1.000  N
  C247     1.0000 0.24985  0.14910  0.11655  Biso   1.000  C
  H309     1.0000 0.17037  0.20171  0.90774  Biso   1.000  H
  H310     1.0000 0.22345  0.23010  0.99255  Biso   1.000  H
  H311     1.0000 0.16417  0.17991  0.03736  Biso   1.000  H
  H312     1.0000 0.09686  0.94573  0.09094  Biso   1.000  H
  H313     1.0000 0.15746  0.99373  0.04630  Biso   1.000  H
  H314     1.0000 0.15017  0.97085  0.17530  Biso   1.000  H
  C248     1.0000 0.21757  0.09610  0.19319  Biso   1.000  C
  H315     1.0000 0.24054  0.17870  0.14023  Biso   1.000  H
  C249     1.0000 0.31576  0.17323  0.12637  Biso   1.000  C
  C250     1.0000 0.23727  0.10812  0.32176  Biso   1.000  C
  H316     1.0000 0.22396  0.06560  0.16303  Biso   1.000  H
  H317     1.0000 0.32535  0.14600  0.09147  Biso   1.000  H
  H318     1.0000 0.33597  0.20903  0.08270  Biso   1.000  H
  C251     1.0000 0.33595  0.18400  0.25353  Biso   1.000  C
  C252     1.0000 0.30155  0.13273  0.33132  Biso   1.000  C
  H319     1.0000 0.22706  0.13501  0.35499  Biso   1.000  H
  H320     1.0000 0.21766  0.07249  0.36613  Biso   1.000  H
  H321     1.0000 0.37614  0.19430  0.25651  Biso   1.000  H
  H322     1.0000 0.33316  0.21640  0.28343  Biso   1.000  H
  H323     1.0000 0.31316  0.14393  0.41200  Biso   1.000  H
  H324     1.0000 0.31064  0.10300  0.31141  Biso   1.000  H
  Ne1      1.0000 0.66667  0.33333  0.15336  Biso   1.000  Ne
  He1      1.0000 0.48361  0.23914  0.26687  Biso   1.000  He
  He2      1.0000 0.75764  0.52164  0.27046  Biso   1.000  He
  He3      1.0000 0.76266  0.24327  0.26892  Biso   1.000  He
  He4      1.0000 0.66666  0.33333  0.77864  Biso   1.000  He
  Ar1      1.0000 0.66666  0.33333  0.13730  Biso   1.000  Ar
  Ne2      1.0000 0.33333  0.66667  0.48669  Biso   1.000  Ne
  He5      1.0000 0.15029  0.57247  0.60021  Biso   1.000  He
  He6      1.0000 0.42430  0.85495  0.60379  Biso   1.000  He
  He7      1.0000 0.42932  0.57661  0.60226  Biso   1.000  He
  He8      1.0000 0.33332  0.66664  0.11197  Biso   1.000  He
  Ar2      1.0000 0.33360  0.66581  0.47096  Biso   1.000  Ar
  Ne3      1.0000 0.99999  0.99999  0.82002  Biso   1.000  Ne
  He9      1.0000 0.81694  0.90581  0.93354  Biso   1.000  He
  He10     1.0000 0.09096  0.18827  0.93712  Biso   1.000  He
  He11     1.0000 0.09600  0.90994  0.93559  Biso   1.000  He
  He12     1.0000 0.99997  0.99997  0.44531  Biso   1.000  He
  Ar3      1.0000 0.99893  0.99949  0.80403  Biso   1.000  Ar
