data_image0
_cell_length_a       14.064
_cell_length_b       16.224
_cell_length_c       21.931
_cell_angle_alpha    92.64
_cell_angle_beta     106.7
_cell_angle_gamma    113.78

_symmetry_space_group_name_H-M    "P 1"
_symmetry_int_tables_number       1

loop_
  _symmetry_equiv_pos_as_xyz
  'x, y, z'

loop_
  _atom_site_label
  _atom_site_occupancy
  _atom_site_fract_x
  _atom_site_fract_y
  _atom_site_fract_z
  _atom_site_thermal_displace_type
  _atom_site_B_iso_or_equiv
  _atom_site_type_symbol
  N1       1.0000 0.52504  0.54715  0.39047  Biso   1.000  N
  C1       1.0000 0.46588  0.46558  0.35772  Biso   1.000  C
  C2       1.0000 0.51031  0.62585  0.36635  Biso   1.000  C
  C3       1.0000 0.48578  0.39050  0.38771  Biso   1.000  C
  C4       1.0000 0.37778  0.43497  0.29190  Biso   1.000  C
  C5       1.0000 0.60208  0.67645  0.33883  Biso   1.000  C
  C6       1.0000 0.51475  0.68783  0.42283  Biso   1.000  C
  H1       1.0000 0.43708  0.60367  0.33147  Biso   1.000  H
  C7       1.0000 0.39774  0.30524  0.37923  Biso   1.000  C
  C8       1.0000 0.59217  0.40447  0.42467  Biso   1.000  C
  H2       1.0000 0.30497  0.40497  0.29669  Biso   1.000  H
  H3       1.0000 0.38812  0.39177  0.26477  Biso   1.000  H
  H4       1.0000 0.38297  0.48835  0.27141  Biso   1.000  H
  N2       1.0000 0.57969  0.61735  0.27896  Biso   1.000  N
  H5       1.0000 0.67545  0.68846  0.37061  Biso   1.000  H
  C9       1.0000 0.60086  0.76628  0.32173  Biso   1.000  C
  C10      1.0000 0.51083  0.77577  0.40340  Biso   1.000  C
  H6       1.0000 0.45177  0.65438  0.43760  Biso   1.000  H
  H7       1.0000 0.58355  0.70345  0.45940  Biso   1.000  H
  C11      1.0000 0.41397  0.23470  0.40728  Biso   1.000  C
  H8       1.0000 0.32547  0.29518  0.35390  Biso   1.000  H
  C12      1.0000 0.61035  0.33416  0.45174  Biso   1.000  C
  H9       1.0000 0.65243  0.46265  0.43130  Biso   1.000  H
  C13      1.0000 0.65237  0.60354  0.26477  Biso   1.000  C
  H10      1.0000 0.53280  0.75259  0.28511  Biso   1.000  H
  H11      1.0000 0.66467  0.79983  0.30759  Biso   1.000  H
  C14      1.0000 0.60589  0.82717  0.37923  Biso   1.000  C
  H12      1.0000 0.43998  0.76068  0.36886  Biso   1.000  H
  H13      1.0000 0.51576  0.81508  0.44118  Biso   1.000  H
  C15      1.0000 0.31492  0.14615  0.39987  Biso   1.000  C
  C16      1.0000 0.52036  0.24879  0.44235  Biso   1.000  C
  C17      1.0000 0.72308  0.34669  0.49195  Biso   1.000  C
  C18      1.0000 0.61900  0.53727  0.20451  Biso   1.000  C
  C19      1.0000 0.77463  0.66156  0.29887  Biso   1.000  C
  C20      1.0000 0.75403  0.59946  0.32261  Biso   1.000  C
  H14      1.0000 0.67675  0.84578  0.41459  Biso   1.000  H
  H15      1.0000 0.60157  0.88337  0.36567  Biso   1.000  H
  N3       1.0000 0.22600  0.15259  0.39386  Biso   1.000  N
  C21      1.0000 0.33098  0.05941  0.39991  Biso   1.000  C
  H16      1.0000 0.53246  0.20017  0.46017  Biso   1.000  H
  N4       1.0000 0.72486  0.29295  0.53298  Biso   1.000  N
  C22      1.0000 0.82004  0.41888  0.47979  Biso   1.000  C
  C23      1.0000 0.50756  0.49390  0.16537  Biso   1.000  C
  C24      1.0000 0.69337  0.51396  0.18775  Biso   1.000  C
  H17      1.0000 0.78573  0.71378  0.32910  Biso   1.000  H
  H18      1.0000 0.81035  0.68409  0.26680  Biso   1.000  H
  H19      1.0000 0.80700  0.62439  0.32290  Biso   1.000  H
  H20      1.0000 0.82355  0.63263  0.31447  Biso   1.000  H
  H21      1.0000 0.74055  0.53534  0.32338  Biso   1.000  H
  H22      1.0000 0.75864  0.62786  0.36451  Biso   1.000  H
  C25      1.0000 0.12077  0.07199  0.38156  Biso   1.000  C
  H23      1.0000 0.35424  0.04986  0.44458  Biso   1.000  H
  H24      1.0000 0.38765  0.06509  0.38068  Biso   1.000  H
  H25      1.0000 0.26135  0.00719  0.37458  Biso   1.000  H
  C26      1.0000 0.82711  0.29436  0.57391  Biso   1.000  C
  H26      1.0000 0.83739  0.47899  0.50309  Biso   1.000  H
  H27      1.0000 0.80216  0.41959  0.43329  Biso   1.000  H
  H28      1.0000 0.88388  0.40540  0.49519  Biso   1.000  H
  C27      1.0000 0.47199  0.42796  0.11049  Biso   1.000  C
  H29      1.0000 0.45567  0.50959  0.17642  Biso   1.000  H
  C28      1.0000 0.66046  0.44786  0.13326  Biso   1.000  C
  H30      1.0000 0.76898  0.54370  0.21391  Biso   1.000  H
  C29      1.0000 0.04936  0.06116  0.31103  Biso   1.000  C
  C30      1.0000 0.06465  0.08791  0.42830  Biso   1.000  C
  H31      1.0000 0.13370  0.01621  0.38771  Biso   1.000  H
  H32      1.0000 0.89125  0.35037  0.57226  Biso   1.000  H
  C31      1.0000 0.82550  0.29435  0.64347  Biso   1.000  C
  C32      1.0000 0.83411  0.20755  0.54872  Biso   1.000  C
  C33      1.0000 0.35254  0.37945  0.06946  Biso   1.000  C
  C34      1.0000 0.55006  0.40660  0.09475  Biso   1.000  C
  C35      1.0000 0.74499  0.42341  0.11960  Biso   1.000  C
  N5       1.0000 0.10367  0.04088  0.26874  Biso   1.000  N
  H33      1.0000 0.04363  0.11970  0.30410  Biso   1.000  H
  C36      1.0000 0.93476  0.98372  0.29640  Biso   1.000  C
  H34      1.0000 0.11000  0.09206  0.47330  Biso   1.000  H
  H35      1.0000 0.05966  0.14675  0.42510  Biso   1.000  H
  C37      1.0000 0.94937  0.01077  0.41328  Biso   1.000  C
  H36      1.0000 0.82262  0.35104  0.65960  Biso   1.000  H
  H37      1.0000 0.75856  0.24149  0.64400  Biso   1.000  H
  C38      1.0000 0.92776  0.28889  0.68852  Biso   1.000  C
  N6       1.0000 0.83975  0.21233  0.48352  Biso   1.000  N
  C39      1.0000 0.93814  0.20409  0.59343  Biso   1.000  C
  H38      1.0000 0.76723  0.15188  0.54756  Biso   1.000  H
  N7       1.0000 0.32999  0.33118  0.01545  Biso   1.000  N
  C40      1.0000 0.26860  0.37715  0.10240  Biso   1.000  C
  C41      1.0000 0.27246  0.40418  0.08961  Biso   1.000  C
  H39      1.0000 0.52700  0.36290  0.05692  Biso   1.000  H
  N8       1.0000 0.84313  0.46743  0.15660  Biso   1.000  N
  C42      1.0000 0.70600  0.34706  0.06200  Biso   1.000  C
  C43      1.0000 0.69550  0.32141  0.08138  Biso   1.000  C
  C44      1.0000 0.71680  0.37682  0.05062  Biso   1.000  C
  C45      1.0000 0.11958  0.08346  0.22292  Biso   1.000  C
  H40      1.0000 0.94007  0.92505  0.29998  Biso   1.000  H
  H41      1.0000 0.88894  0.97892  0.25150  Biso   1.000  H
  C46      1.0000 0.87996  0.00060  0.34319  Biso   1.000  C
  H42      1.0000 0.95437  0.95252  0.42031  Biso   1.000  H
  H43      1.0000 0.91386  0.02447  0.44278  Biso   1.000  H
  H44      1.0000 0.99440  0.34497  0.69176  Biso   1.000  H
  H45      1.0000 0.92221  0.28533  0.73235  Biso   1.000  H
  C47      1.0000 0.93833  0.20548  0.66318  Biso   1.000  C
  C48      1.0000 0.75981  0.15654  0.43397  Biso   1.000  C
  H46      1.0000 0.94189  0.14759  0.57778  Biso   1.000  H
  H47      1.0000 0.00430  0.25728  0.59207  Biso   1.000  H
  C49      1.0000 0.21711  0.28270  0.97016  Biso   1.000  C
  H48      1.0000 0.25338  0.43061  0.09639  Biso   1.000  H
  H49      1.0000 0.29899  0.37826  0.14890  Biso   1.000  H
  H50      1.0000 0.20004  0.32098  0.08307  Biso   1.000  H
  H51      1.0000 0.26728  0.38350  0.13030  Biso   1.000  H
  H52      1.0000 0.19979  0.37429  0.05590  Biso   1.000  H
  H53      1.0000 0.29819  0.47080  0.09581  Biso   1.000  H
  C50      1.0000 0.93478  0.45160  0.14939  Biso   1.000  C
  H54      1.0000 0.76990  0.34141  0.05638  Biso   1.000  H
  H55      1.0000 0.66682  0.36211  0.02272  Biso   1.000  H
  H56      1.0000 0.65630  0.28907  0.06999  Biso   1.000  H
  H57      1.0000 0.75581  0.30739  0.07852  Biso   1.000  H
  H58      1.0000 0.64667  0.31548  0.03759  Biso   1.000  H
  H59      1.0000 0.78360  0.37820  0.04432  Biso   1.000  H
  H60      1.0000 0.66201  0.31300  0.04330  Biso   1.000  H
  H61      1.0000 0.65355  0.27845  0.10439  Biso   1.000  H
  H62      1.0000 0.68661  0.40920  0.01991  Biso   1.000  H
  C51      1.0000 0.11246  0.17650  0.21580  Biso   1.000  C
  C52      1.0000 0.17803  0.05775  0.18358  Biso   1.000  C
  C53      1.0000 0.06498  0.14399  0.19628  Biso   1.000  C
  H63      1.0000 0.80624  0.94860  0.33341  Biso   1.000  H
  H64      1.0000 0.86976  0.05698  0.33728  Biso   1.000  H
  H65      1.0000 0.87625  0.14929  0.66517  Biso   1.000  H
  H66      1.0000 0.00772  0.20586  0.69118  Biso   1.000  H
  C54      1.0000 0.77005  0.17046  0.36891  Biso   1.000  C
  C55      1.0000 0.65374  0.08081  0.43566  Biso   1.000  C
  C56      1.0000 0.19624  0.18346  0.94967  Biso   1.000  C
  H67      1.0000 0.16358  0.28371  0.99152  Biso   1.000  H
  C57      1.0000 0.20835  0.33150  0.91203  Biso   1.000  C
  C58      1.0000 0.00463  0.45031  0.21710  Biso   1.000  C
  H68      1.0000 0.90555  0.39118  0.12052  Biso   1.000  H
  C59      1.0000 0.00039  0.52794  0.11960  Biso   1.000  C
  H69      1.0000 0.12156  0.20411  0.19618  Biso   1.000  H
  H70      1.0000 0.02381  0.15160  0.22360  Biso   1.000  H
  H71      1.0000 0.06378  0.17117  0.17220  Biso   1.000  H
  H72      1.0000 0.18631  0.22521  0.22277  Biso   1.000  H
  H73      1.0000 0.08289  0.19130  0.24791  Biso   1.000  H
  C60      1.0000 0.19324  0.09658  0.13011  Biso   1.000  C
  C61      1.0000 0.22070  0.99446  0.20170  Biso   1.000  C
  H74      1.0000 0.01440  0.11551  0.15200  Biso   1.000  H
  C62      1.0000 0.70471  0.10190  0.31408  Biso   1.000  C
  C63      1.0000 0.84555  0.25537  0.36213  Biso   1.000  C
  H75      1.0000 0.66178  0.02357  0.43779  Biso   1.000  H
  H76      1.0000 0.59316  0.07238  0.39648  Biso   1.000  H
  H77      1.0000 0.63784  0.09740  0.47388  Biso   1.000  H
  N9       1.0000 0.19010  0.13795  0.00543  Biso   1.000  N
  C64      1.0000 0.08730  0.13132  0.89348  Biso   1.000  C
  H78      1.0000 0.25871  0.18319  0.93654  Biso   1.000  H
  H79      1.0000 0.21608  0.39338  0.92613  Biso   1.000  H
  H80      1.0000 0.26948  0.33886  0.89561  Biso   1.000  H
  C65      1.0000 0.09827  0.27826  0.85730  Biso   1.000  C
  N10      1.0000 0.94091  0.36631  0.23667  Biso   1.000  N
  H81      1.0000 0.01935  0.50458  0.24820  Biso   1.000  H
  C66      1.0000 0.11395  0.45115  0.21773  Biso   1.000  C
  H82      1.0000 0.95479  0.52289  0.07450  Biso   1.000  H
  C67      1.0000 0.10697  0.52391  0.11964  Biso   1.000  C
  H83      1.0000 0.01838  0.58797  0.14440  Biso   1.000  H
  C68      1.0000 0.25065  0.07407  0.09451  Biso   1.000  C
  H84      1.0000 0.16431  0.13918  0.11732  Biso   1.000  H
  C69      1.0000 0.27940  0.97233  0.16779  Biso   1.000  C
  H85      1.0000 0.20913  0.96619  0.23759  Biso   1.000  H
  C70      1.0000 0.71260  0.11689  0.25314  Biso   1.000  C
  H86      1.0000 0.65387  0.04420  0.31829  Biso   1.000  H
  C71      1.0000 0.85337  0.27228  0.30158  Biso   1.000  C
  H87      1.0000 0.89187  0.30195  0.39938  Biso   1.000  H
  C72      1.0000 0.26625  0.11708  0.03691  Biso   1.000  C
  C73      1.0000 0.08237  0.18121  0.83671  Biso   1.000  C
  H88      1.0000 0.07937  0.06938  0.87914  Biso   1.000  H
  H89      1.0000 0.02501  0.12379  0.90874  Biso   1.000  H
  H90      1.0000 0.03714  0.27580  0.87212  Biso   1.000  H
  H91      1.0000 0.09701  0.31010  0.81985  Biso   1.000  H
  C74      1.0000 0.92606  0.36387  0.29097  Biso   1.000  C
  H92      1.0000 0.15988  0.45749  0.26288  Biso   1.000  H
  H93      1.0000 0.09949  0.39230  0.19308  Biso   1.000  H
  C75      1.0000 0.17708  0.52987  0.18804  Biso   1.000  C
  H94      1.0000 0.08919  0.46580  0.09237  Biso   1.000  H
  H95      1.0000 0.14846  0.57528  0.10100  Biso   1.000  H
  C76      1.0000 0.29458  0.01326  0.11412  Biso   1.000  C
  C77      1.0000 0.33122  0.90843  0.18746  Biso   1.000  C
  C78      1.0000 0.64198  0.04059  0.19521  Biso   1.000  C
  C79      1.0000 0.78596  0.20190  0.24752  Biso   1.000  C
  C80      1.0000 0.37068  0.13342  0.02340  Biso   1.000  C
  H96      1.0000 0.01006  0.14698  0.80213  Biso   1.000  H
  H97      1.0000 0.14057  0.18390  0.81893  Biso   1.000  H
  C81      1.0000 0.97194  0.44464  0.34537  Biso   1.000  C
  H98      1.0000 0.19760  0.58919  0.21478  Biso   1.000  H
  H99      1.0000 0.24578  0.52690  0.18751  Biso   1.000  H
  H100     1.0000 0.33539  0.99903  0.09111  Biso   1.000  H
  N11      1.0000 0.37553  0.88857  0.15065  Biso   1.000  N
  C82      1.0000 0.29915  0.85335  0.23779  Biso   1.000  C
  C83      1.0000 0.35478  0.89705  0.26041  Biso   1.000  C
  N12      1.0000 0.61263  0.95957  0.20606  Biso   1.000  N
  C84      1.0000 0.61082  0.06932  0.13045  Biso   1.000  C
  H101     1.0000 0.79070  0.21270  0.20611  Biso   1.000  H
  H102     1.0000 0.43034  0.14646  0.06428  Biso   1.000  H
  H103     1.0000 0.39043  0.18572  0.00111  Biso   1.000  H
  H104     1.0000 0.35938  0.07866  0.99583  Biso   1.000  H
  H105     1.0000 0.91223  0.45924  0.34867  Biso   1.000  H
  H106     1.0000 0.02806  0.49779  0.33641  Biso   1.000  H
  H107     1.0000 0.00528  0.42920  0.38630  Biso   1.000  H
  C85      1.0000 0.43222  0.82991  0.16382  Biso   1.000  C
  H108     1.0000 0.32463  0.89471  0.27901  Biso   1.000  H
  H109     1.0000 0.33313  0.81076  0.24360  Biso   1.000  H
  H110     1.0000 0.21877  0.81866  0.22360  Biso   1.000  H
  H111     1.0000 0.28507  0.86026  0.26729  Biso   1.000  H
  H112     1.0000 0.39088  0.95756  0.28831  Biso   1.000  H
  H113     1.0000 0.40306  0.86611  0.27111  Biso   1.000  H
  C86      1.0000 0.54373  0.87899  0.15370  Biso   1.000  C
  H114     1.0000 0.66970  0.08149  0.11180  Biso   1.000  H
  H115     1.0000 0.60047  0.12499  0.13650  Biso   1.000  H
  H116     1.0000 0.54208  0.02007  0.10100  Biso   1.000  H
  C87      1.0000 0.36173  0.73892  0.11669  Biso   1.000  C
  H117     1.0000 0.44380  0.81946  0.20940  Biso   1.000  H
  H118     1.0000 0.53247  0.89926  0.11088  Biso   1.000  H
  C88      1.0000 0.60293  0.81776  0.15675  Biso   1.000  C
  C89      1.0000 0.42138  0.67766  0.12250  Biso   1.000  C
  H119     1.0000 0.34334  0.75065  0.07188  Biso   1.000  H
  H120     1.0000 0.29197  0.70687  0.12551  Biso   1.000  H
  H121     1.0000 0.62536  0.80672  0.20160  Biso   1.000  H
  H122     1.0000 0.67068  0.84963  0.14571  Biso   1.000  H
  C90      1.0000 0.53059  0.72586  0.11054  Biso   1.000  C
  H123     1.0000 0.43517  0.66213  0.16639  Biso   1.000  H
  H124     1.0000 0.37427  0.61981  0.09058  Biso   1.000  H
  H125     1.0000 0.51614  0.73593  0.06530  Biso   1.000  H
  H126     1.0000 0.56969  0.68645  0.11669  Biso   1.000  H
  N13      1.0000 0.47485  0.45279  0.60951  Biso   1.000  N
  C91      1.0000 0.48956  0.37408  0.63359  Biso   1.000  C
  C92      1.0000 0.53408  0.53436  0.64226  Biso   1.000  C
  C93      1.0000 0.48516  0.31203  0.57711  Biso   1.000  C
  C94      1.0000 0.39789  0.32349  0.66115  Biso   1.000  C
  H127     1.0000 0.56286  0.39626  0.66846  Biso   1.000  H
  C95      1.0000 0.51412  0.60944  0.61227  Biso   1.000  C
  C96      1.0000 0.62212  0.56497  0.70809  Biso   1.000  C
  C97      1.0000 0.48907  0.22417  0.59658  Biso   1.000  C
  H128     1.0000 0.54813  0.34557  0.56238  Biso   1.000  H
  H129     1.0000 0.41634  0.29649  0.54058  Biso   1.000  H
  C98      1.0000 0.39901  0.23365  0.67820  Biso   1.000  C
  N14      1.0000 0.42028  0.38259  0.72102  Biso   1.000  N
  H130     1.0000 0.32445  0.31148  0.62937  Biso   1.000  H
  C99      1.0000 0.60210  0.69463  0.62070  Biso   1.000  C
  C100     1.0000 0.40779  0.59547  0.57531  Biso   1.000  C
  H131     1.0000 0.69493  0.59497  0.70329  Biso   1.000  H
  H132     1.0000 0.61174  0.60815  0.73516  Biso   1.000  H
  H133     1.0000 0.61689  0.51153  0.72857  Biso   1.000  H
  C101     1.0000 0.39407  0.17277  0.62075  Biso   1.000  C
  H134     1.0000 0.55995  0.23925  0.63107  Biso   1.000  H
  H135     1.0000 0.48414  0.18486  0.55880  Biso   1.000  H
  H136     1.0000 0.46710  0.24735  0.71487  Biso   1.000  H
  H137     1.0000 0.33527  0.20005  0.69239  Biso   1.000  H
  C102     1.0000 0.34757  0.39633  0.73521  Biso   1.000  C
  C103     1.0000 0.58592  0.76524  0.59270  Biso   1.000  C
  H138     1.0000 0.67443  0.70476  0.64608  Biso   1.000  H
  H139     1.0000 0.34744  0.53722  0.56868  Biso   1.000  H
  C104     1.0000 0.38952  0.66577  0.54819  Biso   1.000  C
  H140     1.0000 0.32314  0.15416  0.58539  Biso   1.000  H
  H141     1.0000 0.39837  0.11656  0.63426  Biso   1.000  H
  C105     1.0000 0.38096  0.46267  0.79547  Biso   1.000  C
  C106     1.0000 0.22524  0.33837  0.70106  Biso   1.000  C
  C107     1.0000 0.24586  0.40048  0.67737  Biso   1.000  C
  C108     1.0000 0.47954  0.75115  0.55763  Biso   1.000  C
  C109     1.0000 0.68494  0.85373  0.60011  Biso   1.000  C
  C110     1.0000 0.27682  0.65325  0.50803  Biso   1.000  C
  C111     1.0000 0.49234  0.50604  0.83461  Biso   1.000  C
  C112     1.0000 0.30650  0.48596  0.81218  Biso   1.000  C
  H142     1.0000 0.21417  0.28616  0.67088  Biso   1.000  H
  H143     1.0000 0.18955  0.31585  0.73318  Biso   1.000  H
  H144     1.0000 0.19297  0.37555  0.67708  Biso   1.000  H
  H145     1.0000 0.17636  0.36723  0.68546  Biso   1.000  H
  H146     1.0000 0.25931  0.46453  0.67660  Biso   1.000  H
  H147     1.0000 0.24125  0.37208  0.63547  Biso   1.000  H
  H148     1.0000 0.46741  0.79976  0.53976  Biso   1.000  H
  N15      1.0000 0.77390  0.84735  0.60612  Biso   1.000  N
  C113     1.0000 0.66891  0.94053  0.60007  Biso   1.000  C
  N16      1.0000 0.27501  0.70697  0.46695  Biso   1.000  N
  C114     1.0000 0.17983  0.58105  0.52014  Biso   1.000  C
  H149     1.0000 0.54423  0.49035  0.82356  Biso   1.000  H
  C115     1.0000 0.52795  0.57191  0.88949  Biso   1.000  C
  C116     1.0000 0.33941  0.55202  0.86672  Biso   1.000  C
  H150     1.0000 0.23092  0.45624  0.78607  Biso   1.000  H
  C117     1.0000 0.87910  0.92794  0.61838  Biso   1.000  C
  H151     1.0000 0.64563  0.95007  0.55536  Biso   1.000  H
  H152     1.0000 0.61224  0.93485  0.61930  Biso   1.000  H
  H153     1.0000 0.73854  0.99276  0.62540  Biso   1.000  H
  C118     1.0000 0.17278  0.70558  0.42607  Biso   1.000  C
  H154     1.0000 0.16258  0.52095  0.49689  Biso   1.000  H
  H155     1.0000 0.19774  0.58035  0.56669  Biso   1.000  H
  H156     1.0000 0.11602  0.59455  0.50479  Biso   1.000  H
  C119     1.0000 0.44983  0.59334  0.90523  Biso   1.000  C
  C120     1.0000 0.64730  0.62041  0.93047  Biso   1.000  C
  C121     1.0000 0.25490  0.57654  0.88038  Biso   1.000  C
  C122     1.0000 0.95050  0.93871  0.68895  Biso   1.000  C
  C123     1.0000 0.93524  0.91203  0.57168  Biso   1.000  C
  H157     1.0000 0.86619  0.98373  0.61227  Biso   1.000  H
  H158     1.0000 0.10862  0.64956  0.42767  Biso   1.000  H
  C124     1.0000 0.17437  0.70557  0.35646  Biso   1.000  C
  C125     1.0000 0.16576  0.79237  0.45121  Biso   1.000  C
  H159     1.0000 0.47289  0.63704  0.94306  Biso   1.000  H
  N17      1.0000 0.66991  0.66876  0.98453  Biso   1.000  N
  C126     1.0000 0.73133  0.62272  0.89758  Biso   1.000  C
  C127     1.0000 0.72743  0.59576  0.91037  Biso   1.000  C
  N18      1.0000 0.15673  0.53250  0.84333  Biso   1.000  N
  C128     1.0000 0.29394  0.65282  0.93798  Biso   1.000  C
  C129     1.0000 0.30444  0.67852  0.91855  Biso   1.000  C
  C130     1.0000 0.28309  0.62312  0.94936  Biso   1.000  C
  N19      1.0000 0.89619  0.95899  0.73124  Biso   1.000  N
  H160     1.0000 0.95634  0.88024  0.69588  Biso   1.000  H
  C131     1.0000 0.06518  0.01621  0.70353  Biso   1.000  C
  H161     1.0000 0.88994  0.90781  0.52668  Biso   1.000  H
  H162     1.0000 0.94020  0.85312  0.57488  Biso   1.000  H
  C132     1.0000 0.05056  0.98916  0.58665  Biso   1.000  C
  H163     1.0000 0.17724  0.64883  0.34038  Biso   1.000  H
  H164     1.0000 0.24134  0.75846  0.35598  Biso   1.000  H
  C133     1.0000 0.07214  0.71105  0.31146  Biso   1.000  C
  N20      1.0000 0.16014  0.78761  0.51646  Biso   1.000  N
  C134     1.0000 0.06173  0.79584  0.40650  Biso   1.000  C
  H165     1.0000 0.23263  0.84804  0.45237  Biso   1.000  H
  C135     1.0000 0.78286  0.71724  0.02982  Biso   1.000  C
  H166     1.0000 0.74652  0.56933  0.90359  Biso   1.000  H
  H167     1.0000 0.70088  0.62161  0.85108  Biso   1.000  H
  H168     1.0000 0.79983  0.67895  0.91686  Biso   1.000  H
  H169     1.0000 0.73262  0.61644  0.86968  Biso   1.000  H
  H170     1.0000 0.80010  0.62565  0.94408  Biso   1.000  H
  H171     1.0000 0.70170  0.52914  0.90417  Biso   1.000  H
  C136     1.0000 0.06511  0.54834  0.85059  Biso   1.000  C
  H172     1.0000 0.22997  0.65852  0.94355  Biso   1.000  H
  H173     1.0000 0.33308  0.63783  0.97726  Biso   1.000  H
  H174     1.0000 0.34364  0.71081  0.92999  Biso   1.000  H
  H175     1.0000 0.24415  0.69255  0.92146  Biso   1.000  H
  H176     1.0000 0.35320  0.68444  0.96234  Biso   1.000  H
  H177     1.0000 0.21630  0.62174  0.95566  Biso   1.000  H
  H178     1.0000 0.33795  0.68694  0.95668  Biso   1.000  H
  H179     1.0000 0.34629  0.72141  0.89555  Biso   1.000  H
  H180     1.0000 0.31336  0.59074  0.98007  Biso   1.000  H
  C137     1.0000 0.88032  0.91640  0.77701  Biso   1.000  C
  C138     1.0000 0.11994  0.99934  0.65679  Biso   1.000  C
  H181     1.0000 0.05989  0.07490  0.70000  Biso   1.000  H
  H182     1.0000 0.11096  0.02102  0.74848  Biso   1.000  H
  H183     1.0000 0.08603  0.97547  0.55720  Biso   1.000  H
  H184     1.0000 0.04560  0.04742  0.57967  Biso   1.000  H
  H185     1.0000 0.00546  0.65496  0.30817  Biso   1.000  H
  H186     1.0000 0.07763  0.71454  0.26758  Biso   1.000  H
  C139     1.0000 0.06154  0.79445  0.33675  Biso   1.000  C
  C140     1.0000 0.24005  0.84333  0.56601  Biso   1.000  C
  H187     1.0000 0.05807  0.85235  0.42220  Biso   1.000  H
  H188     1.0000 0.99567  0.74266  0.40791  Biso   1.000  H
  H189     1.0000 0.83629  0.71622  0.00841  Biso   1.000  H
  C141     1.0000 0.79154  0.66844  0.08795  Biso   1.000  C
  C142     1.0000 0.80362  0.81642  0.05031  Biso   1.000  C
  H190     1.0000 0.09435  0.60876  0.87946  Biso   1.000  H
  C143     1.0000 0.99534  0.54963  0.78288  Biso   1.000  C
  C144     1.0000 0.99952  0.47192  0.88034  Biso   1.000  C
  C145     1.0000 0.82181  0.94211  0.81635  Biso   1.000  C
  C146     1.0000 0.93489  0.85594  0.80366  Biso   1.000  C
  C147     1.0000 0.88744  0.82344  0.78418  Biso   1.000  C
  H191     1.0000 0.13013  0.94296  0.66270  Biso   1.000  H
  H192     1.0000 0.19363  0.05127  0.66657  Biso   1.000  H
  H193     1.0000 0.12365  0.85066  0.33481  Biso   1.000  H
  H194     1.0000 0.99217  0.79408  0.30880  Biso   1.000  H
  C148     1.0000 0.22978  0.82941  0.63102  Biso   1.000  C
  C149     1.0000 0.34613  0.91912  0.56427  Biso   1.000  C
  H195     1.0000 0.78382  0.60656  0.07385  Biso   1.000  H
  H196     1.0000 0.73043  0.66100  0.10432  Biso   1.000  H
  C150     1.0000 0.90160  0.72161  0.14268  Biso   1.000  C
  N21      1.0000 0.80979  0.86199  0.99455  Biso   1.000  N
  C151     1.0000 0.91257  0.86861  0.10645  Biso   1.000  C
  H197     1.0000 0.74126  0.81675  0.06344  Biso   1.000  H
  N22      1.0000 0.05906  0.63363  0.76331  Biso   1.000  N
  H198     1.0000 0.98055  0.49537  0.75178  Biso   1.000  H
  C152     1.0000 0.88592  0.54873  0.78225  Biso   1.000  C
  H199     1.0000 0.04517  0.47705  0.92548  Biso   1.000  H
  C153     1.0000 0.89293  0.47603  0.88034  Biso   1.000  C
  H200     1.0000 0.98152  0.41197  0.85558  Biso   1.000  H
  C154     1.0000 0.80665  0.90336  0.86987  Biso   1.000  C
  C155     1.0000 0.77927  0.00548  0.79828  Biso   1.000  C
  H201     1.0000 0.98549  0.88443  0.84798  Biso   1.000  H
  H202     1.0000 0.87831  0.79582  0.80375  Biso   1.000  H
  H203     1.0000 0.97616  0.84834  0.77638  Biso   1.000  H
  H204     1.0000 0.93608  0.82870  0.82778  Biso   1.000  H
  H205     1.0000 0.91700  0.80865  0.75207  Biso   1.000  H
  H206     1.0000 0.81363  0.77472  0.77716  Biso   1.000  H
  C156     1.0000 0.15435  0.74457  0.63785  Biso   1.000  C
  C157     1.0000 0.29523  0.89803  0.68585  Biso   1.000  C
  H207     1.0000 0.33812  0.97637  0.56219  Biso   1.000  H
  H208     1.0000 0.40671  0.92755  0.60346  Biso   1.000  H
  H209     1.0000 0.36205  0.90254  0.52610  Biso   1.000  H
  H210     1.0000 0.96273  0.72413  0.12781  Biso   1.000  H
  H211     1.0000 0.90296  0.68984  0.18013  Biso   1.000  H
  C158     1.0000 0.91750  0.81872  0.16322  Biso   1.000  C
  C159     1.0000 0.73362  0.88285  0.96302  Biso   1.000  C
  H212     1.0000 0.92050  0.93050  0.12084  Biso   1.000  H
  H213     1.0000 0.97496  0.87615  0.09124  Biso   1.000  H
  C160     1.0000 0.07380  0.63606  0.70896  Biso   1.000  C
  H214     1.0000 0.83999  0.54244  0.73705  Biso   1.000  H
  H215     1.0000 0.90038  0.60763  0.80685  Biso   1.000  H
  C161     1.0000 0.82282  0.47007  0.81194  Biso   1.000  C
  H216     1.0000 0.91068  0.53413  0.90756  Biso   1.000  H
  H217     1.0000 0.85144  0.42466  0.89898  Biso   1.000  H
  C162     1.0000 0.74918  0.92579  0.90543  Biso   1.000  C
  H218     1.0000 0.83563  0.86070  0.88266  Biso   1.000  H
  C163     1.0000 0.72057  0.02761  0.83219  Biso   1.000  C
  H219     1.0000 0.79074  0.03368  0.76239  Biso   1.000  H
  C164     1.0000 0.14657  0.72765  0.69835  Biso   1.000  C
  H220     1.0000 0.10806  0.69792  0.60060  Biso   1.000  H
  C165     1.0000 0.28737  0.88305  0.74684  Biso   1.000  C
  H221     1.0000 0.34602  0.95574  0.68169  Biso   1.000  H
  H222     1.0000 0.98981  0.85295  0.19781  Biso   1.000  H
  H223     1.0000 0.85933  0.81604  0.18105  Biso   1.000  H
  C166     1.0000 0.62921  0.86652  0.97658  Biso   1.000  C
  C167     1.0000 0.02790  0.55523  0.65456  Biso   1.000  C
  H224     1.0000 0.80234  0.41074  0.78515  Biso   1.000  H
  H225     1.0000 0.75412  0.47304  0.81247  Biso   1.000  H
  C168     1.0000 0.70526  0.98660  0.88581  Biso   1.000  C
  C169     1.0000 0.66864  0.09150  0.81247  Biso   1.000  C
  C170     1.0000 0.21393  0.79804  0.75246  Biso   1.000  C
  C171     1.0000 0.35792  0.95936  0.80477  Biso   1.000  C
  H226     1.0000 0.56950  0.85340  0.93565  Biso   1.000  H
  H227     1.0000 0.60954  0.81422  0.99887  Biso   1.000  H
  H228     1.0000 0.64055  0.92121  0.00415  Biso   1.000  H
  H229     1.0000 0.08761  0.54062  0.65127  Biso   1.000  H
  H230     1.0000 0.97184  0.50215  0.66357  Biso   1.000  H
  H231     1.0000 0.99461  0.57074  0.61368  Biso   1.000  H
  H232     1.0000 0.66458  0.00091  0.90887  Biso   1.000  H
  N23      1.0000 0.62434  0.11131  0.84933  Biso   1.000  N
  C172     1.0000 0.70075  0.14659  0.76219  Biso   1.000  C
  C173     1.0000 0.64511  0.10289  0.73957  Biso   1.000  C
  H233     1.0000 0.20920  0.78724  0.79387  Biso   1.000  H
  C174     1.0000 0.38914  0.93062  0.86953  Biso   1.000  C
  N24      1.0000 0.38723  0.04031  0.79392  Biso   1.000  N
  C175     1.0000 0.56765  0.16996  0.83616  Biso   1.000  C
  H234     1.0000 0.67524  0.10517  0.72097  Biso   1.000  H
  H235     1.0000 0.66676  0.18919  0.75638  Biso   1.000  H
  H236     1.0000 0.78112  0.18128  0.77638  Biso   1.000  H
  H237     1.0000 0.71482  0.13968  0.73269  Biso   1.000  H
  H238     1.0000 0.60902  0.04238  0.71167  Biso   1.000  H
  H239     1.0000 0.59680  0.13377  0.72887  Biso   1.000  H
  H240     1.0000 0.33027  0.91845  0.88818  Biso   1.000  H
  H241     1.0000 0.39943  0.87495  0.86348  Biso   1.000  H
  H242     1.0000 0.45779  0.97981  0.89898  Biso   1.000  H
  C176     1.0000 0.45611  0.12087  0.84623  Biso   1.000  C
  C177     1.0000 0.63813  0.26095  0.88329  Biso   1.000  C
  H243     1.0000 0.55617  0.18048  0.79058  Biso   1.000  H
  H244     1.0000 0.46747  0.10067  0.88905  Biso   1.000  H
  C178     1.0000 0.39694  0.18217  0.84318  Biso   1.000  C
  C179     1.0000 0.57851  0.32228  0.87748  Biso   1.000  C
  H245     1.0000 0.65653  0.24928  0.92805  Biso   1.000  H
  H246     1.0000 0.70792  0.29307  0.87447  Biso   1.000  H
  H247     1.0000 0.37450  0.19316  0.79838  Biso   1.000  H
  H248     1.0000 0.32928  0.15032  0.85427  Biso   1.000  H
  C180     1.0000 0.46938  0.27408  0.88944  Biso   1.000  C
  H249     1.0000 0.56480  0.33782  0.83359  Biso   1.000  H
  H250     1.0000 0.62564  0.38005  0.90935  Biso   1.000  H
  H251     1.0000 0.48376  0.26402  0.93468  Biso   1.000  H
  H252     1.0000 0.43027  0.31349  0.88329  Biso   1.000  H
  Ne1      1.0000 0.52027  0.25499  0.25149  Biso   1.000  Ne
  He1      1.0000 0.84768  0.51472  0.28741  Biso   1.000  He
  He2      1.0000 0.46219  0.02481  0.35777  Biso   1.000  He
  He3      1.0000 0.18396  0.24701  0.14027  Biso   1.000  He
  He4      1.0000 0.78187  0.29676  0.17446  Biso   1.000  He
  Ar1      1.0000 0.52515  0.25856  0.24005  Biso   1.000  Ar
  Ne2      1.0000 0.47962  0.74493  0.74847  Biso   1.000  Ne
  He5      1.0000 0.44401  0.81390  0.90212  Biso   1.000  He
  He6      1.0000 0.55296  0.94267  0.91900  Biso   1.000  He
  He7      1.0000 0.21101  0.70658  0.83057  Biso   1.000  He
  He8      1.0000 0.74213  0.67585  0.79501  Biso   1.000  He
  He9      1.0000 0.20048  0.55655  0.73507  Biso   1.000  He
  He10     1.0000 0.47232  0.99370  0.67680  Biso   1.000  He
  Ar2      1.0000 0.48158  0.74839  0.75714  Biso   1.000  Ar
