data_image0
_cell_length_a       11.206
_cell_length_b       18.255
_cell_length_c       13.525
_cell_angle_alpha    90
_cell_angle_beta     91.24
_cell_angle_gamma    90

_symmetry_space_group_name_H-M    "P 1"
_symmetry_int_tables_number       1

loop_
  _symmetry_equiv_pos_as_xyz
  'x, y, z'

loop_
  _atom_site_label
  _atom_site_occupancy
  _atom_site_fract_x
  _atom_site_fract_y
  _atom_site_fract_z
  _atom_site_thermal_displace_type
  _atom_site_B_iso_or_equiv
  _atom_site_type_symbol
  C1       1.0000 0.57316  0.61419  0.48477  Biso   1.000  C
  C2       1.0000 0.65275  0.54818  0.48085  Biso   1.000  C
  O1       1.0000 0.54342  0.62586  0.58631  Biso   1.000  O
  H1       1.0000 0.61478  0.65757  0.45859  Biso   1.000  H
  H2       1.0000 0.49974  0.60592  0.44432  Biso   1.000  H
  N1       1.0000 0.59338  0.48020  0.52086  Biso   1.000  N
  H3       1.0000 0.72686  0.55809  0.51990  Biso   1.000  H
  H4       1.0000 0.67521  0.53941  0.41148  Biso   1.000  H
  C3       1.0000 0.46712  0.68847  0.59637  Biso   1.000  C
  C4       1.0000 0.49428  0.45472  0.45068  Biso   1.000  C
  C5       1.0000 0.68314  0.41912  0.53735  Biso   1.000  C
  H5       1.0000 0.55895  0.49302  0.58298  Biso   1.000  H
  C6       1.0000 0.43584  0.69471  0.70375  Biso   1.000  C
  H6       1.0000 0.39385  0.68228  0.55495  Biso   1.000  H
  H7       1.0000 0.50885  0.73328  0.57455  Biso   1.000  H
  C7       1.0000 0.39199  0.42131  0.50430  Biso   1.000  C
  H8       1.0000 0.46487  0.49701  0.41126  Biso   1.000  H
  H9       1.0000 0.52671  0.41819  0.40431  Biso   1.000  H
  C8       1.0000 0.77505  0.43248  0.61907  Biso   1.000  C
  H10      1.0000 0.63910  0.37360  0.55281  Biso   1.000  H
  H11      1.0000 0.72550  0.41079  0.47486  Biso   1.000  H
  N2       1.0000 0.36518  0.63062  0.74221  Biso   1.000  N
  H12      1.0000 0.38905  0.74007  0.71307  Biso   1.000  H
  H13      1.0000 0.51041  0.69937  0.74376  Biso   1.000  H
  O2       1.0000 0.43235  0.35831  0.55673  Biso   1.000  O
  H14      1.0000 0.35894  0.45730  0.55111  Biso   1.000  H
  H15      1.0000 0.32800  0.40740  0.45630  Biso   1.000  H
  O3       1.0000 0.71995  0.42717  0.71314  Biso   1.000  O
  H16      1.0000 0.83981  0.39578  0.61478  Biso   1.000  H
  H17      1.0000 0.81036  0.48179  0.61131  Biso   1.000  H
  C9       1.0000 0.25357  0.61917  0.67838  Biso   1.000  C
  C10      1.0000 0.33568  0.64141  0.84937  Biso   1.000  C
  H18      1.0000 0.40794  0.58620  0.73599  Biso   1.000  H
  C11      1.0000 0.33767  0.31082  0.58387  Biso   1.000  C
  C12      1.0000 0.80774  0.43161  0.79116  Biso   1.000  C
  C13      1.0000 0.16233  0.56960  0.72475  Biso   1.000  C
  H19      1.0000 0.21627  0.66738  0.66478  Biso   1.000  H
  H20      1.0000 0.27689  0.59792  0.61427  Biso   1.000  H
  C14      1.0000 0.44354  0.65911  0.91326  Biso   1.000  C
  H21      1.0000 0.27700  0.68168  0.85454  Biso   1.000  H
  H22      1.0000 0.29796  0.59622  0.87444  Biso   1.000  H
  H23      1.0000 0.37257  0.26519  0.61146  Biso   1.000  H
  H24      1.0000 0.29102  0.29751  0.52345  Biso   1.000  H
  C15      1.0000 0.25289  0.34259  0.65886  Biso   1.000  C
  C16      1.0000 0.74817  0.41912  0.88849  Biso   1.000  C
  H25      1.0000 0.84611  0.48047  0.79094  Biso   1.000  H
  H26      1.0000 0.87022  0.39408  0.78148  Biso   1.000  H
  O4       1.0000 0.22224  0.50441  0.75323  Biso   1.000  O
  H27      1.0000 0.12772  0.59359  0.78325  Biso   1.000  H
  H28      1.0000 0.09683  0.55848  0.67676  Biso   1.000  H
  O5       1.0000 0.53179  0.60526  0.89263  Biso   1.000  O
  H29      1.0000 0.47365  0.70868  0.89773  Biso   1.000  H
  H30      1.0000 0.42281  0.65752  0.98404  Biso   1.000  H
  N3       1.0000 0.31071  0.36363  0.75456  Biso   1.000  N
  H31      1.0000 0.21384  0.38652  0.62957  Biso   1.000  H
  H32      1.0000 0.18969  0.30622  0.67180  Biso   1.000  H
  N4       1.0000 0.66076  0.47784  0.91718  Biso   1.000  N
  H33      1.0000 0.81068  0.41539  0.94107  Biso   1.000  H
  H34      1.0000 0.70571  0.37162  0.88546  Biso   1.000  H
  C17      1.0000 0.14288  0.44859  0.78606  Biso   1.000  C
  C18      1.0000 0.63535  0.61128  0.95564  Biso   1.000  C
  C19      1.0000 0.38354  0.30178  0.79264  Biso   1.000  C
  C20      1.0000 0.21731  0.38570  0.82415  Biso   1.000  C
  C21      1.0000 0.59925  0.45790  0.01207  Biso   1.000  C
  C22      1.0000 0.71984  0.55229  0.92436  Biso   1.000  C
  H35      1.0000 0.59388  0.48200  0.86800  Biso   1.000  H
  H36      1.0000 0.09038  0.43210  0.73060  Biso   1.000  H
  H37      1.0000 0.09206  0.46782  0.83916  Biso   1.000  H
  H38      1.0000 0.67255  0.66009  0.94847  Biso   1.000  H
  H39      1.0000 0.61388  0.60449  0.02560  Biso   1.000  H
  H40      1.0000 0.45493  0.29690  0.75130  Biso   1.000  H
  H41      1.0000 0.33641  0.25609  0.78510  Biso   1.000  H
  C23      1.0000 0.42419  0.30879  0.90010  Biso   1.000  C
  H42      1.0000 0.25566  0.39989  0.88797  Biso   1.000  H
  H43      1.0000 0.16463  0.34330  0.83657  Biso   1.000  H
  C24      1.0000 0.54487  0.38242  0.00711  Biso   1.000  C
  H44      1.0000 0.65791  0.45987  0.06775  Biso   1.000  H
  H45      1.0000 0.53596  0.49422  0.02494  Biso   1.000  H
  H46      1.0000 0.78740  0.54971  0.97258  Biso   1.000  H
  H47      1.0000 0.75241  0.56527  0.85920  Biso   1.000  H
  O6       1.0000 0.48291  0.37743  0.91400  Biso   1.000  O
  H48      1.0000 0.35456  0.30561  0.94359  Biso   1.000  H
  H49      1.0000 0.47961  0.26831  0.91748  Biso   1.000  H
  H50      1.0000 0.60782  0.34451  0.01221  Biso   1.000  H
  H51      1.0000 0.48883  0.37529  0.06191  Biso   1.000  H
  C25      1.0000 0.66221  0.81079  0.41607  Biso   1.000  C
  C26      1.0000 0.74708  0.84262  0.34108  Biso   1.000  C
  O7       1.0000 0.56753  0.85829  0.44328  Biso   1.000  O
  H52      1.0000 0.62732  0.76522  0.38848  Biso   1.000  H
  H53      1.0000 0.70886  0.79748  0.47649  Biso   1.000  H
  N5       1.0000 0.68917  0.86360  0.24538  Biso   1.000  N
  H54      1.0000 0.78604  0.88650  0.37036  Biso   1.000  H
  H55      1.0000 0.81029  0.80619  0.32821  Biso   1.000  H
  C27      1.0000 0.60799  0.92128  0.49572  Biso   1.000  C
  C28      1.0000 0.61634  0.80181  0.20729  Biso   1.000  C
  C29      1.0000 0.78257  0.88568  0.17579  Biso   1.000  C
  C30      1.0000 0.50569  0.95470  0.54926  Biso   1.000  C
  H56      1.0000 0.64094  0.95727  0.44890  Biso   1.000  H
  H57      1.0000 0.67197  0.90737  0.54371  Biso   1.000  H
  H58      1.0000 0.54496  0.79688  0.24871  Biso   1.000  H
  H59      1.0000 0.66348  0.75612  0.21491  Biso   1.000  H
  C31      1.0000 0.57570  0.80882  0.09991  Biso   1.000  C
  H60      1.0000 0.74422  0.89992  0.11197  Biso   1.000  H
  H61      1.0000 0.83525  0.84328  0.16337  Biso   1.000  H
  C32      1.0000 0.85709  0.94862  0.21388  Biso   1.000  C
  N6       1.0000 0.40659  0.98017  0.47908  Biso   1.000  N
  H62      1.0000 0.53501  0.99699  0.58868  Biso   1.000  H
  H63      1.0000 0.47317  0.91821  0.59570  Biso   1.000  H
  O8       1.0000 0.51697  0.87740  0.08594  Biso   1.000  O
  H64      1.0000 0.64541  0.80559  0.05643  Biso   1.000  H
  H65      1.0000 0.52027  0.76828  0.08253  Biso   1.000  H
  H66      1.0000 0.90959  0.93207  0.26942  Biso   1.000  H
  H67      1.0000 0.90782  0.96779  0.16078  Biso   1.000  H
  O9       1.0000 0.77764  0.00444  0.24679  Biso   1.000  O
  C33      1.0000 0.31674  0.91909  0.46259  Biso   1.000  C
  H68      1.0000 0.44093  0.99299  0.41696  Biso   1.000  H
  C34      1.0000 0.34713  0.04821  0.51909  Biso   1.000  C
  C35      1.0000 0.45502  0.88239  0.99283  Biso   1.000  C
  C36      1.0000 0.83755  0.06962  0.27518  Biso   1.000  C
  C37      1.0000 0.22483  0.93251  0.38087  Biso   1.000  C
  H69      1.0000 0.36078  0.87357  0.44720  Biso   1.000  H
  H70      1.0000 0.27438  0.91082  0.52508  Biso   1.000  H
  C38      1.0000 0.42672  0.11422  0.51517  Biso   1.000  C
  H71      1.0000 0.27303  0.05812  0.48011  Biso   1.000  H
  H72      1.0000 0.32467  0.03939  0.58846  Biso   1.000  H
  H73      1.0000 0.39206  0.84448  0.98772  Biso   1.000  H
  H74      1.0000 0.51105  0.87532  0.93803  Biso   1.000  H
  C39      1.0000 0.40063  0.95787  0.98795  Biso   1.000  C
  H75      1.0000 0.87216  0.09362  0.21669  Biso   1.000  H
  H76      1.0000 0.90305  0.05850  0.32318  Biso   1.000  H
  C40      1.0000 0.74640  0.11920  0.32155  Biso   1.000  C
  O10      1.0000 0.27993  0.92720  0.28680  Biso   1.000  O
  H77      1.0000 0.16007  0.89581  0.38515  Biso   1.000  H
  H78      1.0000 0.18961  0.98181  0.38870  Biso   1.000  H
  O11      1.0000 0.45646  0.12588  0.41370  Biso   1.000  O
  H79      1.0000 0.38519  0.15760  0.54135  Biso   1.000  H
  H80      1.0000 0.50015  0.10589  0.55569  Biso   1.000  H
  N7       1.0000 0.33921  0.97781  0.08283  Biso   1.000  N
  H81      1.0000 0.34198  0.95990  0.93226  Biso   1.000  H
  H82      1.0000 0.46392  0.99419  0.97500  Biso   1.000  H
  N8       1.0000 0.63479  0.13059  0.25781  Biso   1.000  N
  H83      1.0000 0.78361  0.16741  0.33516  Biso   1.000  H
  H84      1.0000 0.72308  0.09789  0.38567  Biso   1.000  H
  C41      1.0000 0.19214  0.93158  0.20877  Biso   1.000  C
  C42      1.0000 0.53276  0.18850  0.40357  Biso   1.000  C
  C43      1.0000 0.25171  0.91909  0.11152  Biso   1.000  C
  H85      1.0000 0.40600  0.98198  0.13201  Biso   1.000  H
  C44      1.0000 0.28013  0.05231  0.07558  Biso   1.000  C
  C45      1.0000 0.66429  0.14139  0.15057  Biso   1.000  C
  C46      1.0000 0.56405  0.19469  0.29619  Biso   1.000  C
  H86      1.0000 0.59194  0.08622  0.26402  Biso   1.000  H
  H87      1.0000 0.15377  0.98050  0.20900  Biso   1.000  H
  H88      1.0000 0.12966  0.89411  0.21846  Biso   1.000  H
  H89      1.0000 0.60604  0.18231  0.44498  Biso   1.000  H
  H90      1.0000 0.49103  0.23331  0.42539  Biso   1.000  H
  H91      1.0000 0.18920  0.91542  0.05887  Biso   1.000  H
  H92      1.0000 0.29417  0.87160  0.11448  Biso   1.000  H
  H93      1.0000 0.21248  0.04969  0.02736  Biso   1.000  H
  H94      1.0000 0.24748  0.06530  0.14081  Biso   1.000  H
  C47      1.0000 0.36462  0.11131  0.04430  Biso   1.000  C
  C48      1.0000 0.55634  0.15908  0.08667  Biso   1.000  C
  H95      1.0000 0.72288  0.18170  0.14539  Biso   1.000  H
  H96      1.0000 0.70201  0.09619  0.12550  Biso   1.000  H
  H97      1.0000 0.61083  0.24010  0.28687  Biso   1.000  H
  H98      1.0000 0.48947  0.19940  0.25618  Biso   1.000  H
  H99      1.0000 0.38609  0.10452  0.97434  Biso   1.000  H
  O12      1.0000 0.46809  0.10529  0.10731  Biso   1.000  O
  H100     1.0000 0.32742  0.16012  0.05147  Biso   1.000  H
  H101     1.0000 0.52632  0.20871  0.10221  Biso   1.000  H
  H102     1.0000 0.57707  0.15749  0.01590  Biso   1.000  H
  Ne1      1.0000 0.48093  0.48740  0.73582  Biso   1.000  Ne
  He1      1.0000 0.37331  0.49940  0.93941  Biso   1.000  He
  He2      1.0000 0.53638  0.37527  0.70059  Biso   1.000  He
  He3      1.0000 0.66672  0.56186  0.71949  Biso   1.000  He
  He4      1.0000 0.31239  0.56497  0.45957  Biso   1.000  He
  Ar1      1.0000 0.47707  0.47014  0.73086  Biso   1.000  Ar
  Ne2      1.0000 0.51898  0.98740  0.26414  Biso   1.000  Ne
  He5      1.0000 0.60592  0.05115  0.44298  Biso   1.000  He
  He6      1.0000 0.42264  0.83935  0.32215  Biso   1.000  He
  He7      1.0000 0.34083  0.06053  0.27714  Biso   1.000  He
  He8      1.0000 0.58944  0.99644  0.14932  Biso   1.000  He
  Ar2      1.0000 0.52292  0.97015  0.26908  Biso   1.000  Ar
