data_image0
_cell_length_a       12.935
_cell_length_b       11.73
_cell_length_c       21.685
_cell_angle_alpha    90
_cell_angle_beta     97.08
_cell_angle_gamma    90

_symmetry_space_group_name_H-M    "P 1"
_symmetry_int_tables_number       1

loop_
  _symmetry_equiv_pos_as_xyz
  'x, y, z'

loop_
  _atom_site_label
  _atom_site_occupancy
  _atom_site_fract_x
  _atom_site_fract_y
  _atom_site_fract_z
  _atom_site_thermal_displace_type
  _atom_site_B_iso_or_equiv
  _atom_site_type_symbol
  O1       1.0000 0.62165  0.50767  0.37900  Biso   1.000  O
  C1       1.0000 0.56042  0.48133  0.31952  Biso   1.000  C
  C2       1.0000 0.70170  0.59292  0.37659  Biso   1.000  C
  H1       1.0000 0.51345  0.41748  0.32491  Biso   1.000  H
  H2       1.0000 0.60732  0.46053  0.28908  Biso   1.000  H
  H3       1.0000 0.51938  0.54834  0.30461  Biso   1.000  H
  C3       1.0000 0.78000  0.58593  0.42101  Biso   1.000  C
  C4       1.0000 0.69327  0.67809  0.33239  Biso   1.000  C
  C5       1.0000 0.79475  0.48900  0.46808  Biso   1.000  C
  C6       1.0000 0.86287  0.66650  0.42101  Biso   1.000  C
  C7       1.0000 0.77324  0.74868  0.33142  Biso   1.000  C
  H4       1.0000 0.63212  0.68593  0.30358  Biso   1.000  H
  C8       1.0000 0.85018  0.38679  0.44341  Biso   1.000  C
  H5       1.0000 0.72582  0.46462  0.47873  Biso   1.000  H
  H6       1.0000 0.83589  0.51697  0.50670  Biso   1.000  H
  H7       1.0000 0.92189  0.66607  0.45182  Biso   1.000  H
  C9       1.0000 0.85177  0.74066  0.37589  Biso   1.000  C
  C10      1.0000 0.76982  0.84646  0.27821  Biso   1.000  C
  C11      1.0000 0.96063  0.38329  0.45149  Biso   1.000  C
  C12      1.0000 0.79412  0.30827  0.40740  Biso   1.000  C
  O2       1.0000 0.93889  0.82336  0.37059  Biso   1.000  O
  H8       1.0000 0.69663  0.86829  0.26450  Biso   1.000  H
  H9       1.0000 0.80748  0.91509  0.29550  Biso   1.000  H
  C13      1.0000 0.81896  0.80298  0.22421  Biso   1.000  C
  O3       1.0000 0.00917  0.46905  0.48588  Biso   1.000  O
  C14      1.0000 0.01105  0.29301  0.42612  Biso   1.000  C
  H10      1.0000 0.72039  0.31390  0.39968  Biso   1.000  H
  C15      1.0000 0.84813  0.21662  0.38109  Biso   1.000  C
  C16      1.0000 0.04095  0.79028  0.39610  Biso   1.000  C
  C17      1.0000 0.92137  0.83061  0.21919  Biso   1.000  C
  C18      1.0000 0.76470  0.73103  0.18011  Biso   1.000  C
  C19      1.0000 0.12263  0.47118  0.49508  Biso   1.000  C
  C20      1.0000 0.95652  0.20767  0.39271  Biso   1.000  C
  H11      1.0000 0.08502  0.29011  0.43202  Biso   1.000  H
  O4       1.0000 0.79309  0.13112  0.34671  Biso   1.000  O
  H12      1.0000 0.04554  0.78917  0.44150  Biso   1.000  H
  H13      1.0000 0.09165  0.84467  0.38332  Biso   1.000  H
  H14      1.0000 0.05594  0.71398  0.38109  Biso   1.000  H
  H15      1.0000 0.95760  0.87656  0.25089  Biso   1.000  H
  C21      1.0000 0.97655  0.79463  0.16938  Biso   1.000  C
  O5       1.0000 0.66448  0.70656  0.18932  Biso   1.000  O
  C22      1.0000 0.81552  0.69949  0.13049  Biso   1.000  C
  H16      1.0000 0.14745  0.45303  0.53848  Biso   1.000  H
  H17      1.0000 0.14724  0.54731  0.48509  Biso   1.000  H
  H18      1.0000 0.14964  0.41466  0.46790  Biso   1.000  H
  C23      1.0000 0.01176  0.10571  0.36822  Biso   1.000  C
  C24      1.0000 0.69438  0.15899  0.31460  Biso   1.000  C
  C25      1.0000 0.91549  0.73342  0.12268  Biso   1.000  C
  O6       1.0000 0.07439  0.82336  0.16208  Biso   1.000  O
  C26      1.0000 0.60926  0.62046  0.14768  Biso   1.000  C
  H19      1.0000 0.77955  0.65141  0.09972  Biso   1.000  H
  H20      1.0000 0.96432  0.03913  0.36423  Biso   1.000  H
  H21      1.0000 0.07373  0.08559  0.39759  Biso   1.000  H
  C27      1.0000 0.04619  0.13632  0.30210  Biso   1.000  C
  H22      1.0000 0.64502  0.17263  0.34471  Biso   1.000  H
  H23      1.0000 0.66939  0.09582  0.28718  Biso   1.000  H
  H24      1.0000 0.70039  0.22788  0.28978  Biso   1.000  H
  C28      1.0000 0.96737  0.68721  0.06771  Biso   1.000  C
  C29      1.0000 0.13600  0.86488  0.21669  Biso   1.000  C
  H25      1.0000 0.54909  0.59156  0.16631  Biso   1.000  H
  H26      1.0000 0.65677  0.55729  0.14192  Biso   1.000  H
  H27      1.0000 0.58562  0.65541  0.10739  Biso   1.000  H
  C30      1.0000 0.97710  0.12404  0.24870  Biso   1.000  C
  C31      1.0000 0.15110  0.17647  0.28941  Biso   1.000  C
  H28      1.0000 0.91546  0.68713  0.03011  Biso   1.000  H
  H29      1.0000 0.02450  0.73930  0.05981  Biso   1.000  H
  C32      1.0000 0.01135  0.56743  0.07811  Biso   1.000  C
  H30      1.0000 0.13915  0.80699  0.24949  Biso   1.000  H
  H31      1.0000 0.10454  0.93470  0.23091  Biso   1.000  H
  H32      1.0000 0.20658  0.88150  0.20730  Biso   1.000  H
  H33      1.0000 0.90992  0.09676  0.25470  Biso   1.000  H
  C33      1.0000 0.99105  0.14467  0.18941  Biso   1.000  C
  C34      1.0000 0.16358  0.20341  0.23230  Biso   1.000  C
  C35      1.0000 0.23434  0.19710  0.34392  Biso   1.000  C
  C36      1.0000 0.94936  0.47502  0.05460  Biso   1.000  C
  C37      1.0000 0.10591  0.55090  0.11408  Biso   1.000  C
  C38      1.0000 0.90890  0.11662  0.13978  Biso   1.000  C
  C39      1.0000 0.08959  0.18423  0.18030  Biso   1.000  C
  H34      1.0000 0.22743  0.23853  0.22551  Biso   1.000  H
  C40      1.0000 0.27601  0.11620  0.37910  Biso   1.000  C
  C41      1.0000 0.27592  0.31517  0.34982  Biso   1.000  C
  O7       1.0000 0.85245  0.49668  0.01812  Biso   1.000  O
  C42      1.0000 0.98724  0.36053  0.06469  Biso   1.000  C
  H35      1.0000 0.14703  0.61330  0.13090  Biso   1.000  H
  C43      1.0000 0.13740  0.44118  0.12430  Biso   1.000  C
  C44      1.0000 0.92479  0.04561  0.08950  Biso   1.000  C
  C45      1.0000 0.80542  0.15516  0.14220  Biso   1.000  C
  C46      1.0000 0.11781  0.22523  0.11929  Biso   1.000  C
  H36      1.0000 0.25080  0.04092  0.37120  Biso   1.000  H
  C47      1.0000 0.35531  0.13214  0.42798  Biso   1.000  C
  C48      1.0000 0.35731  0.33188  0.39801  Biso   1.000  C
  H37      1.0000 0.24939  0.37502  0.32282  Biso   1.000  H
  C49      1.0000 0.80028  0.40742  0.98267  Biso   1.000  C
  H38      1.0000 0.95075  0.29650  0.04600  Biso   1.000  H
  C50      1.0000 0.08004  0.34928  0.10302  Biso   1.000  C
  O8       1.0000 0.23328  0.41603  0.16069  Biso   1.000  O
  H39      1.0000 0.99178  0.01313  0.08820  Biso   1.000  H
  C51      1.0000 0.84736  0.02182  0.04252  Biso   1.000  C
  C52      1.0000 0.72547  0.12890  0.09391  Biso   1.000  C
  H40      1.0000 0.78972  0.19932  0.17658  Biso   1.000  H
  H41      1.0000 0.08691  0.17306  0.08611  Biso   1.000  H
  H42      1.0000 0.19454  0.22208  0.12022  Biso   1.000  H
  H43      1.0000 0.38045  0.07238  0.45540  Biso   1.000  H
  C53      1.0000 0.39791  0.25209  0.43360  Biso   1.000  C
  H44      1.0000 0.38391  0.40699  0.40479  Biso   1.000  H
  H45      1.0000 0.76985  0.35456  0.01050  Biso   1.000  H
  H46      1.0000 0.84997  0.36650  0.96008  Biso   1.000  H
  H47      1.0000 0.74467  0.43956  0.95297  Biso   1.000  H
  C54      1.0000 0.29969  0.50580  0.18690  Biso   1.000  C
  C55      1.0000 0.73932  0.05908  0.04828  Biso   1.000  C
  H48      1.0000 0.86257  0.98201  0.00651  Biso   1.000  H
  H49      1.0000 0.65908  0.16309  0.09438  Biso   1.000  H
  C56      1.0000 0.49684  0.26087  0.48100  Biso   1.000  C
  H50      1.0000 0.34435  0.47707  0.22342  Biso   1.000  H
  H51      1.0000 0.25703  0.56880  0.19931  Biso   1.000  H
  H52      1.0000 0.34317  0.53291  0.15600  Biso   1.000  H
  C57      1.0000 0.64956  0.03461  0.99851  Biso   1.000  C
  O9       1.0000 0.58314  0.21986  0.47250  Biso   1.000  O
  N1       1.0000 0.49023  0.30963  0.53430  Biso   1.000  N
  N2       1.0000 0.63649  0.92685  0.97607  Biso   1.000  N
  O10      1.0000 0.58950  0.11032  0.98099  Biso   1.000  O
  C58      1.0000 0.38050  0.36547  0.54880  Biso   1.000  C
  C59      1.0000 0.57542  0.32498  0.58742  Biso   1.000  C
  C60      1.0000 0.69615  0.82268  0.99577  Biso   1.000  C
  C61      1.0000 0.54129  0.89582  0.93211  Biso   1.000  C
  H53      1.0000 0.34681  0.40946  0.51293  Biso   1.000  H
  H54      1.0000 0.33167  0.30673  0.56051  Biso   1.000  H
  C62      1.0000 0.41640  0.43990  0.60131  Biso   1.000  C
  C63      1.0000 0.51156  0.38849  0.63681  Biso   1.000  C
  H55      1.0000 0.62901  0.37818  0.57441  Biso   1.000  H
  C64      1.0000 0.62980  0.20801  0.61000  Biso   1.000  C
  H56      1.0000 0.76499  0.82310  0.98020  Biso   1.000  H
  C65      1.0000 0.63326  0.73120  0.96901  Biso   1.000  C
  H57      1.0000 0.70680  0.81628  0.04168  Biso   1.000  H
  C66      1.0000 0.56979  0.77911  0.91217  Biso   1.000  C
  H58      1.0000 0.53474  0.94842  0.89558  Biso   1.000  H
  C67      1.0000 0.44087  0.90085  0.96357  Biso   1.000  C
  H59      1.0000 0.36106  0.44808  0.62868  Biso   1.000  H
  H60      1.0000 0.43288  0.51645  0.58602  Biso   1.000  H
  H61      1.0000 0.49151  0.33333  0.66772  Biso   1.000  H
  H62      1.0000 0.55504  0.44868  0.65903  Biso   1.000  H
  O11      1.0000 0.70810  0.18150  0.57780  Biso   1.000  O
  H63      1.0000 0.65695  0.21458  0.65461  Biso   1.000  H
  H64      1.0000 0.57743  0.14646  0.60540  Biso   1.000  H
  H65      1.0000 0.58728  0.70230  0.99870  Biso   1.000  H
  H66      1.0000 0.67755  0.66769  0.95739  Biso   1.000  H
  H67      1.0000 0.61119  0.78303  0.87681  Biso   1.000  H
  H68      1.0000 0.50676  0.73240  0.90009  Biso   1.000  H
  H69      1.0000 0.42618  0.98133  0.97328  Biso   1.000  H
  H70      1.0000 0.38200  0.87238  0.93420  Biso   1.000  H
  O12      1.0000 0.44747  0.83461  0.02021  Biso   1.000  O
  H71      1.0000 0.68411  0.16547  0.54099  Biso   1.000  H
  H72      1.0000 0.39301  0.79591  0.02040  Biso   1.000  H
  C68      1.0000 0.30568  0.65899  0.68542  Biso   1.000  C
  O13      1.0000 0.20697  0.63112  0.65331  Biso   1.000  O
  H73      1.0000 0.35504  0.67263  0.65531  Biso   1.000  H
  H74      1.0000 0.33066  0.59582  0.71279  Biso   1.000  H
  H75      1.0000 0.29967  0.72788  0.71019  Biso   1.000  H
  C69      1.0000 0.15193  0.71662  0.61892  Biso   1.000  C
  C70      1.0000 0.04354  0.70767  0.60731  Biso   1.000  C
  C71      1.0000 0.20595  0.80827  0.59262  Biso   1.000  C
  C72      1.0000 0.98830  0.60571  0.63179  Biso   1.000  C
  C73      1.0000 0.98901  0.79301  0.57389  Biso   1.000  C
  C74      1.0000 0.14988  0.88679  0.55661  Biso   1.000  C
  H76      1.0000 0.27966  0.81390  0.60029  Biso   1.000  H
  H77      1.0000 0.03574  0.53913  0.63579  Biso   1.000  H
  H78      1.0000 0.92634  0.58559  0.60243  Biso   1.000  H
  C75      1.0000 0.95380  0.63632  0.69792  Biso   1.000  C
  C76      1.0000 0.03943  0.88329  0.54852  Biso   1.000  C
  H79      1.0000 0.91505  0.79011  0.56799  Biso   1.000  H
  C77      1.0000 0.20530  0.98900  0.53189  Biso   1.000  C
  C78      1.0000 0.02297  0.62396  0.75131  Biso   1.000  C
  C79      1.0000 0.84896  0.67647  0.71061  Biso   1.000  C
  O14      1.0000 0.99088  0.96905  0.51409  Biso   1.000  O
  H80      1.0000 0.27424  0.96462  0.52129  Biso   1.000  H
  H81      1.0000 0.16417  0.01697  0.49332  Biso   1.000  H
  C80      1.0000 0.22007  0.08593  0.57901  Biso   1.000  C
  H82      1.0000 0.09015  0.59676  0.74532  Biso   1.000  H
  C81      1.0000 0.00894  0.64467  0.81061  Biso   1.000  C
  C82      1.0000 0.83641  0.70341  0.76772  Biso   1.000  C
  C83      1.0000 0.76572  0.69710  0.65610  Biso   1.000  C
  C84      1.0000 0.87742  0.97118  0.50489  Biso   1.000  C
  C85      1.0000 0.13711  0.16650  0.57901  Biso   1.000  C
  C86      1.0000 0.29835  0.09292  0.62338  Biso   1.000  C
  C87      1.0000 0.09116  0.61662  0.86019  Biso   1.000  C
  C88      1.0000 0.91047  0.68423  0.81972  Biso   1.000  C
  H83      1.0000 0.77264  0.73853  0.77450  Biso   1.000  H
  C89      1.0000 0.72405  0.61620  0.62092  Biso   1.000  C
  C90      1.0000 0.72415  0.81517  0.65020  Biso   1.000  C
  H84      1.0000 0.85261  0.95303  0.46149  Biso   1.000  H
  H85      1.0000 0.85042  0.91466  0.53212  Biso   1.000  H
  H86      1.0000 0.85282  0.04731  0.51492  Biso   1.000  H
  H87      1.0000 0.07818  0.16607  0.54820  Biso   1.000  H
  C91      1.0000 0.14829  0.24066  0.62413  Biso   1.000  C
  O15      1.0000 0.37842  0.00767  0.62101  Biso   1.000  O
  C92      1.0000 0.30672  0.17809  0.66762  Biso   1.000  C
  C93      1.0000 0.07527  0.54561  0.91052  Biso   1.000  C
  C94      1.0000 0.19465  0.65516  0.85782  Biso   1.000  C
  C95      1.0000 0.88225  0.72523  0.88068  Biso   1.000  C
  H88      1.0000 0.74926  0.54092  0.62882  Biso   1.000  H
  C96      1.0000 0.64475  0.63205  0.57199  Biso   1.000  C
  C97      1.0000 0.64276  0.83188  0.60201  Biso   1.000  C
  H89      1.0000 0.75060  0.87502  0.67719  Biso   1.000  H
  O16      1.0000 0.06118  0.32336  0.62942  Biso   1.000  O
  C98      1.0000 0.22683  0.24868  0.66860  Biso   1.000  C
  C99      1.0000 0.43965  0.98133  0.68049  Biso   1.000  C
  H90      1.0000 0.36794  0.18593  0.69639  Biso   1.000  H
  H91      1.0000 0.00828  0.51313  0.91182  Biso   1.000  H
  C100     1.0000 0.15270  0.52182  0.95750  Biso   1.000  C
  C101     1.0000 0.27459  0.62890  0.90610  Biso   1.000  C
  H92      1.0000 0.21034  0.69932  0.82339  Biso   1.000  H
  C102     1.0000 0.92002  0.84928  0.89699  Biso   1.000  C
  H93      1.0000 0.91316  0.67306  0.91391  Biso   1.000  H
  H94      1.0000 0.80553  0.72208  0.87980  Biso   1.000  H
  H95      1.0000 0.61961  0.57238  0.54462  Biso   1.000  H
  C103     1.0000 0.60216  0.75209  0.56641  Biso   1.000  C
  H96      1.0000 0.61615  0.90699  0.59522  Biso   1.000  H
  C104     1.0000 0.95911  0.29028  0.60391  Biso   1.000  C
  C105     1.0000 0.23025  0.34646  0.72181  Biso   1.000  C
  H97      1.0000 0.48662  0.91748  0.67510  Biso   1.000  H
  H98      1.0000 0.39274  0.96053  0.71089  Biso   1.000  H
  H99      1.0000 0.48061  0.04834  0.69541  Biso   1.000  H
  H100     1.0000 0.13749  0.48201  0.99351  Biso   1.000  H
  C106     1.0000 0.26074  0.55908  0.95169  Biso   1.000  C
  H101     1.0000 0.34097  0.66309  0.90559  Biso   1.000  H
  C107     1.0000 0.01274  0.86053  0.93528  Biso   1.000  C
  C108     1.0000 0.86267  0.94118  0.87571  Biso   1.000  C
  C109     1.0000 0.50322  0.76087  0.51901  Biso   1.000  C
  H102     1.0000 0.95453  0.28917  0.55851  Biso   1.000  H
  H103     1.0000 0.90841  0.34467  0.61669  Biso   1.000  H
  H104     1.0000 0.94412  0.21398  0.61892  Biso   1.000  H
  H105     1.0000 0.30343  0.36829  0.73551  Biso   1.000  H
  H106     1.0000 0.19258  0.41509  0.70452  Biso   1.000  H
  C110     1.0000 0.18102  0.30298  0.77580  Biso   1.000  C
  C111     1.0000 0.35051  0.53461  0.00150  Biso   1.000  C
  H107     1.0000 0.04931  0.79650  0.95401  Biso   1.000  H
  C112     1.0000 0.05071  0.97502  0.94541  Biso   1.000  C
  O17      1.0000 0.76678  0.91603  0.83933  Biso   1.000  O
  C113     1.0000 0.89415  0.05090  0.88589  Biso   1.000  C
  O18      1.0000 0.41693  0.71986  0.52752  Biso   1.000  O
  N3       1.0000 0.50984  0.80963  0.46571  Biso   1.000  N
  C114     1.0000 0.07870  0.33061  0.78082  Biso   1.000  C
  C115     1.0000 0.23536  0.23103  0.81990  Biso   1.000  C
  O19      1.0000 0.41056  0.61032  0.01902  Biso   1.000  O
  N4       1.0000 0.36356  0.42685  0.02390  Biso   1.000  N
  O20      1.0000 0.14761  0.99668  0.98189  Biso   1.000  O
  C116     1.0000 0.98872  0.06743  0.92190  Biso   1.000  C
  C117     1.0000 0.70037  0.00580  0.81312  Biso   1.000  C
  H108     1.0000 0.85303  0.11330  0.86911  Biso   1.000  H
  C118     1.0000 0.61956  0.86547  0.45122  Biso   1.000  C
  C119     1.0000 0.42465  0.82498  0.41260  Biso   1.000  C
  H109     1.0000 0.04245  0.37656  0.74908  Biso   1.000  H
  C120     1.0000 0.02350  0.29463  0.83059  Biso   1.000  C
  O21      1.0000 0.33559  0.20656  0.81070  Biso   1.000  O
  C121     1.0000 0.18453  0.19949  0.86948  Biso   1.000  C
  C122     1.0000 0.30390  0.32268  0.00420  Biso   1.000  C
  C123     1.0000 0.45878  0.39582  0.06791  Biso   1.000  C
  C124     1.0000 0.19977  0.90742  0.01730  Biso   1.000  C
  C125     1.0000 0.03269  0.18721  0.93231  Biso   1.000  C
  H110     1.0000 0.65571  0.97707  0.77659  Biso   1.000  H
  H111     1.0000 0.74303  0.06880  0.80071  Biso   1.000  H
  H112     1.0000 0.65689  0.03291  0.84402  Biso   1.000  H
  H113     1.0000 0.65326  0.90946  0.48709  Biso   1.000  H
  H114     1.0000 0.66840  0.80673  0.43951  Biso   1.000  H
  C126     1.0000 0.58358  0.93990  0.39871  Biso   1.000  C
  C127     1.0000 0.48850  0.88849  0.36320  Biso   1.000  C
  H115     1.0000 0.37105  0.87818  0.42561  Biso   1.000  H
  C128     1.0000 0.37019  0.70801  0.39002  Biso   1.000  C
  O22      1.0000 0.92567  0.32336  0.83789  Biso   1.000  O
  C129     1.0000 0.08456  0.23342  0.87729  Biso   1.000  C
  C130     1.0000 0.39072  0.12046  0.85229  Biso   1.000  C
  H116     1.0000 0.22043  0.15141  0.90029  Biso   1.000  H
  H117     1.0000 0.29326  0.31628  0.95829  Biso   1.000  H
  H118     1.0000 0.23508  0.32310  0.01981  Biso   1.000  H
  C131     1.0000 0.36681  0.23120  0.03101  Biso   1.000  C
  C132     1.0000 0.43026  0.27911  0.08780  Biso   1.000  C
  H119     1.0000 0.46532  0.44842  0.10443  Biso   1.000  H
  C133     1.0000 0.55919  0.40094  0.03640  Biso   1.000  C
  H120     1.0000 0.23021  0.85456  0.98951  Biso   1.000  H
  H121     1.0000 0.15010  0.86650  0.03993  Biso   1.000  H
  H122     1.0000 0.25538  0.93956  0.04700  Biso   1.000  H
  H123     1.0000 0.97557  0.23930  0.94021  Biso   1.000  H
  H124     1.0000 0.08460  0.18713  0.96990  Biso   1.000  H
  H125     1.0000 0.63899  0.94808  0.37129  Biso   1.000  H
  H126     1.0000 0.56718  0.01654  0.41399  Biso   1.000  H
  H127     1.0000 0.50848  0.83333  0.33230  Biso   1.000  H
  H128     1.0000 0.44502  0.94868  0.34099  Biso   1.000  H
  O23      1.0000 0.29196  0.68150  0.42222  Biso   1.000  O
  H129     1.0000 0.34312  0.71458  0.34541  Biso   1.000  H
  H130     1.0000 0.42263  0.64646  0.39462  Biso   1.000  H
  C134     1.0000 0.86405  0.36488  0.78328  Biso   1.000  C
  H131     1.0000 0.45097  0.09156  0.83370  Biso   1.000  H
  H132     1.0000 0.34329  0.05729  0.85810  Biso   1.000  H
  H133     1.0000 0.41444  0.15541  0.89263  Biso   1.000  H
  H134     1.0000 0.41278  0.20230  0.00132  Biso   1.000  H
  H135     1.0000 0.32251  0.16769  0.04263  Biso   1.000  H
  H136     1.0000 0.38887  0.28303  0.12321  Biso   1.000  H
  H137     1.0000 0.49330  0.23240  0.09992  Biso   1.000  H
  O24      1.0000 0.55259  0.33461  0.97980  Biso   1.000  O
  H138     1.0000 0.57389  0.48133  0.02674  Biso   1.000  H
  H139     1.0000 0.61807  0.37238  0.06582  Biso   1.000  H
  H140     1.0000 0.31595  0.66547  0.45902  Biso   1.000  H
  H141     1.0000 0.86092  0.30699  0.75052  Biso   1.000  H
  H142     1.0000 0.89553  0.43470  0.76911  Biso   1.000  H
  H143     1.0000 0.79341  0.38150  0.79272  Biso   1.000  H
  H144     1.0000 0.60706  0.29591  0.97962  Biso   1.000  H
