data_image0
_cell_length_a       15.322
_cell_length_b       26.076
_cell_length_c       15.171
_cell_angle_alpha    105.86
_cell_angle_beta     116.79
_cell_angle_gamma    75.73

_symmetry_space_group_name_H-M    "P 1"
_symmetry_int_tables_number       1

loop_
  _symmetry_equiv_pos_as_xyz
  'x, y, z'

loop_
  _atom_site_label
  _atom_site_occupancy
  _atom_site_fract_x
  _atom_site_fract_y
  _atom_site_fract_z
  _atom_site_thermal_displace_type
  _atom_site_B_iso_or_equiv
  _atom_site_type_symbol
  O1       1.0000 0.58771  0.52880  0.60718  Biso   1.000  O
  S1       1.0000 0.58609  0.54467  0.70445  Biso   1.000  S
  N1       1.0000 0.54461  0.49672  0.71911  Biso   1.000  N
  O2       1.0000 0.67483  0.55412  0.79181  Biso   1.000  O
  C1       1.0000 0.49624  0.60269  0.70303  Biso   1.000  C
  C2       1.0000 0.44822  0.48341  0.63860  Biso   1.000  C
  C3       1.0000 0.55389  0.50040  0.82233  Biso   1.000  C
  C4       1.0000 0.41115  0.60772  0.61477  Biso   1.000  C
  C5       1.0000 0.50740  0.63939  0.79060  Biso   1.000  C
  C6       1.0000 0.43291  0.42662  0.62988  Biso   1.000  C
  C7       1.0000 0.64916  0.47061  0.88818  Biso   1.000  C
  C8       1.0000 0.33751  0.65039  0.61770  Biso   1.000  C
  C9       1.0000 0.43253  0.68150  0.79113  Biso   1.000  C
  C10      1.0000 0.46438  0.38401  0.57012  Biso   1.000  C
  N2       1.0000 0.38279  0.42219  0.67912  Biso   1.000  N
  C11      1.0000 0.71369  0.43569  0.85210  Biso   1.000  C
  N3       1.0000 0.66262  0.48099  0.98440  Biso   1.000  N
  C12      1.0000 0.34610  0.68729  0.70498  Biso   1.000  C
  C13      1.0000 0.44000  0.33401  0.55726  Biso   1.000  C
  C14      1.0000 0.35950  0.37301  0.66581  Biso   1.000  C
  C15      1.0000 0.79745  0.41041  0.91878  Biso   1.000  C
  C16      1.0000 0.74319  0.45507  0.04785  Biso   1.000  C
  C17      1.0000 0.26230  0.73062  0.70769  Biso   1.000  C
  O3       1.0000 0.46093  0.28960  0.49412  Biso   1.000  O
  C18      1.0000 0.38747  0.32911  0.60620  Biso   1.000  C
  C19      1.0000 0.29927  0.36991  0.71851  Biso   1.000  C
  O4       1.0000 0.87123  0.37670  0.89592  Biso   1.000  O
  C20      1.0000 0.81211  0.42029  0.01868  Biso   1.000  C
  C21      1.0000 0.75570  0.46960  0.15580  Biso   1.000  C
  C22      1.0000 0.55869  0.27988  0.49667  Biso   1.000  C
  N4       1.0000 0.35977  0.35110  0.81488  Biso   1.000  N
  C23      1.0000 0.84862  0.35509  0.79233  Biso   1.000  C
  N5       1.0000 0.79392  0.42378  0.20699  Biso   1.000  N
  C24      1.0000 0.63539  0.28061  0.60282  Biso   1.000  C
  S2       1.0000 0.29937  0.32452  0.85360  Biso   1.000  S
  C25      1.0000 0.42700  0.38882  0.89292  Biso   1.000  C
  C26      1.0000 0.77180  0.31851  0.74610  Biso   1.000  C
  C27      1.0000 0.71718  0.39651  0.20143  Biso   1.000  C
  S3       1.0000 0.89600  0.42583  0.30780  Biso   1.000  S
  C28      1.0000 0.70687  0.31401  0.64537  Biso   1.000  C
  C29      1.0000 0.62976  0.25151  0.66288  Biso   1.000  C
  O5       1.0000 0.26199  0.27940  0.77700  Biso   1.000  O
  O6       1.0000 0.36501  0.31642  0.95328  Biso   1.000  O
  C30      1.0000 0.19780  0.37209  0.85600  Biso   1.000  C
  C31      1.0000 0.52897  0.36060  0.94877  Biso   1.000  C
  C32      1.0000 0.76489  0.28879  0.80549  Biso   1.000  C
  C33      1.0000 0.66657  0.36609  0.09716  Biso   1.000  C
  O7       1.0000 0.96242  0.44420  0.28420  Biso   1.000  O
  O8       1.0000 0.92077  0.37430  0.33607  Biso   1.000  O
  C34      1.0000 0.87017  0.47457  0.40147  Biso   1.000  C
  C35      1.0000 0.69127  0.25551  0.76339  Biso   1.000  C
  C36      1.0000 0.11091  0.37358  0.76963  Biso   1.000  C
  C37      1.0000 0.20629  0.41150  0.94103  Biso   1.000  C
  C38      1.0000 0.57190  0.31438  0.90427  Biso   1.000  C
  N6       1.0000 0.57519  0.38668  0.04409  Biso   1.000  N
  C39      1.0000 0.71477  0.31920  0.05973  Biso   1.000  C
  C40      1.0000 0.88545  0.52690  0.41733  Biso   1.000  C
  C41      1.0000 0.83107  0.46199  0.45777  Biso   1.000  C
  C42      1.0000 0.68248  0.22358  0.82759  Biso   1.000  C
  C43      1.0000 0.03490  0.41359  0.76880  Biso   1.000  C
  C44      1.0000 0.12890  0.45090  0.93817  Biso   1.000  C
  C45      1.0000 0.66671  0.29301  0.96253  Biso   1.000  C
  C46      1.0000 0.86059  0.56537  0.48874  Biso   1.000  C
  C47      1.0000 0.80723  0.50059  0.52693  Biso   1.000  C
  O9       1.0000 0.71784  0.24701  0.93163  Biso   1.000  O
  C48      1.0000 0.04261  0.45389  0.85292  Biso   1.000  C
  C49      1.0000 0.82101  0.55240  0.54317  Biso   1.000  C
  C50      1.0000 0.95843  0.49858  0.84759  Biso   1.000  C
  C51      1.0000 0.79489  0.59599  0.62097  Biso   1.000  C
  O10      1.0000 0.41229  0.47121  0.39278  Biso   1.000  O
  S4       1.0000 0.41394  0.45535  0.29558  Biso   1.000  S
  C52      1.0000 0.50381  0.39729  0.29701  Biso   1.000  C
  N7       1.0000 0.45542  0.50331  0.28092  Biso   1.000  N
  O11      1.0000 0.32521  0.44591  0.20823  Biso   1.000  O
  C53      1.0000 0.49265  0.36059  0.20943  Biso   1.000  C
  C54      1.0000 0.58879  0.39230  0.38519  Biso   1.000  C
  C55      1.0000 0.55181  0.51662  0.36144  Biso   1.000  C
  C56      1.0000 0.44610  0.49958  0.17771  Biso   1.000  C
  C57      1.0000 0.56750  0.31852  0.20891  Biso   1.000  C
  C58      1.0000 0.66253  0.34959  0.38233  Biso   1.000  C
  C59      1.0000 0.56710  0.57340  0.37008  Biso   1.000  C
  C60      1.0000 0.35078  0.52940  0.11178  Biso   1.000  C
  C61      1.0000 0.65392  0.31268  0.29498  Biso   1.000  C
  N8       1.0000 0.61719  0.57780  0.32092  Biso   1.000  N
  C62      1.0000 0.53559  0.61601  0.42992  Biso   1.000  C
  C63      1.0000 0.28626  0.56429  0.14787  Biso   1.000  C
  N9       1.0000 0.33743  0.51899  0.01564  Biso   1.000  N
  C64      1.0000 0.73770  0.26940  0.29228  Biso   1.000  C
  C65      1.0000 0.64053  0.62701  0.33422  Biso   1.000  C
  C66      1.0000 0.56000  0.66601  0.44270  Biso   1.000  C
  C67      1.0000 0.20248  0.58960  0.08119  Biso   1.000  C
  C68      1.0000 0.25683  0.54490  0.95211  Biso   1.000  C
  C69      1.0000 0.61250  0.67091  0.39384  Biso   1.000  C
  C70      1.0000 0.70069  0.63011  0.28153  Biso   1.000  C
  O12      1.0000 0.53912  0.71039  0.50592  Biso   1.000  O
  O13      1.0000 0.12882  0.62329  0.10412  Biso   1.000  O
  C71      1.0000 0.18793  0.57969  0.98136  Biso   1.000  C
  C72      1.0000 0.24433  0.53042  0.84424  Biso   1.000  C
  N10      1.0000 0.64017  0.64891  0.18508  Biso   1.000  N
  C73      1.0000 0.44133  0.72009  0.50329  Biso   1.000  C
  C74      1.0000 0.15143  0.64489  0.20771  Biso   1.000  C
  N11      1.0000 0.20613  0.57621  0.79305  Biso   1.000  N
  S5       1.0000 0.70057  0.67549  0.14636  Biso   1.000  S
  C75      1.0000 0.57303  0.61120  0.10712  Biso   1.000  C
  C76      1.0000 0.36458  0.71941  0.39722  Biso   1.000  C
  C77      1.0000 0.22823  0.68151  0.25394  Biso   1.000  C
  S6       1.0000 0.10403  0.57419  0.69224  Biso   1.000  S
  C78      1.0000 0.28282  0.60351  0.79853  Biso   1.000  C
  O14      1.0000 0.73796  0.72058  0.22297  Biso   1.000  O
  O15      1.0000 0.63499  0.68360  0.04668  Biso   1.000  O
  C79      1.0000 0.80219  0.62789  0.14403  Biso   1.000  C
  C80      1.0000 0.47097  0.63942  0.05119  Biso   1.000  C
  C81      1.0000 0.29307  0.68600  0.35460  Biso   1.000  C
  C82      1.0000 0.37018  0.74851  0.33708  Biso   1.000  C
  C83      1.0000 0.23506  0.71119  0.19447  Biso   1.000  C
  O16      1.0000 0.03762  0.55583  0.71584  Biso   1.000  O
  O17      1.0000 0.07926  0.62572  0.66397  Biso   1.000  O
  C84      1.0000 0.12981  0.52541  0.59857  Biso   1.000  C
  C85      1.0000 0.33344  0.63389  0.90280  Biso   1.000  C
  C86      1.0000 0.88913  0.62640  0.23041  Biso   1.000  C
  C87      1.0000 0.79370  0.58848  0.05901  Biso   1.000  C
  C88      1.0000 0.42812  0.68560  0.09570  Biso   1.000  C
  N12      1.0000 0.42480  0.61331  0.95595  Biso   1.000  N
  C89      1.0000 0.30866  0.74450  0.23657  Biso   1.000  C
  C90      1.0000 0.11448  0.47312  0.58263  Biso   1.000  C
  C91      1.0000 0.16891  0.53799  0.54227  Biso   1.000  C
  C92      1.0000 0.28523  0.68082  0.94024  Biso   1.000  C
  C93      1.0000 0.96509  0.58640  0.23123  Biso   1.000  C
  C94      1.0000 0.87111  0.54911  0.06179  Biso   1.000  C
  C95      1.0000 0.33332  0.70701  0.03751  Biso   1.000  C
  C96      1.0000 0.31748  0.77640  0.17237  Biso   1.000  C
  C97      1.0000 0.13943  0.43460  0.51122  Biso   1.000  C
  C98      1.0000 0.19270  0.49942  0.47303  Biso   1.000  C
  C99      1.0000 0.95738  0.54609  0.14712  Biso   1.000  C
  O18      1.0000 0.28219  0.75301  0.06841  Biso   1.000  O
  C100     1.0000 0.17903  0.44762  0.45687  Biso   1.000  C
  C101     1.0000 0.04159  0.50139  0.15238  Biso   1.000  C
  C102     1.0000 0.20516  0.40399  0.37906  Biso   1.000  C
  C103     1.0000 0.65498  0.81561  0.57252  Biso   1.000  C
  O19      1.0000 0.66870  0.79698  0.48442  Biso   1.000  O
  C104     1.0000 0.74682  0.83930  0.66063  Biso   1.000  C
  C105     1.0000 0.70116  0.83080  0.45398  Biso   1.000  C
  C106     1.0000 0.83473  0.80541  0.67544  Biso   1.000  C
  C107     1.0000 0.73869  0.88940  0.70957  Biso   1.000  C
  C108     1.0000 0.65782  0.88390  0.44916  Biso   1.000  C
  C109     1.0000 0.77607  0.81030  0.42398  Biso   1.000  C
  C110     1.0000 0.92473  0.82769  0.75151  Biso   1.000  C
  C111     1.0000 0.82392  0.91050  0.78361  Biso   1.000  C
  C112     1.0000 0.69272  0.91340  0.41120  Biso   1.000  C
  C113     1.0000 0.80630  0.84211  0.38767  Biso   1.000  C
  C114     1.0000 0.91573  0.87881  0.80263  Biso   1.000  C
  C115     1.0000 0.02229  0.79400  0.77098  Biso   1.000  C
  C116     1.0000 0.81559  0.96608  0.83826  Biso   1.000  C
  N13      1.0000 0.76580  0.89422  0.38173  Biso   1.000  N
  C117     1.0000 0.64436  0.97039  0.39707  Biso   1.000  C
  C118     1.0000 0.88598  0.82161  0.35069  Biso   1.000  C
  O20      1.0000 0.10551  0.82520  0.81451  Biso   1.000  O
  O21      1.0000 0.89690  0.99169  0.86232  Biso   1.000  O
  N14      1.0000 0.69062  0.01070  0.48713  Biso   1.000  N
  N15      1.0000 0.98619  0.82108  0.43360  Biso   1.000  N
  C119     1.0000 0.11098  0.85349  0.75422  Biso   1.000  C
  C120     1.0000 0.91085  0.00038  0.78459  Biso   1.000  C
  S7       1.0000 0.61986  0.06820  0.49743  Biso   1.000  S
  C121     1.0000 0.79371  0.01489  0.51148  Biso   1.000  C
  S8       1.0000 0.07231  0.77846  0.40444  Biso   1.000  S
  C122     1.0000 0.01340  0.87550  0.48810  Biso   1.000  C
  C123     1.0000 0.05759  0.84771  0.65138  Biso   1.000  C
  C124     1.0000 0.17611  0.89110  0.80053  Biso   1.000  C
  C125     1.0000 0.84036  0.99998  0.68769  Biso   1.000  C
  C126     1.0000 0.00264  0.01367  0.81090  Biso   1.000  C
  O22      1.0000 0.67637  0.10169  0.58621  Biso   1.000  O
  O23      1.0000 0.52936  0.05560  0.48622  Biso   1.000  O
  C127     1.0000 0.59325  0.09689  0.39384  Biso   1.000  C
  C128     1.0000 0.86487  0.01367  0.62109  Biso   1.000  C
  O24      1.0000 0.04269  0.72628  0.37617  Biso   1.000  O
  O25      1.0000 0.16451  0.78851  0.48592  Biso   1.000  O
  C129     1.0000 0.06609  0.79571  0.29761  Biso   1.000  C
  C130     1.0000 0.07200  0.87821  0.59974  Biso   1.000  C
  C131     1.0000 0.18478  0.92090  0.74339  Biso   1.000  C
  C132     1.0000 0.02012  0.02559  0.73858  Biso   1.000  C
  C133     1.0000 0.64812  0.13459  0.40481  Biso   1.000  C
  C134     1.0000 0.51918  0.08128  0.30152  Biso   1.000  C
  N16      1.0000 0.95240  0.02700  0.64386  Biso   1.000  N
  C135     1.0000 0.12208  0.83350  0.30987  Biso   1.000  C
  C136     1.0000 0.00031  0.77529  0.20312  Biso   1.000  C
  N17      1.0000 0.13409  0.91468  0.64326  Biso   1.000  N
  C137     1.0000 0.25150  0.96379  0.79181  Biso   1.000  C
  C138     1.0000 0.11812  0.04159  0.76189  Biso   1.000  C
  C139     1.0000 0.62864  0.15608  0.32287  Biso   1.000  C
  C140     1.0000 0.50086  0.10299  0.22018  Biso   1.000  C
  C141     1.0000 0.11271  0.85028  0.22597  Biso   1.000  C
  C142     1.0000 0.99160  0.79319  0.12058  Biso   1.000  C
  N18      1.0000 0.20304  0.01328  0.83503  Biso   1.000  N
  C143     1.0000 0.55465  0.14127  0.22943  Biso   1.000  C
  C144     1.0000 0.04822  0.83020  0.13133  Biso   1.000  C
  S9       1.0000 0.26931  0.04802  0.94058  Biso   1.000  S
  C145     1.0000 0.53501  0.16517  0.14238  Biso   1.000  C
  C146     1.0000 0.03753  0.84902  0.04052  Biso   1.000  C
  O26      1.0000 0.20203  0.08598  0.97568  Biso   1.000  O
  C147     1.0000 0.33505  0.08328  0.91336  Biso   1.000  C
  O27      1.0000 0.33848  0.01101  0.00184  Biso   1.000  O
  C148     1.0000 0.29868  0.13649  0.90103  Biso   1.000  C
  C149     1.0000 0.42093  0.05778  0.90224  Biso   1.000  C
  C150     1.0000 0.34962  0.16299  0.87893  Biso   1.000  C
  C151     1.0000 0.46944  0.08669  0.87841  Biso   1.000  C
  C152     1.0000 0.43316  0.13997  0.86563  Biso   1.000  C
  C153     1.0000 0.48766  0.17097  0.84052  Biso   1.000  C
  C154     1.0000 0.34499  0.18441  0.42751  Biso   1.000  C
  C155     1.0000 0.25323  0.16068  0.33941  Biso   1.000  C
  O28      1.0000 0.33129  0.20300  0.51562  Biso   1.000  O
  C156     1.0000 0.16530  0.19461  0.32460  Biso   1.000  C
  C157     1.0000 0.26131  0.11061  0.29040  Biso   1.000  C
  C158     1.0000 0.29877  0.16921  0.54599  Biso   1.000  C
  C159     1.0000 0.07532  0.17229  0.24852  Biso   1.000  C
  C160     1.0000 0.17613  0.08949  0.21643  Biso   1.000  C
  C161     1.0000 0.34219  0.11612  0.55080  Biso   1.000  C
  C162     1.0000 0.22387  0.18971  0.57598  Biso   1.000  C
  C163     1.0000 0.08431  0.12121  0.19741  Biso   1.000  C
  C164     1.0000 0.97772  0.20602  0.22898  Biso   1.000  C
  C165     1.0000 0.18443  0.03389  0.16170  Biso   1.000  C
  C166     1.0000 0.30731  0.08662  0.58884  Biso   1.000  C
  C167     1.0000 0.19370  0.15791  0.61229  Biso   1.000  C
  O29      1.0000 0.89454  0.17478  0.18553  Biso   1.000  O
  O30      1.0000 0.10308  0.00830  0.13772  Biso   1.000  O
  N19      1.0000 0.23423  0.10580  0.61831  Biso   1.000  N
  C168     1.0000 0.35559  0.02959  0.60289  Biso   1.000  C
  C169     1.0000 0.11402  0.17840  0.64928  Biso   1.000  C
  C170     1.0000 0.88900  0.14649  0.24582  Biso   1.000  C
  C171     1.0000 0.08917  0.99960  0.21537  Biso   1.000  C
  N20      1.0000 0.30935  0.98933  0.51291  Biso   1.000  N
  N21      1.0000 0.01379  0.17890  0.56644  Biso   1.000  N
  C172     1.0000 0.94241  0.15231  0.34858  Biso   1.000  C
  C173     1.0000 0.82392  0.10892  0.19951  Biso   1.000  C
  C174     1.0000 0.15966  0.99999  0.31227  Biso   1.000  C
  C175     1.0000 0.99741  0.98632  0.18914  Biso   1.000  C
  C176     1.0000 0.20622  0.98513  0.48848  Biso   1.000  C
  S10      1.0000 0.38017  0.93182  0.50261  Biso   1.000  S
  C177     1.0000 0.98663  0.12452  0.51193  Biso   1.000  C
  S11      1.0000 0.92766  0.22156  0.59560  Biso   1.000  S
  C178     1.0000 0.92796  0.12181  0.40030  Biso   1.000  C
  C179     1.0000 0.81518  0.07908  0.25657  Biso   1.000  C
  C180     1.0000 0.13515  0.98631  0.37888  Biso   1.000  C
  C181     1.0000 0.97988  0.97442  0.26138  Biso   1.000  C
  O31      1.0000 0.32367  0.89833  0.41383  Biso   1.000  O
  O32      1.0000 0.47067  0.94442  0.51381  Biso   1.000  O
  C182     1.0000 0.40678  0.90314  0.60620  Biso   1.000  C
  O33      1.0000 0.95727  0.27370  0.62379  Biso   1.000  O
  O34      1.0000 0.83553  0.21151  0.51411  Biso   1.000  O
  C183     1.0000 0.93388  0.20432  0.70242  Biso   1.000  C
  N22      1.0000 0.86593  0.08530  0.35670  Biso   1.000  N
  C184     1.0000 0.74855  0.03619  0.20823  Biso   1.000  C
  N23      1.0000 0.04754  0.97302  0.35610  Biso   1.000  N
  C185     1.0000 0.88181  0.95843  0.23808  Biso   1.000  C
  C186     1.0000 0.35185  0.86543  0.59523  Biso   1.000  C
  C187     1.0000 0.48087  0.91870  0.69852  Biso   1.000  C
  C188     1.0000 0.87792  0.16652  0.69010  Biso   1.000  C
  C189     1.0000 0.99974  0.22469  0.79692  Biso   1.000  C
  N24      1.0000 0.79694  0.98670  0.16501  Biso   1.000  N
  C190     1.0000 0.37138  0.84390  0.67709  Biso   1.000  C
  C191     1.0000 0.49914  0.89703  0.77978  Biso   1.000  C
  C192     1.0000 0.88730  0.14970  0.77399  Biso   1.000  C
  C193     1.0000 0.00842  0.20678  0.87938  Biso   1.000  C
  S12      1.0000 0.73066  0.95200  0.05946  Biso   1.000  S
  C194     1.0000 0.44534  0.85871  0.77061  Biso   1.000  C
  C195     1.0000 0.95181  0.16982  0.86871  Biso   1.000  C
  O35      1.0000 0.66147  0.98897  0.99812  Biso   1.000  O
  O36      1.0000 0.79799  0.91400  0.02428  Biso   1.000  O
  C196     1.0000 0.66496  0.91670  0.08660  Biso   1.000  C
  C197     1.0000 0.46494  0.83481  0.85758  Biso   1.000  C
  C198     1.0000 0.96251  0.15101  0.95952  Biso   1.000  C
  C199     1.0000 0.70135  0.86354  0.09900  Biso   1.000  C
  C200     1.0000 0.57905  0.94220  0.09780  Biso   1.000  C
  C201     1.0000 0.65035  0.83703  0.12111  Biso   1.000  C
  C202     1.0000 0.53059  0.91333  0.12163  Biso   1.000  C
  C203     1.0000 0.56689  0.86001  0.13441  Biso   1.000  C
  C204     1.0000 0.51239  0.82902  0.15952  Biso   1.000  C
  Ne1      1.0000 0.04749  0.04990  0.41393  Biso   1.000  Ne
  He1      1.0000 0.04925  0.04401  0.45601  Biso   1.000  He
  He2      1.0000 0.13329  0.10143  0.41885  Biso   1.000  He
  Ar1      1.0000 0.04544  0.05453  0.42984  Biso   1.000  Ar
  Ne2      1.0000 0.56627  0.42448  0.90540  Biso   1.000  Ne
  He3      1.0000 0.51857  0.45220  0.90772  Biso   1.000  He
  He4      1.0000 0.72712  0.34744  0.92287  Biso   1.000  He
  Ar2      1.0000 0.54090  0.42972  0.89571  Biso   1.000  Ar
  Ne3      1.0000 0.43373  0.57552  0.09461  Biso   1.000  Ne
  He5      1.0000 0.47802  0.54928  0.08951  Biso   1.000  He
  He6      1.0000 0.27420  0.65228  0.07806  Biso   1.000  He
  Ar3      1.0000 0.45922  0.57024  0.10440  Biso   1.000  Ar
  Ne4      1.0000 0.95251  0.95010  0.58608  Biso   1.000  Ne
  He7      1.0000 0.01652  0.92605  0.79160  Biso   1.000  He
  He8      1.0000 0.93693  0.96069  0.51864  Biso   1.000  He
  Ar4      1.0000 0.95456  0.94547  0.57014  Biso   1.000  Ar
