data_image0
_cell_length_a       14.535
_cell_length_b       14.535
_cell_length_c       35.836
_cell_angle_alpha    90
_cell_angle_beta     90
_cell_angle_gamma    90

_symmetry_space_group_name_H-M    "P 1"
_symmetry_int_tables_number       1

loop_
  _symmetry_equiv_pos_as_xyz
  'x, y, z'

loop_
  _atom_site_label
  _atom_site_occupancy
  _atom_site_fract_x
  _atom_site_fract_y
  _atom_site_fract_z
  _atom_site_thermal_displace_type
  _atom_site_B_iso_or_equiv
  _atom_site_type_symbol
  C1       1.0000 0.22587  0.37943  0.32339  Biso   1.000  C
  C2       1.0000 0.17812  0.31448  0.32331  Biso   1.000  C
  C3       1.0000 0.12989  0.40227  0.32306  Biso   1.000  C
  C4       1.0000 0.23860  0.31902  0.35877  Biso   1.000  C
  H1       1.0000 0.24272  0.34551  0.30109  Biso   1.000  H
  H2       1.0000 0.26343  0.43447  0.32490  Biso   1.000  H
  H3       1.0000 0.13512  0.26357  0.32459  Biso   1.000  H
  H4       1.0000 0.21569  0.30760  0.30109  Biso   1.000  H
  C5       1.0000 0.10361  0.42319  0.36357  Biso   1.000  C
  H5       1.0000 0.11889  0.45552  0.30740  Biso   1.000  H
  H6       1.0000 0.09391  0.35108  0.31360  Biso   1.000  H
  C6       1.0000 0.17661  0.36883  0.38668  Biso   1.000  C
  H7       1.0000 0.30217  0.31827  0.36701  Biso   1.000  H
  H8       1.0000 0.21809  0.25628  0.35450  Biso   1.000  H
  N1       1.0000 0.11586  0.51751  0.37560  Biso   1.000  N
  N2       1.0000 0.01692  0.38273  0.37593  Biso   1.000  N
  N3       1.0000 0.22023  0.43997  0.40878  Biso   1.000  N
  N4       1.0000 0.12040  0.30595  0.40870  Biso   1.000  N
  C7       1.0000 0.18700  0.52549  0.40119  Biso   1.000  C
  C8       1.0000 0.07203  0.59560  0.35953  Biso   1.000  C
  C9       1.0000 0.02890  0.31441  0.40099  Biso   1.000  C
  C10      1.0000 0.92797  0.40440  0.35953  Biso   1.000  C
  C11      1.0000 0.30093  0.42669  0.43177  Biso   1.000  C
  C12      1.0000 0.15769  0.23158  0.43219  Biso   1.000  C
  O1       1.0000 0.21431  0.59849  0.41419  Biso   1.000  O
  H9       1.0000 0.11221  0.64837  0.36229  Biso   1.000  H
  H10      1.0000 0.06378  0.58473  0.33299  Biso   1.000  H
  N5       1.0000 0.98308  0.61727  0.37593  Biso   1.000  N
  O2       1.0000 0.96794  0.26550  0.41347  Biso   1.000  O
  H11      1.0000 0.88779  0.35163  0.36229  Biso   1.000  H
  H12      1.0000 0.93622  0.41527  0.33299  Biso   1.000  H
  N6       1.0000 0.88414  0.48249  0.37560  Biso   1.000  N
  H13      1.0000 0.33430  0.48428  0.43320  Biso   1.000  H
  H14      1.0000 0.34069  0.38197  0.41980  Biso   1.000  H
  N7       1.0000 0.28063  0.39580  0.46891  Biso   1.000  N
  H15      1.0000 0.21232  0.20681  0.42030  Biso   1.000  H
  H16      1.0000 0.11269  0.18252  0.43370  Biso   1.000  H
  N8       1.0000 0.18080  0.26054  0.46894  Biso   1.000  N
  C13      1.0000 0.89639  0.57681  0.36357  Biso   1.000  C
  C14      1.0000 0.97110  0.68559  0.40099  Biso   1.000  C
  C15      1.0000 0.81300  0.47451  0.40119  Biso   1.000  C
  C16      1.0000 0.29481  0.44892  0.50000  Biso   1.000  C
  C17      1.0000 0.26949  0.29893  0.47879  Biso   1.000  C
  C18      1.0000 0.13443  0.23447  0.50000  Biso   1.000  C
  C19      1.0000 0.82339  0.63117  0.38668  Biso   1.000  C
  C20      1.0000 0.87011  0.59773  0.32306  Biso   1.000  C
  O3       1.0000 0.03206  0.73450  0.41347  Biso   1.000  O
  N9       1.0000 0.87960  0.69405  0.40870  Biso   1.000  N
  N10      1.0000 0.77977  0.56003  0.40878  Biso   1.000  N
  O4       1.0000 0.78569  0.40151  0.41419  Biso   1.000  O
  N11      1.0000 0.28063  0.39580  0.53109  Biso   1.000  N
  O5       1.0000 0.31737  0.53037  0.50000  Biso   1.000  O
  C21      1.0000 0.26949  0.29893  0.52121  Biso   1.000  C
  H17      1.0000 0.31992  0.26137  0.46891  Biso   1.000  H
  N12      1.0000 0.18080  0.26054  0.53106  Biso   1.000  N
  O6       1.0000 0.05972  0.19333  0.50000  Biso   1.000  O
  C22      1.0000 0.76140  0.68098  0.35877  Biso   1.000  C
  H18      1.0000 0.88111  0.54448  0.30740  Biso   1.000  H
  H19      1.0000 0.90609  0.64892  0.31360  Biso   1.000  H
  C23      1.0000 0.82188  0.68552  0.32331  Biso   1.000  C
  C24      1.0000 0.77413  0.62057  0.32339  Biso   1.000  C
  C25      1.0000 0.84231  0.76842  0.43219  Biso   1.000  C
  C26      1.0000 0.69907  0.57331  0.43177  Biso   1.000  C
  C27      1.0000 0.30093  0.42669  0.56823  Biso   1.000  C
  H20      1.0000 0.31992  0.26137  0.53109  Biso   1.000  H
  C28      1.0000 0.15769  0.23158  0.56781  Biso   1.000  C
  H21      1.0000 0.69783  0.68173  0.36701  Biso   1.000  H
  H22      1.0000 0.78191  0.74372  0.35450  Biso   1.000  H
  H23      1.0000 0.86488  0.73643  0.32459  Biso   1.000  H
  H24      1.0000 0.78431  0.69240  0.30109  Biso   1.000  H
  H25      1.0000 0.75728  0.65449  0.30109  Biso   1.000  H
  H26      1.0000 0.73657  0.56553  0.32490  Biso   1.000  H
  H27      1.0000 0.78768  0.79319  0.42030  Biso   1.000  H
  H28      1.0000 0.88731  0.81748  0.43370  Biso   1.000  H
  N13      1.0000 0.81920  0.73946  0.46894  Biso   1.000  N
  H29      1.0000 0.66570  0.51572  0.43320  Biso   1.000  H
  H30      1.0000 0.65931  0.61803  0.41980  Biso   1.000  H
  N14      1.0000 0.71937  0.60420  0.46891  Biso   1.000  N
  H31      1.0000 0.33430  0.48428  0.56680  Biso   1.000  H
  H32      1.0000 0.34069  0.38197  0.58020  Biso   1.000  H
  N15      1.0000 0.22023  0.43997  0.59122  Biso   1.000  N
  H33      1.0000 0.21232  0.20681  0.57970  Biso   1.000  H
  H34      1.0000 0.11269  0.18252  0.56630  Biso   1.000  H
  N16      1.0000 0.12040  0.30595  0.59130  Biso   1.000  N
  C29      1.0000 0.73051  0.70107  0.47879  Biso   1.000  C
  C30      1.0000 0.86557  0.76553  0.50000  Biso   1.000  C
  C31      1.0000 0.70519  0.55108  0.50000  Biso   1.000  C
  C32      1.0000 0.18700  0.52549  0.59881  Biso   1.000  C
  C33      1.0000 0.17661  0.36883  0.61332  Biso   1.000  C
  C34      1.0000 0.02890  0.31441  0.59901  Biso   1.000  C
  C35      1.0000 0.73051  0.70107  0.52121  Biso   1.000  C
  H35      1.0000 0.68008  0.73863  0.46891  Biso   1.000  H
  N17      1.0000 0.81920  0.73946  0.53106  Biso   1.000  N
  O7       1.0000 0.94028  0.80667  0.50000  Biso   1.000  O
  N18      1.0000 0.71937  0.60420  0.53109  Biso   1.000  N
  O8       1.0000 0.68263  0.46963  0.50000  Biso   1.000  O
  N19      1.0000 0.11586  0.51751  0.62440  Biso   1.000  N
  O9       1.0000 0.21431  0.59849  0.58581  Biso   1.000  O
  C36      1.0000 0.10361  0.42319  0.63643  Biso   1.000  C
  C37      1.0000 0.23860  0.31902  0.64123  Biso   1.000  C
  N20      1.0000 0.01692  0.38273  0.62407  Biso   1.000  N
  O10      1.0000 0.96794  0.26550  0.58653  Biso   1.000  O
  H36      1.0000 0.68008  0.73863  0.53109  Biso   1.000  H
  C38      1.0000 0.84231  0.76842  0.56781  Biso   1.000  C
  C39      1.0000 0.69907  0.57331  0.56823  Biso   1.000  C
  C40      1.0000 0.07203  0.59560  0.64047  Biso   1.000  C
  C41      1.0000 0.12989  0.40227  0.67694  Biso   1.000  C
  H37      1.0000 0.30217  0.31827  0.63299  Biso   1.000  H
  H38      1.0000 0.21809  0.25628  0.64550  Biso   1.000  H
  C42      1.0000 0.17812  0.31448  0.67669  Biso   1.000  C
  C43      1.0000 0.22587  0.37943  0.67661  Biso   1.000  C
  C44      1.0000 0.92797  0.40440  0.64047  Biso   1.000  C
  H39      1.0000 0.78768  0.79319  0.57970  Biso   1.000  H
  H40      1.0000 0.88731  0.81748  0.56630  Biso   1.000  H
  N21      1.0000 0.87960  0.69405  0.59130  Biso   1.000  N
  H41      1.0000 0.66570  0.51572  0.56680  Biso   1.000  H
  H42      1.0000 0.65931  0.61803  0.58020  Biso   1.000  H
  N22      1.0000 0.77977  0.56003  0.59122  Biso   1.000  N
  H43      1.0000 0.11221  0.64837  0.63771  Biso   1.000  H
  H44      1.0000 0.06378  0.58473  0.66701  Biso   1.000  H
  N23      1.0000 0.98308  0.61727  0.62407  Biso   1.000  N
  H45      1.0000 0.11889  0.45552  0.69260  Biso   1.000  H
  H46      1.0000 0.09391  0.35108  0.68640  Biso   1.000  H
  H47      1.0000 0.13512  0.26357  0.67541  Biso   1.000  H
  H48      1.0000 0.21569  0.30760  0.69891  Biso   1.000  H
  H49      1.0000 0.24272  0.34551  0.69891  Biso   1.000  H
  H50      1.0000 0.26343  0.43447  0.67510  Biso   1.000  H
  H51      1.0000 0.88779  0.35163  0.63771  Biso   1.000  H
  H52      1.0000 0.93622  0.41527  0.66701  Biso   1.000  H
  N24      1.0000 0.88414  0.48249  0.62440  Biso   1.000  N
  C45      1.0000 0.82339  0.63117  0.61332  Biso   1.000  C
  C46      1.0000 0.97110  0.68559  0.59901  Biso   1.000  C
  C47      1.0000 0.81300  0.47451  0.59881  Biso   1.000  C
  C48      1.0000 0.89639  0.57681  0.63643  Biso   1.000  C
  C49      1.0000 0.76140  0.68098  0.64123  Biso   1.000  C
  O11      1.0000 0.03206  0.73450  0.58653  Biso   1.000  O
  O12      1.0000 0.78569  0.40151  0.58581  Biso   1.000  O
  C50      1.0000 0.87011  0.59773  0.67694  Biso   1.000  C
  H53      1.0000 0.69783  0.68173  0.63299  Biso   1.000  H
  H54      1.0000 0.78191  0.74372  0.64550  Biso   1.000  H
  C51      1.0000 0.82188  0.68552  0.67669  Biso   1.000  C
  C52      1.0000 0.77413  0.62057  0.67661  Biso   1.000  C
  H55      1.0000 0.88111  0.54448  0.69260  Biso   1.000  H
  H56      1.0000 0.90609  0.64892  0.68640  Biso   1.000  H
  H57      1.0000 0.86488  0.73643  0.67541  Biso   1.000  H
  H58      1.0000 0.78431  0.69240  0.69891  Biso   1.000  H
  H59      1.0000 0.75728  0.65449  0.69891  Biso   1.000  H
  H60      1.0000 0.73657  0.56553  0.67510  Biso   1.000  H
  C53      1.0000 0.40440  0.07203  0.35953  Biso   1.000  C
  H61      1.0000 0.35163  0.11221  0.36229  Biso   1.000  H
  H62      1.0000 0.41527  0.06378  0.33299  Biso   1.000  H
  N25      1.0000 0.48249  0.11586  0.37560  Biso   1.000  N
  N26      1.0000 0.38273  0.98308  0.37593  Biso   1.000  N
  C54      1.0000 0.47451  0.18700  0.40119  Biso   1.000  C
  C55      1.0000 0.57681  0.10361  0.36357  Biso   1.000  C
  C56      1.0000 0.42319  0.89639  0.36357  Biso   1.000  C
  C57      1.0000 0.31441  0.97110  0.40099  Biso   1.000  C
  N27      1.0000 0.56003  0.22023  0.40878  Biso   1.000  N
  O13      1.0000 0.40151  0.21431  0.41419  Biso   1.000  O
  C58      1.0000 0.63117  0.17661  0.38668  Biso   1.000  C
  C59      1.0000 0.59773  0.12989  0.32306  Biso   1.000  C
  N28      1.0000 0.61727  0.01692  0.37593  Biso   1.000  N
  C60      1.0000 0.36883  0.82339  0.38668  Biso   1.000  C
  C61      1.0000 0.40227  0.87011  0.32306  Biso   1.000  C
  N29      1.0000 0.51751  0.88414  0.37560  Biso   1.000  N
  O14      1.0000 0.26550  0.03206  0.41347  Biso   1.000  O
  N30      1.0000 0.30595  0.87960  0.40870  Biso   1.000  N
  C62      1.0000 0.57331  0.30093  0.43177  Biso   1.000  C
  C63      1.0000 0.68098  0.23860  0.35877  Biso   1.000  C
  N31      1.0000 0.69405  0.12040  0.40870  Biso   1.000  N
  H63      1.0000 0.54448  0.11889  0.30740  Biso   1.000  H
  H64      1.0000 0.64892  0.09391  0.31360  Biso   1.000  H
  C64      1.0000 0.68552  0.17812  0.32331  Biso   1.000  C
  C65      1.0000 0.62057  0.22587  0.32339  Biso   1.000  C
  C66      1.0000 0.68559  0.02890  0.40099  Biso   1.000  C
  C67      1.0000 0.59560  0.92797  0.35953  Biso   1.000  C
  C68      1.0000 0.31902  0.76140  0.35877  Biso   1.000  C
  N32      1.0000 0.43997  0.77977  0.40878  Biso   1.000  N
  H65      1.0000 0.45552  0.88111  0.30740  Biso   1.000  H
  H66      1.0000 0.35108  0.90609  0.31360  Biso   1.000  H
  C69      1.0000 0.31448  0.82188  0.32331  Biso   1.000  C
  C70      1.0000 0.37943  0.77413  0.32339  Biso   1.000  C
  C71      1.0000 0.52549  0.81300  0.40119  Biso   1.000  C
  C72      1.0000 0.23158  0.84231  0.43219  Biso   1.000  C
  H67      1.0000 0.51572  0.33430  0.43320  Biso   1.000  H
  H68      1.0000 0.61803  0.34069  0.41980  Biso   1.000  H
  N33      1.0000 0.60420  0.28063  0.46891  Biso   1.000  N
  H69      1.0000 0.68173  0.30217  0.36701  Biso   1.000  H
  H70      1.0000 0.74372  0.21809  0.35450  Biso   1.000  H
  C73      1.0000 0.76842  0.15769  0.43219  Biso   1.000  C
  H71      1.0000 0.73643  0.13512  0.32459  Biso   1.000  H
  H72      1.0000 0.69240  0.21569  0.30109  Biso   1.000  H
  H73      1.0000 0.65449  0.24272  0.30109  Biso   1.000  H
  H74      1.0000 0.56553  0.26343  0.32490  Biso   1.000  H
  O15      1.0000 0.73450  0.96794  0.41347  Biso   1.000  O
  H75      1.0000 0.64837  0.88779  0.36229  Biso   1.000  H
  H76      1.0000 0.58473  0.93622  0.33299  Biso   1.000  H
  H77      1.0000 0.31827  0.69783  0.36701  Biso   1.000  H
  H78      1.0000 0.25628  0.78191  0.35450  Biso   1.000  H
  C74      1.0000 0.42669  0.69907  0.43177  Biso   1.000  C
  H79      1.0000 0.26357  0.86488  0.32459  Biso   1.000  H
  H80      1.0000 0.30760  0.78431  0.30109  Biso   1.000  H
  H81      1.0000 0.34551  0.75728  0.30109  Biso   1.000  H
  H82      1.0000 0.43447  0.73657  0.32490  Biso   1.000  H
  O16      1.0000 0.59849  0.78569  0.41419  Biso   1.000  O
  H83      1.0000 0.20681  0.78768  0.42030  Biso   1.000  H
  H84      1.0000 0.18252  0.88731  0.43370  Biso   1.000  H
  N34      1.0000 0.26054  0.81920  0.46894  Biso   1.000  N
  C75      1.0000 0.55108  0.29481  0.50000  Biso   1.000  C
  C76      1.0000 0.70107  0.26949  0.47879  Biso   1.000  C
  H85      1.0000 0.79319  0.21232  0.42030  Biso   1.000  H
  H86      1.0000 0.81748  0.11269  0.43370  Biso   1.000  H
  N35      1.0000 0.73946  0.18080  0.46894  Biso   1.000  N
  H87      1.0000 0.48428  0.66570  0.43320  Biso   1.000  H
  H88      1.0000 0.38197  0.65931  0.41980  Biso   1.000  H
  N36      1.0000 0.39580  0.71937  0.46891  Biso   1.000  N
  C77      1.0000 0.29893  0.73051  0.47879  Biso   1.000  C
  C78      1.0000 0.23447  0.86557  0.50000  Biso   1.000  C
  N37      1.0000 0.60420  0.28063  0.53109  Biso   1.000  N
  O17      1.0000 0.46963  0.31737  0.50000  Biso   1.000  O
  C79      1.0000 0.70107  0.26949  0.52121  Biso   1.000  C
  H89      1.0000 0.73863  0.31992  0.46891  Biso   1.000  H
  C80      1.0000 0.76553  0.13443  0.50000  Biso   1.000  C
  C81      1.0000 0.44892  0.70519  0.50000  Biso   1.000  C
  C82      1.0000 0.29893  0.73051  0.52121  Biso   1.000  C
  H90      1.0000 0.26137  0.68008  0.46891  Biso   1.000  H
  N38      1.0000 0.26054  0.81920  0.53106  Biso   1.000  N
  O18      1.0000 0.19333  0.94028  0.50000  Biso   1.000  O
  C83      1.0000 0.57331  0.30093  0.56823  Biso   1.000  C
  H91      1.0000 0.73863  0.31992  0.53109  Biso   1.000  H
  N39      1.0000 0.73946  0.18080  0.53106  Biso   1.000  N
  O19      1.0000 0.80667  0.05972  0.50000  Biso   1.000  O
  N40      1.0000 0.39580  0.71937  0.53109  Biso   1.000  N
  O20      1.0000 0.53037  0.68263  0.50000  Biso   1.000  O
  H92      1.0000 0.26137  0.68008  0.53109  Biso   1.000  H
  C84      1.0000 0.23158  0.84231  0.56781  Biso   1.000  C
  H93      1.0000 0.51572  0.33430  0.56680  Biso   1.000  H
  H94      1.0000 0.61803  0.34069  0.58020  Biso   1.000  H
  N41      1.0000 0.56003  0.22023  0.59122  Biso   1.000  N
  C85      1.0000 0.76842  0.15769  0.56781  Biso   1.000  C
  C86      1.0000 0.42669  0.69907  0.56823  Biso   1.000  C
  H95      1.0000 0.20681  0.78768  0.57970  Biso   1.000  H
  H96      1.0000 0.18252  0.88731  0.56630  Biso   1.000  H
  N42      1.0000 0.30595  0.87960  0.59130  Biso   1.000  N
  C87      1.0000 0.47451  0.18700  0.59881  Biso   1.000  C
  C88      1.0000 0.63117  0.17661  0.61332  Biso   1.000  C
  H97      1.0000 0.79319  0.21232  0.57970  Biso   1.000  H
  H98      1.0000 0.81748  0.11269  0.56630  Biso   1.000  H
  N43      1.0000 0.69405  0.12040  0.59130  Biso   1.000  N
  H99      1.0000 0.48428  0.66570  0.56680  Biso   1.000  H
  H100     1.0000 0.38197  0.65931  0.58020  Biso   1.000  H
  N44      1.0000 0.43997  0.77977  0.59122  Biso   1.000  N
  C89      1.0000 0.36883  0.82339  0.61332  Biso   1.000  C
  C90      1.0000 0.31441  0.97110  0.59901  Biso   1.000  C
  N45      1.0000 0.48249  0.11586  0.62440  Biso   1.000  N
  O21      1.0000 0.40151  0.21431  0.58581  Biso   1.000  O
  C91      1.0000 0.57681  0.10361  0.63643  Biso   1.000  C
  C92      1.0000 0.68098  0.23860  0.64123  Biso   1.000  C
  C93      1.0000 0.68559  0.02890  0.59901  Biso   1.000  C
  C94      1.0000 0.52549  0.81300  0.59881  Biso   1.000  C
  C95      1.0000 0.42319  0.89639  0.63643  Biso   1.000  C
  C96      1.0000 0.31902  0.76140  0.64123  Biso   1.000  C
  O22      1.0000 0.26550  0.03206  0.58653  Biso   1.000  O
  N46      1.0000 0.38273  0.98308  0.62407  Biso   1.000  N
  C97      1.0000 0.40440  0.07203  0.64047  Biso   1.000  C
  C98      1.0000 0.59773  0.12989  0.67694  Biso   1.000  C
  N47      1.0000 0.61727  0.01692  0.62407  Biso   1.000  N
  H101     1.0000 0.68173  0.30217  0.63299  Biso   1.000  H
  H102     1.0000 0.74372  0.21809  0.64550  Biso   1.000  H
  C99      1.0000 0.68552  0.17812  0.67669  Biso   1.000  C
  C100     1.0000 0.62057  0.22587  0.67661  Biso   1.000  C
  O23      1.0000 0.73450  0.96794  0.58653  Biso   1.000  O
  N48      1.0000 0.51751  0.88414  0.62440  Biso   1.000  N
  O24      1.0000 0.59849  0.78569  0.58581  Biso   1.000  O
  C101     1.0000 0.40227  0.87011  0.67694  Biso   1.000  C
  H103     1.0000 0.31827  0.69783  0.63299  Biso   1.000  H
  H104     1.0000 0.25628  0.78191  0.64550  Biso   1.000  H
  C102     1.0000 0.31448  0.82188  0.67669  Biso   1.000  C
  C103     1.0000 0.37943  0.77413  0.67661  Biso   1.000  C
  H105     1.0000 0.35163  0.11221  0.63771  Biso   1.000  H
  H106     1.0000 0.41527  0.06378  0.66701  Biso   1.000  H
  H107     1.0000 0.54448  0.11889  0.69260  Biso   1.000  H
  H108     1.0000 0.64892  0.09391  0.68640  Biso   1.000  H
  C104     1.0000 0.59560  0.92797  0.64047  Biso   1.000  C
  H109     1.0000 0.73643  0.13512  0.67541  Biso   1.000  H
  H110     1.0000 0.69240  0.21569  0.69891  Biso   1.000  H
  H111     1.0000 0.65449  0.24272  0.69891  Biso   1.000  H
  H112     1.0000 0.56553  0.26343  0.67510  Biso   1.000  H
  H113     1.0000 0.45552  0.88111  0.69260  Biso   1.000  H
  H114     1.0000 0.35108  0.90609  0.68640  Biso   1.000  H
  H115     1.0000 0.26357  0.86488  0.67541  Biso   1.000  H
  H116     1.0000 0.30760  0.78431  0.69891  Biso   1.000  H
  H117     1.0000 0.34551  0.75728  0.69891  Biso   1.000  H
  H118     1.0000 0.43447  0.73657  0.67510  Biso   1.000  H
  H119     1.0000 0.64837  0.88779  0.63771  Biso   1.000  H
  H120     1.0000 0.58473  0.93622  0.66701  Biso   1.000  H
  C105     1.0000 0.32191  0.18548  0.17669  Biso   1.000  C
  C106     1.0000 0.37007  0.09770  0.17694  Biso   1.000  C
  C107     1.0000 0.26137  0.18101  0.14123  Biso   1.000  C
  H121     1.0000 0.36491  0.23639  0.17541  Biso   1.000  H
  H122     1.0000 0.28428  0.19243  0.19891  Biso   1.000  H
  C108     1.0000 0.27410  0.12061  0.17661  Biso   1.000  C
  C109     1.0000 0.39642  0.07678  0.13643  Biso   1.000  C
  H123     1.0000 0.38108  0.04451  0.19260  Biso   1.000  H
  H124     1.0000 0.40612  0.14888  0.18640  Biso   1.000  H
  C110     1.0000 0.32343  0.13120  0.11332  Biso   1.000  C
  H125     1.0000 0.19780  0.18170  0.13299  Biso   1.000  H
  H126     1.0000 0.28187  0.24369  0.14550  Biso   1.000  H
  H127     1.0000 0.25731  0.15452  0.19891  Biso   1.000  H
  H128     1.0000 0.23660  0.06550  0.17510  Biso   1.000  H
  N49      1.0000 0.48311  0.11730  0.12407  Biso   1.000  N
  N50      1.0000 0.38411  0.98252  0.12440  Biso   1.000  N
  N51      1.0000 0.27981  0.06006  0.09122  Biso   1.000  N
  N52      1.0000 0.37957  0.19401  0.09130  Biso   1.000  N
  C111     1.0000 0.47107  0.18562  0.09901  Biso   1.000  C
  C112     1.0000 0.57200  0.09563  0.14047  Biso   1.000  C
  C113     1.0000 0.31297  0.97448  0.09881  Biso   1.000  C
  C114     1.0000 0.42800  0.90437  0.14047  Biso   1.000  C
  C115     1.0000 0.19911  0.07327  0.06823  Biso   1.000  C
  C116     1.0000 0.34228  0.26839  0.06781  Biso   1.000  C
  O25      1.0000 0.53209  0.23447  0.08653  Biso   1.000  O
  H129     1.0000 0.61218  0.14840  0.13771  Biso   1.000  H
  H130     1.0000 0.56381  0.08469  0.16701  Biso   1.000  H
  N53      1.0000 0.61589  0.01748  0.12440  Biso   1.000  N
  O26      1.0000 0.28572  0.90155  0.08581  Biso   1.000  O
  H131     1.0000 0.38782  0.85160  0.13771  Biso   1.000  H
  H132     1.0000 0.43619  0.91531  0.16701  Biso   1.000  H
  N54      1.0000 0.51689  0.88270  0.12407  Biso   1.000  N
  H133     1.0000 0.16567  0.01569  0.06680  Biso   1.000  H
  H134     1.0000 0.15927  0.11799  0.08020  Biso   1.000  H
  N55      1.0000 0.21940  0.10416  0.03109  Biso   1.000  N
  H135     1.0000 0.28772  0.29322  0.07970  Biso   1.000  H
  H136     1.0000 0.38727  0.31751  0.06630  Biso   1.000  H
  N56      1.0000 0.31923  0.23949  0.03106  Biso   1.000  N
  C117     1.0000 0.68703  0.02552  0.09881  Biso   1.000  C
  C118     1.0000 0.60358  0.92322  0.13643  Biso   1.000  C
  C119     1.0000 0.52893  0.81438  0.09901  Biso   1.000  C
  C120     1.0000 0.20523  0.05112  0.00000  Biso   1.000  C
  C121     1.0000 0.23048  0.20110  0.02121  Biso   1.000  C
  C122     1.0000 0.36560  0.26550  0.00000  Biso   1.000  C
  O27      1.0000 0.71428  0.09845  0.08581  Biso   1.000  O
  N57      1.0000 0.72019  0.93994  0.09122  Biso   1.000  N
  C123     1.0000 0.67657  0.86880  0.11332  Biso   1.000  C
  C124     1.0000 0.62993  0.90230  0.17694  Biso   1.000  C
  N58      1.0000 0.62043  0.80599  0.09130  Biso   1.000  N
  O28      1.0000 0.46791  0.76553  0.08653  Biso   1.000  O
  O29      1.0000 0.18259  0.96959  0.00000  Biso   1.000  O
  N59      1.0000 0.21940  0.10416  0.96891  Biso   1.000  N
  H137     1.0000 0.18012  0.23860  0.03109  Biso   1.000  H
  C125     1.0000 0.23048  0.20110  0.97879  Biso   1.000  C
  O30      1.0000 0.44032  0.30671  0.00000  Biso   1.000  O
  N60      1.0000 0.31923  0.23949  0.96894  Biso   1.000  N
  C126     1.0000 0.80089  0.92673  0.06823  Biso   1.000  C
  C127     1.0000 0.73863  0.81899  0.14123  Biso   1.000  C
  H138     1.0000 0.61892  0.95549  0.19260  Biso   1.000  H
  H139     1.0000 0.59388  0.85112  0.18640  Biso   1.000  H
  C128     1.0000 0.67809  0.81452  0.17669  Biso   1.000  C
  C129     1.0000 0.72590  0.87939  0.17661  Biso   1.000  C
  C130     1.0000 0.65772  0.73161  0.06781  Biso   1.000  C
  C131     1.0000 0.19911  0.07327  0.93177  Biso   1.000  C
  H140     1.0000 0.18012  0.23860  0.96891  Biso   1.000  H
  C132     1.0000 0.34228  0.26839  0.93219  Biso   1.000  C
  H141     1.0000 0.83433  0.98431  0.06680  Biso   1.000  H
  H142     1.0000 0.84073  0.88201  0.08020  Biso   1.000  H
  N61      1.0000 0.78060  0.89584  0.03109  Biso   1.000  N
  H143     1.0000 0.80220  0.81830  0.13299  Biso   1.000  H
  H144     1.0000 0.71813  0.75631  0.14550  Biso   1.000  H
  H145     1.0000 0.63509  0.76361  0.17541  Biso   1.000  H
  H146     1.0000 0.71572  0.80757  0.19891  Biso   1.000  H
  H147     1.0000 0.74269  0.84548  0.19891  Biso   1.000  H
  H148     1.0000 0.76340  0.93450  0.17510  Biso   1.000  H
  H149     1.0000 0.71228  0.70678  0.07970  Biso   1.000  H
  H150     1.0000 0.61273  0.68249  0.06630  Biso   1.000  H
  N62      1.0000 0.68077  0.76051  0.03106  Biso   1.000  N
  H151     1.0000 0.16567  0.01569  0.93320  Biso   1.000  H
  H152     1.0000 0.15927  0.11799  0.91980  Biso   1.000  H
  N63      1.0000 0.27981  0.06006  0.90878  Biso   1.000  N
  H153     1.0000 0.28772  0.29322  0.92030  Biso   1.000  H
  H154     1.0000 0.38727  0.31751  0.93370  Biso   1.000  H
  N64      1.0000 0.37957  0.19401  0.90870  Biso   1.000  N
  C133     1.0000 0.79477  0.94888  0.00000  Biso   1.000  C
  C134     1.0000 0.76952  0.79890  0.02121  Biso   1.000  C
  C135     1.0000 0.63440  0.73450  0.00000  Biso   1.000  C
  C136     1.0000 0.31297  0.97448  0.90119  Biso   1.000  C
  C137     1.0000 0.32343  0.13120  0.88668  Biso   1.000  C
  C138     1.0000 0.47107  0.18562  0.90099  Biso   1.000  C
  O31      1.0000 0.81741  0.03041  0.00000  Biso   1.000  O
  N65      1.0000 0.78060  0.89584  0.96891  Biso   1.000  N
  C139     1.0000 0.76952  0.79890  0.97879  Biso   1.000  C
  H155     1.0000 0.81988  0.76140  0.03109  Biso   1.000  H
  N66      1.0000 0.68077  0.76051  0.96894  Biso   1.000  N
  O32      1.0000 0.55968  0.69329  0.00000  Biso   1.000  O
  N67      1.0000 0.38411  0.98252  0.87560  Biso   1.000  N
  O33      1.0000 0.28572  0.90155  0.91419  Biso   1.000  O
  C140     1.0000 0.39642  0.07678  0.86357  Biso   1.000  C
  C141     1.0000 0.26137  0.18101  0.85877  Biso   1.000  C
  N68      1.0000 0.48311  0.11730  0.87593  Biso   1.000  N
  O34      1.0000 0.53209  0.23447  0.91347  Biso   1.000  O
  C142     1.0000 0.80089  0.92673  0.93177  Biso   1.000  C
  H156     1.0000 0.81988  0.76140  0.96891  Biso   1.000  H
  C143     1.0000 0.65772  0.73161  0.93219  Biso   1.000  C
  C144     1.0000 0.42800  0.90437  0.85953  Biso   1.000  C
  C145     1.0000 0.37007  0.09770  0.82306  Biso   1.000  C
  H157     1.0000 0.19780  0.18170  0.86701  Biso   1.000  H
  H158     1.0000 0.28187  0.24369  0.85450  Biso   1.000  H
  C146     1.0000 0.32191  0.18548  0.82331  Biso   1.000  C
  C147     1.0000 0.27410  0.12061  0.82339  Biso   1.000  C
  C148     1.0000 0.57200  0.09563  0.85953  Biso   1.000  C
  H159     1.0000 0.83433  0.98431  0.93320  Biso   1.000  H
  H160     1.0000 0.84073  0.88201  0.91980  Biso   1.000  H
  N69      1.0000 0.72019  0.93994  0.90878  Biso   1.000  N
  H161     1.0000 0.71228  0.70678  0.92030  Biso   1.000  H
  H162     1.0000 0.61273  0.68249  0.93370  Biso   1.000  H
  N70      1.0000 0.62043  0.80599  0.90870  Biso   1.000  N
  H163     1.0000 0.38782  0.85160  0.86229  Biso   1.000  H
  H164     1.0000 0.43619  0.91531  0.83299  Biso   1.000  H
  N71      1.0000 0.51689  0.88270  0.87593  Biso   1.000  N
  H165     1.0000 0.38108  0.04451  0.80740  Biso   1.000  H
  H166     1.0000 0.40612  0.14888  0.81360  Biso   1.000  H
  H167     1.0000 0.36491  0.23639  0.82459  Biso   1.000  H
  H168     1.0000 0.28428  0.19243  0.80109  Biso   1.000  H
  H169     1.0000 0.25731  0.15452  0.80109  Biso   1.000  H
  H170     1.0000 0.23660  0.06550  0.82490  Biso   1.000  H
  H171     1.0000 0.61218  0.14840  0.86229  Biso   1.000  H
  H172     1.0000 0.56381  0.08469  0.83299  Biso   1.000  H
  N72      1.0000 0.61589  0.01748  0.87560  Biso   1.000  N
  C149     1.0000 0.67657  0.86880  0.88668  Biso   1.000  C
  C150     1.0000 0.68703  0.02552  0.90119  Biso   1.000  C
  C151     1.0000 0.52893  0.81438  0.90099  Biso   1.000  C
  C152     1.0000 0.60358  0.92322  0.86357  Biso   1.000  C
  C153     1.0000 0.73863  0.81899  0.85877  Biso   1.000  C
  O35      1.0000 0.71428  0.09845  0.91419  Biso   1.000  O
  O36      1.0000 0.46791  0.76553  0.91347  Biso   1.000  O
  C154     1.0000 0.62993  0.90230  0.82306  Biso   1.000  C
  H173     1.0000 0.80220  0.81830  0.86701  Biso   1.000  H
  H174     1.0000 0.71813  0.75631  0.85450  Biso   1.000  H
  C155     1.0000 0.67809  0.81452  0.82331  Biso   1.000  C
  C156     1.0000 0.72590  0.87939  0.82339  Biso   1.000  C
  H175     1.0000 0.61892  0.95549  0.80740  Biso   1.000  H
  H176     1.0000 0.59388  0.85112  0.81360  Biso   1.000  H
  H177     1.0000 0.63509  0.76361  0.82459  Biso   1.000  H
  H178     1.0000 0.71572  0.80757  0.80109  Biso   1.000  H
  H179     1.0000 0.74269  0.84548  0.80109  Biso   1.000  H
  H180     1.0000 0.76340  0.93450  0.82490  Biso   1.000  H
  C157     1.0000 0.09563  0.42800  0.14047  Biso   1.000  C
  H181     1.0000 0.14840  0.38782  0.13771  Biso   1.000  H
  H182     1.0000 0.08469  0.43619  0.16701  Biso   1.000  H
  N73      1.0000 0.01748  0.38411  0.12440  Biso   1.000  N
  N74      1.0000 0.11730  0.51689  0.12407  Biso   1.000  N
  C158     1.0000 0.02552  0.31297  0.09881  Biso   1.000  C
  C159     1.0000 0.92322  0.39642  0.13643  Biso   1.000  C
  C160     1.0000 0.07678  0.60358  0.13643  Biso   1.000  C
  C161     1.0000 0.18562  0.52893  0.09901  Biso   1.000  C
  O37      1.0000 0.09845  0.28572  0.08581  Biso   1.000  O
  N75      1.0000 0.93994  0.27981  0.09122  Biso   1.000  N
  C162     1.0000 0.86880  0.32343  0.11332  Biso   1.000  C
  C163     1.0000 0.90230  0.37007  0.17694  Biso   1.000  C
  N76      1.0000 0.88270  0.48311  0.12407  Biso   1.000  N
  C164     1.0000 0.13120  0.67657  0.11332  Biso   1.000  C
  C165     1.0000 0.09770  0.62993  0.17694  Biso   1.000  C
  N77      1.0000 0.98252  0.61589  0.12440  Biso   1.000  N
  N78      1.0000 0.19401  0.62043  0.09130  Biso   1.000  N
  O38      1.0000 0.23447  0.46791  0.08653  Biso   1.000  O
  C166     1.0000 0.92673  0.19911  0.06823  Biso   1.000  C
  C167     1.0000 0.81899  0.26137  0.14123  Biso   1.000  C
  N79      1.0000 0.80599  0.37957  0.09130  Biso   1.000  N
  H183     1.0000 0.95549  0.38108  0.19260  Biso   1.000  H
  H184     1.0000 0.85112  0.40612  0.18640  Biso   1.000  H
  C168     1.0000 0.81452  0.32191  0.17669  Biso   1.000  C
  C169     1.0000 0.87939  0.27410  0.17661  Biso   1.000  C
  C170     1.0000 0.81438  0.47107  0.09901  Biso   1.000  C
  C171     1.0000 0.90437  0.57200  0.14047  Biso   1.000  C
  C172     1.0000 0.18101  0.73863  0.14123  Biso   1.000  C
  N80      1.0000 0.06006  0.72019  0.09122  Biso   1.000  N
  H185     1.0000 0.04451  0.61892  0.19260  Biso   1.000  H
  H186     1.0000 0.14888  0.59388  0.18640  Biso   1.000  H
  C173     1.0000 0.18548  0.67809  0.17669  Biso   1.000  C
  C174     1.0000 0.12061  0.72590  0.17661  Biso   1.000  C
  C175     1.0000 0.97448  0.68703  0.09881  Biso   1.000  C
  C176     1.0000 0.26839  0.65772  0.06781  Biso   1.000  C
  H187     1.0000 0.98431  0.16567  0.06680  Biso   1.000  H
  H188     1.0000 0.88201  0.15927  0.08020  Biso   1.000  H
  N81      1.0000 0.89584  0.21940  0.03109  Biso   1.000  N
  H189     1.0000 0.81830  0.19780  0.13299  Biso   1.000  H
  H190     1.0000 0.75631  0.28187  0.14550  Biso   1.000  H
  C177     1.0000 0.73161  0.34228  0.06781  Biso   1.000  C
  H191     1.0000 0.76361  0.36491  0.17541  Biso   1.000  H
  H192     1.0000 0.80757  0.28428  0.19891  Biso   1.000  H
  H193     1.0000 0.84548  0.25731  0.19891  Biso   1.000  H
  H194     1.0000 0.93450  0.23660  0.17510  Biso   1.000  H
  O39      1.0000 0.76553  0.53209  0.08653  Biso   1.000  O
  H195     1.0000 0.85160  0.61218  0.13771  Biso   1.000  H
  H196     1.0000 0.91531  0.56381  0.16701  Biso   1.000  H
  H197     1.0000 0.18170  0.80220  0.13299  Biso   1.000  H
  H198     1.0000 0.24369  0.71813  0.14550  Biso   1.000  H
  C178     1.0000 0.07327  0.80089  0.06823  Biso   1.000  C
  H199     1.0000 0.23639  0.63509  0.17541  Biso   1.000  H
  H200     1.0000 0.19243  0.71572  0.19891  Biso   1.000  H
  H201     1.0000 0.15452  0.74269  0.19891  Biso   1.000  H
  H202     1.0000 0.06550  0.76340  0.17510  Biso   1.000  H
  O40      1.0000 0.90155  0.71428  0.08581  Biso   1.000  O
  H203     1.0000 0.29322  0.71228  0.07970  Biso   1.000  H
  H204     1.0000 0.31751  0.61273  0.06630  Biso   1.000  H
  N82      1.0000 0.23949  0.68077  0.03106  Biso   1.000  N
  C179     1.0000 0.94888  0.20523  0.00000  Biso   1.000  C
  C180     1.0000 0.79890  0.23048  0.02121  Biso   1.000  C
  H205     1.0000 0.70678  0.28772  0.07970  Biso   1.000  H
  H206     1.0000 0.68249  0.38727  0.06630  Biso   1.000  H
  N83      1.0000 0.76051  0.31923  0.03106  Biso   1.000  N
  H207     1.0000 0.01569  0.83433  0.06680  Biso   1.000  H
  H208     1.0000 0.11799  0.84073  0.08020  Biso   1.000  H
  N84      1.0000 0.10416  0.78060  0.03109  Biso   1.000  N
  C181     1.0000 0.20110  0.76952  0.02121  Biso   1.000  C
  C182     1.0000 0.26550  0.63440  0.00000  Biso   1.000  C
  O41      1.0000 0.03041  0.18259  0.00000  Biso   1.000  O
  N85      1.0000 0.89584  0.21940  0.96891  Biso   1.000  N
  C183     1.0000 0.79890  0.23048  0.97879  Biso   1.000  C
  H209     1.0000 0.76140  0.18012  0.03109  Biso   1.000  H
  C184     1.0000 0.73450  0.36560  0.00000  Biso   1.000  C
  C185     1.0000 0.05112  0.79477  0.00000  Biso   1.000  C
  H210     1.0000 0.23860  0.81988  0.03109  Biso   1.000  H
  C186     1.0000 0.20110  0.76952  0.97879  Biso   1.000  C
  O42      1.0000 0.30671  0.55968  0.00000  Biso   1.000  O
  N86      1.0000 0.23949  0.68077  0.96894  Biso   1.000  N
  C187     1.0000 0.92673  0.19911  0.93177  Biso   1.000  C
  H211     1.0000 0.76140  0.18012  0.96891  Biso   1.000  H
  N87      1.0000 0.76051  0.31923  0.96894  Biso   1.000  N
  O43      1.0000 0.69329  0.44032  0.00000  Biso   1.000  O
  O44      1.0000 0.96959  0.81741  0.00000  Biso   1.000  O
  N88      1.0000 0.10416  0.78060  0.96891  Biso   1.000  N
  H212     1.0000 0.23860  0.81988  0.96891  Biso   1.000  H
  C188     1.0000 0.26839  0.65772  0.93219  Biso   1.000  C
  H213     1.0000 0.98431  0.16567  0.93320  Biso   1.000  H
  H214     1.0000 0.88201  0.15927  0.91980  Biso   1.000  H
  N89      1.0000 0.93994  0.27981  0.90878  Biso   1.000  N
  C189     1.0000 0.73161  0.34228  0.93219  Biso   1.000  C
  C190     1.0000 0.07327  0.80089  0.93177  Biso   1.000  C
  H215     1.0000 0.29322  0.71228  0.92030  Biso   1.000  H
  H216     1.0000 0.31751  0.61273  0.93370  Biso   1.000  H
  N90      1.0000 0.19401  0.62043  0.90870  Biso   1.000  N
  C191     1.0000 0.86880  0.32343  0.88668  Biso   1.000  C
  C192     1.0000 0.02552  0.31297  0.90119  Biso   1.000  C
  H217     1.0000 0.70678  0.28772  0.92030  Biso   1.000  H
  H218     1.0000 0.68249  0.38727  0.93370  Biso   1.000  H
  N91      1.0000 0.80599  0.37957  0.90870  Biso   1.000  N
  H219     1.0000 0.01569  0.83433  0.93320  Biso   1.000  H
  H220     1.0000 0.11799  0.84073  0.91980  Biso   1.000  H
  N92      1.0000 0.06006  0.72019  0.90878  Biso   1.000  N
  C193     1.0000 0.13120  0.67657  0.88668  Biso   1.000  C
  C194     1.0000 0.18562  0.52893  0.90099  Biso   1.000  C
  C195     1.0000 0.92322  0.39642  0.86357  Biso   1.000  C
  C196     1.0000 0.81899  0.26137  0.85877  Biso   1.000  C
  N93      1.0000 0.01748  0.38411  0.87560  Biso   1.000  N
  O45      1.0000 0.09845  0.28572  0.91419  Biso   1.000  O
  C197     1.0000 0.81438  0.47107  0.90099  Biso   1.000  C
  C198     1.0000 0.97448  0.68703  0.90119  Biso   1.000  C
  C199     1.0000 0.07678  0.60358  0.86357  Biso   1.000  C
  C200     1.0000 0.18101  0.73863  0.85877  Biso   1.000  C
  N94      1.0000 0.11730  0.51689  0.87593  Biso   1.000  N
  O46      1.0000 0.23447  0.46791  0.91347  Biso   1.000  O
  C201     1.0000 0.90230  0.37007  0.82306  Biso   1.000  C
  N95      1.0000 0.88270  0.48311  0.87593  Biso   1.000  N
  H221     1.0000 0.81830  0.19780  0.86701  Biso   1.000  H
  H222     1.0000 0.75631  0.28187  0.85450  Biso   1.000  H
  C202     1.0000 0.81452  0.32191  0.82331  Biso   1.000  C
  C203     1.0000 0.87939  0.27410  0.82339  Biso   1.000  C
  C204     1.0000 0.09563  0.42800  0.85953  Biso   1.000  C
  O47      1.0000 0.76553  0.53209  0.91347  Biso   1.000  O
  N96      1.0000 0.98252  0.61589  0.87560  Biso   1.000  N
  O48      1.0000 0.90155  0.71428  0.91419  Biso   1.000  O
  C205     1.0000 0.09770  0.62993  0.82306  Biso   1.000  C
  H223     1.0000 0.18170  0.80220  0.86701  Biso   1.000  H
  H224     1.0000 0.24369  0.71813  0.85450  Biso   1.000  H
  C206     1.0000 0.18548  0.67809  0.82331  Biso   1.000  C
  C207     1.0000 0.12061  0.72590  0.82339  Biso   1.000  C
  H225     1.0000 0.95549  0.38108  0.80740  Biso   1.000  H
  H226     1.0000 0.85112  0.40612  0.81360  Biso   1.000  H
  C208     1.0000 0.90437  0.57200  0.85953  Biso   1.000  C
  H227     1.0000 0.76361  0.36491  0.82459  Biso   1.000  H
  H228     1.0000 0.80757  0.28428  0.80109  Biso   1.000  H
  H229     1.0000 0.84548  0.25731  0.80109  Biso   1.000  H
  H230     1.0000 0.93450  0.23660  0.82490  Biso   1.000  H
  H231     1.0000 0.14840  0.38782  0.86229  Biso   1.000  H
  H232     1.0000 0.08469  0.43619  0.83299  Biso   1.000  H
  H233     1.0000 0.04451  0.61892  0.80740  Biso   1.000  H
  H234     1.0000 0.14888  0.59388  0.81360  Biso   1.000  H
  H235     1.0000 0.23639  0.63509  0.82459  Biso   1.000  H
  H236     1.0000 0.19243  0.71572  0.80109  Biso   1.000  H
  H237     1.0000 0.15452  0.74269  0.80109  Biso   1.000  H
  H238     1.0000 0.06550  0.76340  0.82490  Biso   1.000  H
  H239     1.0000 0.85160  0.61218  0.86229  Biso   1.000  H
  H240     1.0000 0.91531  0.56381  0.83299  Biso   1.000  H
  Ne1      1.0000 0.50000  0.00000  0.00000  Biso   1.000  Ne
  He1      1.0000 0.62688  0.16586  0.99781  Biso   1.000  He
  He2      1.0000 0.36361  0.82116  0.99762  Biso   1.000  He
  Ar1      1.0000 0.50000  0.00000  0.00000  Biso   1.000  Ar
  Ne2      1.0000 0.00000  0.50000  0.50000  Biso   1.000  Ne
  He3      1.0000 0.12685  0.66582  0.49780  Biso   1.000  He
  He4      1.0000 0.86364  0.32120  0.49762  Biso   1.000  He
  Ar2      1.0000 0.00000  0.50000  0.50000  Biso   1.000  Ar
  Ne3      1.0000 0.50000  0.00000  0.50000  Biso   1.000  Ne
  He5      1.0000 0.32522  0.13341  0.50232  Biso   1.000  He
  He6      1.0000 0.67971  0.86298  0.50240  Biso   1.000  He
  Ar3      1.0000 0.50000  0.00000  0.50000  Biso   1.000  Ar
  Ne4      1.0000 0.00000  0.50000  0.00000  Biso   1.000  Ne
  He7      1.0000 0.82518  0.63345  0.00232  Biso   1.000  He
  He8      1.0000 0.17975  0.36294  0.00240  Biso   1.000  He
  Ar4      1.0000 0.00000  0.50000  0.00000  Biso   1.000  Ar
