data_image0
_cell_length_a       10.972
_cell_length_b       18.773
_cell_length_c       11.281
_cell_angle_alpha    90
_cell_angle_beta     102.9
_cell_angle_gamma    90

_symmetry_space_group_name_H-M    "P 1"
_symmetry_int_tables_number       1

loop_
  _symmetry_equiv_pos_as_xyz
  'x, y, z'

loop_
  _atom_site_label
  _atom_site_occupancy
  _atom_site_fract_x
  _atom_site_fract_y
  _atom_site_fract_z
  _atom_site_thermal_displace_type
  _atom_site_B_iso_or_equiv
  _atom_site_type_symbol
  C1       1.0000 0.86001  0.31428  0.55391  Biso   1.000  C
  N1       1.0000 0.84174  0.34395  0.43142  Biso   1.000  N
  N2       1.0000 0.96467  0.34406  0.64222  Biso   1.000  N
  H1       1.0000 0.78430  0.32179  0.58302  Biso   1.000  H
  H2       1.0000 0.87225  0.26330  0.54928  Biso   1.000  H
  C2       1.0000 0.91058  0.31401  0.34657  Biso   1.000  C
  C3       1.0000 0.76048  0.40042  0.40141  Biso   1.000  C
  C4       1.0000 0.94177  0.40058  0.71315  Biso   1.000  C
  C5       1.0000 0.08937  0.31401  0.65340  Biso   1.000  C
  C6       1.0000 0.83392  0.32563  0.21589  Biso   1.000  C
  H3       1.0000 0.91917  0.26261  0.36139  Biso   1.000  H
  N3       1.0000 0.03527  0.34406  0.35776  Biso   1.000  N
  N4       1.0000 0.76091  0.43504  0.29410  Biso   1.000  N
  O1       1.0000 0.68788  0.41735  0.46552  Biso   1.000  O
  O2       1.0000 0.83603  0.41810  0.71788  Biso   1.000  O
  N5       1.0000 0.04584  0.43483  0.77981  Biso   1.000  N
  N6       1.0000 0.15812  0.34395  0.56856  Biso   1.000  N
  H4       1.0000 0.08077  0.26261  0.63858  Biso   1.000  H
  C7       1.0000 0.16603  0.32563  0.78408  Biso   1.000  C
  C8       1.0000 0.70382  0.29217  0.19707  Biso   1.000  C
  C9       1.0000 0.82755  0.40665  0.20643  Biso   1.000  C
  C10      1.0000 0.89836  0.29361  0.12104  Biso   1.000  C
  C11      1.0000 0.05818  0.40058  0.28682  Biso   1.000  C
  C12      1.0000 0.13994  0.31428  0.44606  Biso   1.000  C
  C13      1.0000 0.68723  0.49997  0.26536  Biso   1.000  C
  C14      1.0000 0.17232  0.40665  0.79363  Biso   1.000  C
  C15      1.0000 0.02709  0.49997  0.84465  Biso   1.000  C
  C16      1.0000 0.23947  0.40042  0.59857  Biso   1.000  C
  C17      1.0000 0.29613  0.29217  0.80291  Biso   1.000  C
  C18      1.0000 0.10151  0.29361  0.87902  Biso   1.000  C
  H5       1.0000 0.66102  0.31162  0.25518  Biso   1.000  H
  H6       1.0000 0.71177  0.24152  0.20789  Biso   1.000  H
  H7       1.0000 0.65712  0.30240  0.11631  Biso   1.000  H
  N7       1.0000 0.95411  0.43483  0.22017  Biso   1.000  N
  H8       1.0000 0.77992  0.41901  0.12477  Biso   1.000  H
  H9       1.0000 0.85008  0.30400  0.04092  Biso   1.000  H
  H10      1.0000 0.90495  0.24290  0.13186  Biso   1.000  H
  H11      1.0000 0.98051  0.31370  0.13068  Biso   1.000  H
  O3       1.0000 0.16391  0.41810  0.28210  Biso   1.000  O
  H12      1.0000 0.21565  0.32179  0.41696  Biso   1.000  H
  H13      1.0000 0.12770  0.26330  0.45070  Biso   1.000  H
  N8       1.0000 0.76091  0.56496  0.29410  Biso   1.000  N
  H14      1.0000 0.64782  0.49997  0.17942  Biso   1.000  H
  H15      1.0000 0.62144  0.49997  0.31029  Biso   1.000  H
  N9       1.0000 0.23904  0.43504  0.70588  Biso   1.000  N
  H16      1.0000 0.22003  0.41901  0.87520  Biso   1.000  H
  H17      1.0000 0.94291  0.49997  0.85829  Biso   1.000  H
  N10      1.0000 0.04584  0.56517  0.77981  Biso   1.000  N
  H18      1.0000 0.08476  0.49997  0.92358  Biso   1.000  H
  O4       1.0000 0.31207  0.41735  0.53445  Biso   1.000  O
  H19      1.0000 0.33893  0.31162  0.74480  Biso   1.000  H
  H20      1.0000 0.28818  0.24152  0.79209  Biso   1.000  H
  H21      1.0000 0.34283  0.30240  0.88366  Biso   1.000  H
  H22      1.0000 0.14978  0.30400  0.95905  Biso   1.000  H
  H23      1.0000 0.09491  0.24290  0.86811  Biso   1.000  H
  H24      1.0000 0.01944  0.31370  0.86929  Biso   1.000  H
  C19      1.0000 0.97277  0.49997  0.15533  Biso   1.000  C
  C20      1.0000 0.82755  0.59335  0.20643  Biso   1.000  C
  C21      1.0000 0.76048  0.59958  0.40141  Biso   1.000  C
  C22      1.0000 0.31262  0.49997  0.73461  Biso   1.000  C
  C23      1.0000 0.94177  0.59942  0.71315  Biso   1.000  C
  C24      1.0000 0.17232  0.59335  0.79363  Biso   1.000  C
  N11      1.0000 0.95411  0.56517  0.22017  Biso   1.000  N
  H25      1.0000 0.91518  0.49997  0.07639  Biso   1.000  H
  H26      1.0000 0.05695  0.49997  0.14168  Biso   1.000  H
  H27      1.0000 0.77992  0.58099  0.12477  Biso   1.000  H
  C25      1.0000 0.83392  0.67437  0.21589  Biso   1.000  C
  N12      1.0000 0.84174  0.65605  0.43142  Biso   1.000  N
  O5       1.0000 0.68788  0.58265  0.46552  Biso   1.000  O
  N13      1.0000 0.23904  0.56496  0.70588  Biso   1.000  N
  H28      1.0000 0.35213  0.49997  0.82055  Biso   1.000  H
  H29      1.0000 0.37841  0.49997  0.68969  Biso   1.000  H
  N14      1.0000 0.96467  0.65594  0.64222  Biso   1.000  N
  O6       1.0000 0.83603  0.58190  0.71788  Biso   1.000  O
  H30      1.0000 0.22003  0.58099  0.87520  Biso   1.000  H
  C26      1.0000 0.16603  0.67437  0.78408  Biso   1.000  C
  C27      1.0000 0.05818  0.59942  0.28682  Biso   1.000  C
  C28      1.0000 0.91058  0.68599  0.34657  Biso   1.000  C
  C29      1.0000 0.70382  0.70783  0.19707  Biso   1.000  C
  C30      1.0000 0.89836  0.70639  0.12104  Biso   1.000  C
  C31      1.0000 0.86001  0.68572  0.55391  Biso   1.000  C
  C32      1.0000 0.23947  0.59958  0.59857  Biso   1.000  C
  C33      1.0000 0.08937  0.68599  0.65340  Biso   1.000  C
  C34      1.0000 0.29613  0.70783  0.80291  Biso   1.000  C
  C35      1.0000 0.10151  0.70639  0.87902  Biso   1.000  C
  N15      1.0000 0.03527  0.65594  0.35776  Biso   1.000  N
  O7       1.0000 0.16391  0.58190  0.28210  Biso   1.000  O
  H31      1.0000 0.91917  0.73739  0.36139  Biso   1.000  H
  H32      1.0000 0.66102  0.68838  0.25518  Biso   1.000  H
  H33      1.0000 0.71177  0.75848  0.20789  Biso   1.000  H
  H34      1.0000 0.65712  0.69760  0.11631  Biso   1.000  H
  H35      1.0000 0.85008  0.69600  0.04092  Biso   1.000  H
  H36      1.0000 0.90495  0.75710  0.13186  Biso   1.000  H
  H37      1.0000 0.98051  0.68630  0.13068  Biso   1.000  H
  H38      1.0000 0.78430  0.67821  0.58302  Biso   1.000  H
  H39      1.0000 0.87225  0.73670  0.54928  Biso   1.000  H
  N16      1.0000 0.15812  0.65605  0.56856  Biso   1.000  N
  O8       1.0000 0.31207  0.58265  0.53445  Biso   1.000  O
  H40      1.0000 0.08077  0.73739  0.63858  Biso   1.000  H
  H41      1.0000 0.33893  0.68838  0.74480  Biso   1.000  H
  H42      1.0000 0.28818  0.75848  0.79209  Biso   1.000  H
  H43      1.0000 0.34283  0.69760  0.88366  Biso   1.000  H
  H44      1.0000 0.14978  0.69600  0.95905  Biso   1.000  H
  H45      1.0000 0.09491  0.75710  0.86811  Biso   1.000  H
  H46      1.0000 0.01944  0.68630  0.86929  Biso   1.000  H
  C36      1.0000 0.13994  0.68572  0.44606  Biso   1.000  C
  H47      1.0000 0.21565  0.67821  0.41696  Biso   1.000  H
  H48      1.0000 0.12770  0.73670  0.45070  Biso   1.000  H
  C37      1.0000 0.63994  0.18569  0.44606  Biso   1.000  C
  N17      1.0000 0.53527  0.15597  0.35776  Biso   1.000  N
  N18      1.0000 0.65812  0.15602  0.56856  Biso   1.000  N
  H49      1.0000 0.71565  0.17818  0.41696  Biso   1.000  H
  H50      1.0000 0.62770  0.23672  0.45070  Biso   1.000  H
  C38      1.0000 0.41058  0.18596  0.34657  Biso   1.000  C
  C39      1.0000 0.55818  0.09940  0.28682  Biso   1.000  C
  C40      1.0000 0.58937  0.18596  0.65340  Biso   1.000  C
  C41      1.0000 0.73947  0.09961  0.59857  Biso   1.000  C
  C42      1.0000 0.33392  0.17435  0.21589  Biso   1.000  C
  N19      1.0000 0.34174  0.15602  0.43142  Biso   1.000  N
  H51      1.0000 0.41917  0.23742  0.36139  Biso   1.000  H
  N20      1.0000 0.45411  0.06515  0.22017  Biso   1.000  N
  O9       1.0000 0.66391  0.08187  0.28210  Biso   1.000  O
  N21      1.0000 0.46467  0.15597  0.64222  Biso   1.000  N
  H52      1.0000 0.58077  0.23742  0.63858  Biso   1.000  H
  C43      1.0000 0.66603  0.17435  0.78408  Biso   1.000  C
  N22      1.0000 0.73904  0.06493  0.70588  Biso   1.000  N
  O10      1.0000 0.81207  0.08267  0.53445  Biso   1.000  O
  C44      1.0000 0.20382  0.20780  0.19707  Biso   1.000  C
  C45      1.0000 0.32755  0.09338  0.20643  Biso   1.000  C
  C46      1.0000 0.39836  0.20641  0.12104  Biso   1.000  C
  C47      1.0000 0.26048  0.09961  0.40141  Biso   1.000  C
  C48      1.0000 0.36001  0.18569  0.55391  Biso   1.000  C
  C49      1.0000 0.47277  0.00000  0.15533  Biso   1.000  C
  C50      1.0000 0.44177  0.09940  0.71315  Biso   1.000  C
  C51      1.0000 0.67232  0.09338  0.79363  Biso   1.000  C
  C52      1.0000 0.79613  0.20780  0.80291  Biso   1.000  C
  C53      1.0000 0.60151  0.20641  0.87902  Biso   1.000  C
  C54      1.0000 0.81262  0.00000  0.73461  Biso   1.000  C
  H53      1.0000 0.16102  0.18841  0.25518  Biso   1.000  H
  H54      1.0000 0.21177  0.25851  0.20789  Biso   1.000  H
  H55      1.0000 0.15712  0.19762  0.11631  Biso   1.000  H
  N23      1.0000 0.26091  0.06493  0.29410  Biso   1.000  N
  H56      1.0000 0.27992  0.08102  0.12477  Biso   1.000  H
  H57      1.0000 0.35008  0.19603  0.04092  Biso   1.000  H
  H58      1.0000 0.40495  0.25712  0.13186  Biso   1.000  H
  H59      1.0000 0.48051  0.18628  0.13068  Biso   1.000  H
  O11      1.0000 0.18788  0.08267  0.46552  Biso   1.000  O
  H60      1.0000 0.28430  0.17818  0.58302  Biso   1.000  H
  H61      1.0000 0.37225  0.23672  0.54928  Biso   1.000  H
  H62      1.0000 0.41518  0.00000  0.07639  Biso   1.000  H
  H63      1.0000 0.55695  0.00000  0.14168  Biso   1.000  H
  N24      1.0000 0.45411  0.93485  0.22017  Biso   1.000  N
  N25      1.0000 0.54584  0.06515  0.77981  Biso   1.000  N
  O12      1.0000 0.33603  0.08187  0.71788  Biso   1.000  O
  H64      1.0000 0.72003  0.08102  0.87520  Biso   1.000  H
  H65      1.0000 0.83893  0.18841  0.74480  Biso   1.000  H
  H66      1.0000 0.78818  0.25851  0.79209  Biso   1.000  H
  H67      1.0000 0.84283  0.19762  0.88366  Biso   1.000  H
  H68      1.0000 0.64978  0.19603  0.95905  Biso   1.000  H
  H69      1.0000 0.59491  0.25712  0.86811  Biso   1.000  H
  H70      1.0000 0.51944  0.18628  0.86929  Biso   1.000  H
  H71      1.0000 0.85213  0.00000  0.82055  Biso   1.000  H
  H72      1.0000 0.87841  0.00000  0.68969  Biso   1.000  H
  N26      1.0000 0.73904  0.93507  0.70588  Biso   1.000  N
  C55      1.0000 0.18723  0.00000  0.26536  Biso   1.000  C
  C56      1.0000 0.32755  0.90662  0.20643  Biso   1.000  C
  C57      1.0000 0.55818  0.90060  0.28682  Biso   1.000  C
  C58      1.0000 0.52709  0.00000  0.84465  Biso   1.000  C
  C59      1.0000 0.67232  0.90662  0.79363  Biso   1.000  C
  C60      1.0000 0.73947  0.90039  0.59857  Biso   1.000  C
  H73      1.0000 0.14782  0.00000  0.17942  Biso   1.000  H
  H74      1.0000 0.12144  0.00000  0.31029  Biso   1.000  H
  N27      1.0000 0.26091  0.93507  0.29410  Biso   1.000  N
  H75      1.0000 0.27992  0.91898  0.12477  Biso   1.000  H
  C61      1.0000 0.33392  0.82565  0.21589  Biso   1.000  C
  N28      1.0000 0.53527  0.84403  0.35776  Biso   1.000  N
  O13      1.0000 0.66391  0.91813  0.28210  Biso   1.000  O
  H76      1.0000 0.58476  0.00000  0.92358  Biso   1.000  H
  H77      1.0000 0.44291  0.00000  0.85829  Biso   1.000  H
  N29      1.0000 0.54584  0.93485  0.77981  Biso   1.000  N
  H78      1.0000 0.72003  0.91898  0.87520  Biso   1.000  H
  C62      1.0000 0.66603  0.82565  0.78408  Biso   1.000  C
  N30      1.0000 0.65812  0.84398  0.56856  Biso   1.000  N
  O14      1.0000 0.81207  0.91733  0.53445  Biso   1.000  O
  C63      1.0000 0.26048  0.90039  0.40141  Biso   1.000  C
  C64      1.0000 0.41058  0.81404  0.34657  Biso   1.000  C
  C65      1.0000 0.20382  0.79220  0.19707  Biso   1.000  C
  C66      1.0000 0.39836  0.79359  0.12104  Biso   1.000  C
  C67      1.0000 0.63994  0.81431  0.44606  Biso   1.000  C
  C68      1.0000 0.44177  0.90060  0.71315  Biso   1.000  C
  C69      1.0000 0.58937  0.81404  0.65340  Biso   1.000  C
  C70      1.0000 0.79613  0.79220  0.80291  Biso   1.000  C
  C71      1.0000 0.60151  0.79359  0.87902  Biso   1.000  C
  N31      1.0000 0.34174  0.84398  0.43142  Biso   1.000  N
  O15      1.0000 0.18788  0.91733  0.46552  Biso   1.000  O
  H79      1.0000 0.41917  0.76258  0.36139  Biso   1.000  H
  H80      1.0000 0.16102  0.81159  0.25518  Biso   1.000  H
  H81      1.0000 0.21177  0.74149  0.20789  Biso   1.000  H
  H82      1.0000 0.15712  0.80238  0.11631  Biso   1.000  H
  H83      1.0000 0.35008  0.80397  0.04092  Biso   1.000  H
  H84      1.0000 0.40495  0.74288  0.13186  Biso   1.000  H
  H85      1.0000 0.48051  0.81372  0.13068  Biso   1.000  H
  H86      1.0000 0.71565  0.82182  0.41696  Biso   1.000  H
  H87      1.0000 0.62770  0.76328  0.45070  Biso   1.000  H
  N32      1.0000 0.46467  0.84403  0.64222  Biso   1.000  N
  O16      1.0000 0.33603  0.91813  0.71788  Biso   1.000  O
  H88      1.0000 0.58077  0.76258  0.63858  Biso   1.000  H
  H89      1.0000 0.83893  0.81159  0.74480  Biso   1.000  H
  H90      1.0000 0.78818  0.74149  0.79209  Biso   1.000  H
  H91      1.0000 0.84283  0.80238  0.88366  Biso   1.000  H
  H92      1.0000 0.64978  0.80397  0.95905  Biso   1.000  H
  H93      1.0000 0.59491  0.74288  0.86811  Biso   1.000  H
  H94      1.0000 0.51944  0.81372  0.86929  Biso   1.000  H
  C72      1.0000 0.36001  0.81431  0.55391  Biso   1.000  C
  H95      1.0000 0.28430  0.82182  0.58302  Biso   1.000  H
  H96      1.0000 0.37225  0.76328  0.54928  Biso   1.000  H
  Ne1      1.0000 0.99996  0.50000  0.49999  Biso   1.000  Ne
  He1      1.0000 0.75162  0.50000  0.59494  Biso   1.000  He
  He2      1.0000 0.24360  0.50000  0.40687  Biso   1.000  He
  Ar1      1.0000 0.99997  0.50000  0.50000  Biso   1.000  Ar
