data_image0
_cell_length_a       11.976
_cell_length_b       16.032
_cell_length_c       17.483
_cell_angle_alpha    73.98
_cell_angle_beta     86.74
_cell_angle_gamma    82.63

_symmetry_space_group_name_H-M    "P 1"
_symmetry_int_tables_number       1

loop_
  _symmetry_equiv_pos_as_xyz
  'x, y, z'

loop_
  _atom_site_label
  _atom_site_occupancy
  _atom_site_fract_x
  _atom_site_fract_y
  _atom_site_fract_z
  _atom_site_thermal_displace_type
  _atom_site_B_iso_or_equiv
  _atom_site_type_symbol
  C1       1.0000 0.61596  0.56096  0.49149  Biso   1.000  C
  H1       1.0000 0.59468  0.63754  0.45971  Biso   1.000  H
  C2       1.0000 0.70692  0.55896  0.44102  Biso   1.000  C
  C3       1.0000 0.65557  0.59547  0.48608  Biso   1.000  C
  H2       1.0000 0.63307  0.53735  0.49518  Biso   1.000  H
  O1       1.0000 0.82348  0.52214  0.45989  Biso   1.000  O
  H3       1.0000 0.73066  0.61635  0.38328  Biso   1.000  H
  O2       1.0000 0.77909  0.47767  0.47298  Biso   1.000  O
  O3       1.0000 0.67645  0.61066  0.56030  Biso   1.000  O
  C4       1.0000 0.75068  0.60276  0.43881  Biso   1.000  C
  C5       1.0000 0.86397  0.47197  0.42899  Biso   1.000  C
  C6       1.0000 0.87800  0.47675  0.41399  Biso   1.000  C
  H4       1.0000 0.80188  0.44377  0.41852  Biso   1.000  H
  C7       1.0000 0.60932  0.57475  0.62447  Biso   1.000  C
  H5       1.0000 0.78913  0.64976  0.44572  Biso   1.000  H
  C8       1.0000 0.94954  0.40526  0.45149  Biso   1.000  C
  H6       1.0000 0.88873  0.50640  0.37739  Biso   1.000  H
  C9       1.0000 0.65377  0.50107  0.67989  Biso   1.000  C
  C10      1.0000 0.50207  0.61645  0.63310  Biso   1.000  C
  O4       1.0000 0.92262  0.32987  0.43179  Biso   1.000  O
  H7       1.0000 0.96006  0.39184  0.50840  Biso   1.000  H
  H8       1.0000 0.01923  0.42286  0.42453  Biso   1.000  H
  C11      1.0000 0.58481  0.46363  0.74519  Biso   1.000  C
  C12      1.0000 0.77386  0.46306  0.66983  Biso   1.000  C
  C13      1.0000 0.43396  0.57756  0.69822  Biso   1.000  C
  C14      1.0000 0.46249  0.70508  0.57650  Biso   1.000  C
  C15      1.0000 0.01317  0.26068  0.44280  Biso   1.000  C
  C16      1.0000 0.63513  0.38425  0.80811  Biso   1.000  C
  C17      1.0000 0.47301  0.49994  0.75251  Biso   1.000  C
  H9       1.0000 0.79149  0.41122  0.71251  Biso   1.000  H
  H10      1.0000 0.78267  0.44856  0.61989  Biso   1.000  H
  H11      1.0000 0.82368  0.50515  0.67060  Biso   1.000  H
  C18      1.0000 0.31586  0.62115  0.70793  Biso   1.000  C
  H12      1.0000 0.38664  0.72377  0.59060  Biso   1.000  H
  H13      1.0000 0.51074  0.74706  0.58042  Biso   1.000  H
  H14      1.0000 0.46520  0.70016  0.52292  Biso   1.000  H
  C19      1.0000 0.97606  0.18459  0.42459  Biso   1.000  C
  H15      1.0000 0.07625  0.28014  0.40810  Biso   1.000  H
  H16      1.0000 0.03777  0.24467  0.49739  Biso   1.000  H
  S1       1.0000 0.61828  0.27839  0.79358  Biso   1.000  S
  H17      1.0000 0.71507  0.38782  0.81049  Biso   1.000  H
  H18      1.0000 0.60131  0.38674  0.85930  Biso   1.000  H
  C20      1.0000 0.39985  0.45683  0.82162  Biso   1.000  C
  S2       1.0000 0.32138  0.70203  0.76281  Biso   1.000  S
  H19      1.0000 0.28403  0.64925  0.65602  Biso   1.000  H
  H20      1.0000 0.26812  0.57754  0.73650  Biso   1.000  H
  O5       1.0000 0.91294  0.14264  0.48709  Biso   1.000  O
  H21      1.0000 0.93199  0.20327  0.37667  Biso   1.000  H
  H22      1.0000 0.04101  0.14526  0.41560  Biso   1.000  H
  C21      1.0000 0.55365  0.30342  0.69751  Biso   1.000  C
  H23      1.0000 0.44075  0.40401  0.85263  Biso   1.000  H
  H24      1.0000 0.37891  0.49594  0.85418  Biso   1.000  H
  H25      1.0000 0.33328  0.44324  0.80180  Biso   1.000  H
  C22      1.0000 0.18351  0.70415  0.81293  Biso   1.000  C
  C23      1.0000 0.85117  0.08328  0.47292  Biso   1.000  C
  C24      1.0000 0.54870  0.21805  0.67733  Biso   1.000  C
  H26      1.0000 0.59789  0.34093  0.65733  Biso   1.000  H
  H27      1.0000 0.47835  0.33355  0.69941  Biso   1.000  H
  C25      1.0000 0.16171  0.61581  0.86793  Biso   1.000  C
  H28      1.0000 0.12558  0.72321  0.77322  Biso   1.000  H
  H29      1.0000 0.17801  0.74655  0.84370  Biso   1.000  H
  C26      1.0000 0.73038  0.09044  0.50292  Biso   1.000  C
  H30      1.0000 0.85152  0.09023  0.41602  Biso   1.000  H
  H31      1.0000 0.88732  0.02504  0.49780  Biso   1.000  H
  C27      1.0000 0.45443  0.17277  0.69947  Biso   1.000  C
  C28      1.0000 0.64040  0.18335  0.63822  Biso   1.000  C
  C29      1.0000 0.09013  0.56563  0.84531  Biso   1.000  C
  C30      1.0000 0.21288  0.58708  0.94263  Biso   1.000  C
  O6       1.0000 0.73097  0.06605  0.58542  Biso   1.000  O
  H32      1.0000 0.68828  0.05246  0.48411  Biso   1.000  H
  H33      1.0000 0.69503  0.15006  0.48352  Biso   1.000  H
  C31      1.0000 0.45005  0.09481  0.67912  Biso   1.000  C
  C32      1.0000 0.35649  0.20699  0.74632  Biso   1.000  C
  C33      1.0000 0.63275  0.10507  0.61870  Biso   1.000  C
  C34      1.0000 0.74891  0.22572  0.61947  Biso   1.000  C
  C35      1.0000 0.07310  0.48290  0.89668  Biso   1.000  C
  C36      1.0000 0.02521  0.59813  0.76852  Biso   1.000  C
  C37      1.0000 0.19555  0.50441  0.99150  Biso   1.000  C
  C38      1.0000 0.28541  0.64183  0.97061  Biso   1.000  C
  C39      1.0000 0.34810  0.04612  0.69941  Biso   1.000  C
  C40      1.0000 0.54116  0.06021  0.63691  Biso   1.000  C
  H34      1.0000 0.29957  0.16801  0.75620  Biso   1.000  H
  H35      1.0000 0.38280  0.21062  0.79602  Biso   1.000  H
  H36      1.0000 0.32533  0.26401  0.71602  Biso   1.000  H
  H37      1.0000 0.80128  0.19244  0.59251  Biso   1.000  H
  H38      1.0000 0.73287  0.28423  0.58608  Biso   1.000  H
  H39      1.0000 0.78074  0.22730  0.66822  Biso   1.000  H
  C41      1.0000 0.99612  0.42741  0.87352  Biso   1.000  C
  C42      1.0000 0.12835  0.45133  0.96930  Biso   1.000  C
  H40      1.0000 0.07718  0.61060  0.72412  Biso   1.000  H
  H41      1.0000 0.98108  0.55406  0.76358  Biso   1.000  H
  H42      1.0000 0.97643  0.65035  0.76930  Biso   1.000  H
  O7       1.0000 0.24164  0.47793  0.06644  Biso   1.000  O
  H43      1.0000 0.28868  0.69642  0.93090  Biso   1.000  H
  H44      1.0000 0.36000  0.61149  0.97977  Biso   1.000  H
  H45      1.0000 0.25412  0.65267  0.01930  Biso   1.000  H
  S3       1.0000 0.24379  0.09137  0.62310  Biso   1.000  S
  H46      1.0000 0.31641  0.05084  0.75049  Biso   1.000  H
  H47      1.0000 0.36969  0.98470  0.70310  Biso   1.000  H
  C43      1.0000 0.54084  0.97472  0.61650  Biso   1.000  C
  S4       1.0000 0.07695  0.35622  0.81965  Biso   1.000  S
  H48      1.0000 0.96115  0.39232  0.92079  Biso   1.000  H
  H49      1.0000 0.93726  0.46440  0.84013  Biso   1.000  H
  C44      1.0000 0.11385  0.36254  0.02394  Biso   1.000  C
  C45      1.0000 0.34787  0.42389  0.07239  Biso   1.000  C
  C46      1.0000 0.11484  0.05721  0.67590  Biso   1.000  C
  H50      1.0000 0.47077  0.95180  0.63388  Biso   1.000  H
  H51      1.0000 0.55009  0.98412  0.56001  Biso   1.000  H
  H52      1.0000 0.60187  0.93389  0.64269  Biso   1.000  H
  C47      1.0000 0.97303  0.28335  0.82001  Biso   1.000  C
  H53      1.0000 0.06453  0.33447  0.00013  Biso   1.000  H
  H54      1.0000 0.18575  0.32775  0.03239  Biso   1.000  H
  H55      1.0000 0.08184  0.36865  0.07394  Biso   1.000  H
  H56      1.0000 0.34955  0.38554  0.03793  Biso   1.000  H
  H57      1.0000 0.40866  0.46006  0.05591  Biso   1.000  H
  C48      1.0000 0.36246  0.37097  0.15692  Biso   1.000  C
  C49      1.0000 0.09236  0.08244  0.75168  Biso   1.000  C
  H58      1.0000 0.05185  0.08251  0.64102  Biso   1.000  H
  H59      1.0000 0.11844  0.99423  0.68739  Biso   1.000  H
  C50      1.0000 0.02796  0.19313  0.82072  Biso   1.000  C
  H60      1.0000 0.92729  0.30684  0.77322  Biso   1.000  H
  H61      1.0000 0.92386  0.27971  0.86662  Biso   1.000  H
  O8       1.0000 0.29393  0.30189  0.17180  Biso   1.000  O
  H62      1.0000 0.34024  0.40735  0.19251  Biso   1.000  H
  H63      1.0000 0.44073  0.34744  0.16603  Biso   1.000  H
  C51      1.0000 0.04988  0.16911  0.75019  Biso   1.000  C
  C52      1.0000 0.11410  0.02182  0.82447  Biso   1.000  C
  C53      1.0000 0.05615  0.13402  0.89418  Biso   1.000  C
  C54      1.0000 0.29858  0.24785  0.25269  Biso   1.000  C
  C55      1.0000 0.03296  0.23695  0.66983  Biso   1.000  C
  C56      1.0000 0.10048  0.04892  0.89418  Biso   1.000  C
  C57      1.0000 0.15321  0.92589  0.83233  Biso   1.000  C
  C58      1.0000 0.03999  0.15871  0.97132  Biso   1.000  C
  C59      1.0000 0.21584  0.18423  0.26359  Biso   1.000  C
  H64      1.0000 0.37374  0.21725  0.26359  Biso   1.000  H
  H65      1.0000 0.28095  0.28376  0.28924  Biso   1.000  H
  H66      1.0000 0.05190  0.20922  0.62781  Biso   1.000  H
  H67      1.0000 0.08064  0.28183  0.66548  Biso   1.000  H
  H68      1.0000 0.95580  0.26236  0.66560  Biso   1.000  H
  O9       1.0000 0.12374  0.98955  0.96721  Biso   1.000  O
  H69      1.0000 0.15881  0.91593  0.78049  Biso   1.000  H
  H70      1.0000 0.22565  0.91058  0.85650  Biso   1.000  H
  H71      1.0000 0.10013  0.89063  0.86477  Biso   1.000  H
  H72      1.0000 0.00905  0.21889  0.96102  Biso   1.000  H
  H73      1.0000 0.11122  0.15039  0.99650  Biso   1.000  H
  H74      1.0000 0.98930  0.12267  0.00573  Biso   1.000  H
  O10      1.0000 0.24969  0.12028  0.22341  Biso   1.000  O
  H75      1.0000 0.14355  0.21497  0.24400  Biso   1.000  H
  H76      1.0000 0.20655  0.15613  0.31990  Biso   1.000  H
  C60      1.0000 0.23648  0.97916  0.99049  Biso   1.000  C
  C61      1.0000 0.16892  0.06104  0.23162  Biso   1.000  C
  H77      1.0000 0.26686  0.03479  0.97221  Biso   1.000  H
  H78      1.0000 0.28105  0.93806  0.96608  Biso   1.000  H
  C62      1.0000 0.24408  0.94702  0.07811  Biso   1.000  C
  C63      1.0000 0.21106  0.98728  0.19841  Biso   1.000  C
  H79      1.0000 0.14969  0.03850  0.28763  Biso   1.000  H
  H80      1.0000 0.10095  0.09162  0.20454  Biso   1.000  H
  H81      1.0000 0.32075  0.92212  0.09222  Biso   1.000  H
  H82      1.0000 0.19531  0.90149  0.09793  Biso   1.000  H
  O11      1.0000 0.21212  0.01519  0.11382  Biso   1.000  O
  H83      1.0000 0.16313  0.94085  0.21704  Biso   1.000  H
  H84      1.0000 0.28664  0.96428  0.21674  Biso   1.000  H
  C64      1.0000 0.38391  0.43897  0.50852  Biso   1.000  C
  H85      1.0000 0.40528  0.36233  0.54030  Biso   1.000  H
  C65      1.0000 0.29295  0.44098  0.55899  Biso   1.000  C
  C66      1.0000 0.34438  0.40448  0.51388  Biso   1.000  C
  H86      1.0000 0.36689  0.46252  0.50483  Biso   1.000  H
  O12      1.0000 0.17648  0.47773  0.54013  Biso   1.000  O
  H87      1.0000 0.26922  0.38354  0.61667  Biso   1.000  H
  O13      1.0000 0.22086  0.52226  0.52703  Biso   1.000  O
  O14      1.0000 0.32342  0.38928  0.43971  Biso   1.000  O
  C67      1.0000 0.24927  0.39718  0.56120  Biso   1.000  C
  C68      1.0000 0.13590  0.52797  0.57102  Biso   1.000  C
  C69      1.0000 0.12196  0.52312  0.58602  Biso   1.000  C
  H88      1.0000 0.19807  0.55617  0.58150  Biso   1.000  H
  C70      1.0000 0.39056  0.42514  0.37548  Biso   1.000  C
  H89      1.0000 0.21074  0.35018  0.55429  Biso   1.000  H
  C71      1.0000 0.05033  0.59467  0.54852  Biso   1.000  C
  H90      1.0000 0.11114  0.49353  0.62263  Biso   1.000  H
  C72      1.0000 0.49788  0.38348  0.36691  Biso   1.000  C
  C73      1.0000 0.34618  0.49887  0.32012  Biso   1.000  C
  O15      1.0000 0.07733  0.67006  0.56822  Biso   1.000  O
  H91      1.0000 0.03981  0.60804  0.49161  Biso   1.000  H
  H92      1.0000 0.98063  0.57708  0.57548  Biso   1.000  H
  C74      1.0000 0.56599  0.42238  0.30179  Biso   1.000  C
  C75      1.0000 0.53737  0.29485  0.42352  Biso   1.000  C
  C76      1.0000 0.41507  0.53624  0.25482  Biso   1.000  C
  C77      1.0000 0.22600  0.53688  0.33018  Biso   1.000  C
  C78      1.0000 0.98670  0.73925  0.55721  Biso   1.000  C
  C79      1.0000 0.52686  0.50000  0.24750  Biso   1.000  C
  C80      1.0000 0.68409  0.37879  0.29209  Biso   1.000  C
  H93      1.0000 0.61331  0.27616  0.40941  Biso   1.000  H
  H94      1.0000 0.48921  0.25288  0.41959  Biso   1.000  H
  H95      1.0000 0.53467  0.29978  0.47709  Biso   1.000  H
  C81      1.0000 0.36473  0.61568  0.19191  Biso   1.000  C
  H96      1.0000 0.20847  0.58865  0.28750  Biso   1.000  H
  H97      1.0000 0.21720  0.55137  0.38012  Biso   1.000  H
  H98      1.0000 0.17627  0.49478  0.32941  Biso   1.000  H
  C82      1.0000 0.02381  0.81534  0.57542  Biso   1.000  C
  H99      1.0000 0.92363  0.71973  0.59191  Biso   1.000  H
  H100     1.0000 0.96218  0.75526  0.50263  Biso   1.000  H
  C83      1.0000 0.60010  0.54310  0.17840  Biso   1.000  C
  S5       1.0000 0.67850  0.29784  0.23721  Biso   1.000  S
  H101     1.0000 0.71592  0.35068  0.34399  Biso   1.000  H
  H102     1.0000 0.73174  0.42239  0.26352  Biso   1.000  H
  S6       1.0000 0.38160  0.72148  0.20643  Biso   1.000  S
  H103     1.0000 0.28481  0.61205  0.18953  Biso   1.000  H
  H104     1.0000 0.39855  0.61319  0.14072  Biso   1.000  H
  O16      1.0000 0.08702  0.85723  0.51292  Biso   1.000  O
  H105     1.0000 0.06788  0.79668  0.62328  Biso   1.000  H
  H106     1.0000 0.95895  0.85461  0.58441  Biso   1.000  H
  H107     1.0000 0.55911  0.59592  0.14738  Biso   1.000  H
  H108     1.0000 0.62096  0.50401  0.14578  Biso   1.000  H
  H109     1.0000 0.66667  0.55669  0.19822  Biso   1.000  H
  C84      1.0000 0.81636  0.29579  0.18709  Biso   1.000  C
  C85      1.0000 0.44622  0.69645  0.30250  Biso   1.000  C
  C86      1.0000 0.14870  0.91666  0.52709  Biso   1.000  C
  C87      1.0000 0.83815  0.38412  0.13208  Biso   1.000  C
  H110     1.0000 0.87430  0.27666  0.22679  Biso   1.000  H
  H111     1.0000 0.82194  0.25338  0.15631  Biso   1.000  H
  C88      1.0000 0.45125  0.78189  0.32268  Biso   1.000  C
  H112     1.0000 0.40206  0.65901  0.34268  Biso   1.000  H
  H113     1.0000 0.52152  0.66639  0.30060  Biso   1.000  H
  C89      1.0000 0.26950  0.90943  0.49709  Biso   1.000  C
  H114     1.0000 0.14844  0.90964  0.58400  Biso   1.000  H
  H115     1.0000 0.11264  0.97483  0.50221  Biso   1.000  H
  C90      1.0000 0.90974  0.43430  0.15470  Biso   1.000  C
  C91      1.0000 0.78699  0.41279  0.05738  Biso   1.000  C
  C92      1.0000 0.54544  0.82718  0.30048  Biso   1.000  C
  C93      1.0000 0.35955  0.81659  0.36179  Biso   1.000  C
  O17      1.0000 0.26889  0.93388  0.41459  Biso   1.000  O
  H116     1.0000 0.31159  0.94748  0.51590  Biso   1.000  H
  H117     1.0000 0.30492  0.84988  0.51649  Biso   1.000  H
  C94      1.0000 0.92678  0.51699  0.10328  Biso   1.000  C
  C95      1.0000 0.97466  0.40181  0.23149  Biso   1.000  C
  C96      1.0000 0.80441  0.49547  0.00851  Biso   1.000  C
  C97      1.0000 0.71445  0.35811  0.02941  Biso   1.000  C
  C98      1.0000 0.54982  0.90506  0.32090  Biso   1.000  C
  C99      1.0000 0.64347  0.79288  0.25369  Biso   1.000  C
  C100     1.0000 0.36712  0.89486  0.38131  Biso   1.000  C
  C101     1.0000 0.25105  0.77417  0.38048  Biso   1.000  C
  C102     1.0000 0.87160  0.54860  0.03071  Biso   1.000  C
  C103     1.0000 0.00375  0.57246  0.12649  Biso   1.000  C
  H118     1.0000 0.92269  0.38927  0.27590  Biso   1.000  H
  H119     1.0000 0.01887  0.44589  0.23637  Biso   1.000  H
  H120     1.0000 0.02344  0.34958  0.23072  Biso   1.000  H
  O18      1.0000 0.75824  0.52194  0.93357  Biso   1.000  O
  H121     1.0000 0.71118  0.30351  0.06911  Biso   1.000  H
  H122     1.0000 0.63988  0.38840  0.02018  Biso   1.000  H
  H123     1.0000 0.74575  0.34720  0.98071  Biso   1.000  H
  C104     1.0000 0.65186  0.95375  0.30060  Biso   1.000  C
  C105     1.0000 0.45871  0.93966  0.36310  Biso   1.000  C
  H124     1.0000 0.70031  0.83186  0.24381  Biso   1.000  H
  H125     1.0000 0.61716  0.78926  0.20399  Biso   1.000  H
  H126     1.0000 0.67454  0.73586  0.28399  Biso   1.000  H
  H127     1.0000 0.19859  0.80744  0.40751  Biso   1.000  H
  H128     1.0000 0.26701  0.71566  0.41387  Biso   1.000  H
  H129     1.0000 0.21913  0.77257  0.33179  Biso   1.000  H
  C106     1.0000 0.88603  0.63733  0.97607  Biso   1.000  C
  S7       1.0000 0.92293  0.64365  0.18036  Biso   1.000  S
  H130     1.0000 0.03872  0.60761  0.07923  Biso   1.000  H
  H131     1.0000 0.06261  0.53547  0.15988  Biso   1.000  H
  C107     1.0000 0.65208  0.57604  0.92762  Biso   1.000  C
  S8       1.0000 0.75608  0.90857  0.37691  Biso   1.000  S
  H132     1.0000 0.68354  0.94909  0.24953  Biso   1.000  H
  H133     1.0000 0.63027  0.01517  0.29691  Biso   1.000  H
  C108     1.0000 0.45903  0.02522  0.38352  Biso   1.000  C
  H134     1.0000 0.93534  0.66546  0.99988  Biso   1.000  H
  H135     1.0000 0.81413  0.67212  0.96762  Biso   1.000  H
  H136     1.0000 0.91803  0.63122  0.92607  Biso   1.000  H
  C109     1.0000 0.02683  0.71659  0.18000  Biso   1.000  C
  H137     1.0000 0.65033  0.61433  0.96208  Biso   1.000  H
  H138     1.0000 0.59122  0.53981  0.94411  Biso   1.000  H
  C110     1.0000 0.63740  0.62896  0.84309  Biso   1.000  C
  C111     1.0000 0.88503  0.94266  0.32411  Biso   1.000  C
  H139     1.0000 0.52911  0.04809  0.36608  Biso   1.000  H
  H140     1.0000 0.44986  0.01581  0.44001  Biso   1.000  H
  H141     1.0000 0.39801  0.06598  0.35733  Biso   1.000  H
  C112     1.0000 0.97199  0.80680  0.17929  Biso   1.000  C
  H142     1.0000 0.07266  0.69309  0.22679  Biso   1.000  H
  H143     1.0000 0.07600  0.72022  0.13339  Biso   1.000  H
  O19      1.0000 0.70593  0.69805  0.82821  Biso   1.000  O
  H144     1.0000 0.65963  0.59258  0.80750  Biso   1.000  H
  H145     1.0000 0.55914  0.65243  0.83399  Biso   1.000  H
  C113     1.0000 0.90750  0.91751  0.24828  Biso   1.000  C
  H146     1.0000 0.94802  0.91736  0.35899  Biso   1.000  H
  H147     1.0000 0.88142  0.00571  0.31262  Biso   1.000  H
  C114     1.0000 0.94373  0.86587  0.10578  Biso   1.000  C
  C115     1.0000 0.95008  0.83076  0.24982  Biso   1.000  C
  C116     1.0000 0.70136  0.75208  0.74732  Biso   1.000  C
  C117     1.0000 0.88586  0.97807  0.17548  Biso   1.000  C
  C118     1.0000 0.89948  0.95097  0.10578  Biso   1.000  C
  C119     1.0000 0.95996  0.84123  0.02869  Biso   1.000  C
  C120     1.0000 0.96699  0.76298  0.33018  Biso   1.000  C
  H148     1.0000 0.62613  0.78264  0.73637  Biso   1.000  H
  H149     1.0000 0.71891  0.71618  0.71077  Biso   1.000  H
  C121     1.0000 0.78404  0.81566  0.73637  Biso   1.000  C
  C122     1.0000 0.84665  0.07404  0.16768  Biso   1.000  C
  O20      1.0000 0.87614  0.01032  0.03280  Biso   1.000  O
  H150     1.0000 0.99082  0.78099  0.03899  Biso   1.000  H
  H151     1.0000 0.88865  0.84948  0.00351  Biso   1.000  H
  H152     1.0000 0.01057  0.87726  0.99429  Biso   1.000  H
  H153     1.0000 0.94806  0.79066  0.37221  Biso   1.000  H
  H154     1.0000 0.91923  0.71804  0.33453  Biso   1.000  H
  H155     1.0000 0.04415  0.73757  0.33441  Biso   1.000  H
  O21      1.0000 0.75026  0.87965  0.77660  Biso   1.000  O
  H156     1.0000 0.85632  0.78497  0.75601  Biso   1.000  H
  H157     1.0000 0.79332  0.84374  0.68012  Biso   1.000  H
  H158     1.0000 0.84105  0.08401  0.21953  Biso   1.000  H
  H159     1.0000 0.77423  0.08929  0.14351  Biso   1.000  H
  H160     1.0000 0.89974  0.10932  0.13518  Biso   1.000  H
  C123     1.0000 0.76348  0.02071  0.00952  Biso   1.000  C
  C124     1.0000 0.83104  0.93883  0.76839  Biso   1.000  C
  H161     1.0000 0.73302  0.96508  0.02780  Biso   1.000  H
  C125     1.0000 0.75587  0.05292  0.92190  Biso   1.000  C
  H162     1.0000 0.71882  0.06181  0.03393  Biso   1.000  H
  H163     1.0000 0.85019  0.96137  0.71238  Biso   1.000  H
  H164     1.0000 0.89892  0.90825  0.79547  Biso   1.000  H
  C126     1.0000 0.78890  0.01259  0.80160  Biso   1.000  C
  O22      1.0000 0.78782  0.98475  0.88619  Biso   1.000  O
  H165     1.0000 0.67912  0.07781  0.90780  Biso   1.000  H
  H166     1.0000 0.80456  0.09844  0.90208  Biso   1.000  H
  H167     1.0000 0.83675  0.05902  0.78297  Biso   1.000  H
  H168     1.0000 0.71323  0.03566  0.78327  Biso   1.000  H
