data_image0
_cell_length_a       16.457
_cell_length_b       19.459
_cell_length_c       12.457
_cell_angle_alpha    93.71
_cell_angle_beta     96.47
_cell_angle_gamma    102.01

_symmetry_space_group_name_H-M    "P 1"
_symmetry_int_tables_number       1

loop_
  _symmetry_equiv_pos_as_xyz
  'x, y, z'

loop_
  _atom_site_label
  _atom_site_occupancy
  _atom_site_fract_x
  _atom_site_fract_y
  _atom_site_fract_z
  _atom_site_thermal_displace_type
  _atom_site_B_iso_or_equiv
  _atom_site_type_symbol
  C1       1.0000 0.41516  0.76348  0.59262  Biso   1.000  C
  C2       1.0000 0.39696  0.74002  0.48261  Biso   1.000  C
  C3       1.0000 0.49155  0.75919  0.64997  Biso   1.000  C
  O1       1.0000 0.36562  0.80101  0.64097  Biso   1.000  O
  C4       1.0000 0.45494  0.71211  0.42996  Biso   1.000  C
  O2       1.0000 0.32066  0.74241  0.42964  Biso   1.000  O
  C5       1.0000 0.54953  0.73129  0.59741  Biso   1.000  C
  O3       1.0000 0.50494  0.77519  0.76087  Biso   1.000  O
  C6       1.0000 0.30680  0.76190  0.68608  Biso   1.000  C
  C7       1.0000 0.43502  0.68601  0.31160  Biso   1.000  C
  C8       1.0000 0.53120  0.70778  0.48740  Biso   1.000  C
  C9       1.0000 0.31644  0.79749  0.36230  Biso   1.000  C
  C10      1.0000 0.63415  0.73119  0.66076  Biso   1.000  C
  C11      1.0000 0.55201  0.84048  0.79527  Biso   1.000  C
  C12      1.0000 0.26006  0.80247  0.75122  Biso   1.000  C
  H1       1.0000 0.26304  0.73298  0.61898  Biso   1.000  H
  H2       1.0000 0.33100  0.72501  0.73499  Biso   1.000  H
  C13      1.0000 0.46674  0.61959  0.28029  Biso   1.000  C
  C14      1.0000 0.45954  0.74891  0.24313  Biso   1.000  C
  H3       1.0000 0.36801  0.66500  0.29400  Biso   1.000  H
  H4       1.0000 0.57606  0.68601  0.44700  Biso   1.000  H
  O4       1.0000 0.32242  0.77461  0.25408  Biso   1.000  O
  H5       1.0000 0.36606  0.84301  0.39102  Biso   1.000  H
  H6       1.0000 0.25601  0.81100  0.36498  Biso   1.000  H
  C15      1.0000 0.69030  0.80347  0.65606  Biso   1.000  C
  H7       1.0000 0.62400  0.72097  0.74302  Biso   1.000  H
  C16      1.0000 0.67341  0.67021  0.62093  Biso   1.000  C
  O5       1.0000 0.63784  0.84361  0.81717  Biso   1.000  O
  H8       1.0000 0.53006  0.86099  0.86698  Biso   1.000  H
  H9       1.0000 0.54302  0.87398  0.72996  Biso   1.000  H
  C17      1.0000 0.23223  0.86270  0.72218  Biso   1.000  C
  H10      1.0000 0.29903  0.81498  0.82796  Biso   1.000  H
  H11      1.0000 0.20204  0.76700  0.76103  Biso   1.000  H
  C18      1.0000 0.43012  0.58528  0.16720  Biso   1.000  C
  H12      1.0000 0.45105  0.58101  0.33797  Biso   1.000  H
  H13      1.0000 0.53401  0.63399  0.28296  Biso   1.000  H
  C19      1.0000 0.53846  0.76643  0.20882  Biso   1.000  C
  C20      1.0000 0.40192  0.79131  0.22180  Biso   1.000  C
  C21      1.0000 0.74253  0.81808  0.57591  Biso   1.000  C
  C22      1.0000 0.68333  0.85737  0.73167  Biso   1.000  C
  H14      1.0000 0.67600  0.67197  0.53502  Biso   1.000  H
  H15      1.0000 0.73604  0.67800  0.66304  Biso   1.000  H
  C23      1.0000 0.62281  0.59859  0.63602  Biso   1.000  C
  O6       1.0000 0.28312  0.91187  0.68113  Biso   1.000  O
  H16      1.0000 0.22101  0.88797  0.79697  Biso   1.000  H
  H17      1.0000 0.17404  0.84700  0.66798  Biso   1.000  H
  C24      1.0000 0.44515  0.51512  0.13832  Biso   1.000  C
  H18      1.0000 0.36305  0.58102  0.15901  Biso   1.000  H
  H19      1.0000 0.45704  0.62000  0.10903  Biso   1.000  H
  C25      1.0000 0.55982  0.82631  0.15333  Biso   1.000  C
  H20      1.0000 0.58303  0.73402  0.22496  Biso   1.000  H
  C26      1.0000 0.42323  0.85119  0.16639  Biso   1.000  C
  C27      1.0000 0.78782  0.88669  0.57128  Biso   1.000  C
  H21      1.0000 0.74806  0.77599  0.51701  Biso   1.000  H
  C28      1.0000 0.72866  0.92588  0.72712  Biso   1.000  C
  H22      1.0000 0.62703  0.59600  0.72299  Biso   1.000  H
  H23      1.0000 0.55804  0.59502  0.60300  Biso   1.000  H
  C29      1.0000 0.65164  0.53672  0.59262  Biso   1.000  C
  C30      1.0000 0.26846  0.97959  0.69078  Biso   1.000  C
  C31      1.0000 0.37894  0.46533  0.07983  Biso   1.000  C
  C32      1.0000 0.52063  0.49617  0.17166  Biso   1.000  C
  C33      1.0000 0.50223  0.86829  0.13207  Biso   1.000  C
  C34      1.0000 0.64716  0.85159  0.12331  Biso   1.000  C
  O7       1.0000 0.37225  0.89751  0.16249  Biso   1.000  O
  C35      1.0000 0.84345  0.90610  0.48359  Biso   1.000  C
  C36      1.0000 0.78086  0.94059  0.64689  Biso   1.000  C
  O8       1.0000 0.70394  0.97940  0.78732  Biso   1.000  O
  C37      1.0000 0.61784  0.50299  0.49024  Biso   1.000  C
  C38      1.0000 0.71693  0.51461  0.65249  Biso   1.000  C
  C39      1.0000 0.21871  0.00201  0.60771  Biso   1.000  C
  C40      1.0000 0.31052  0.02737  0.77750  Biso   1.000  C
  C41      1.0000 0.38811  0.39670  0.05476  Biso   1.000  C
  H24      1.0000 0.32001  0.47999  0.05403  Biso   1.000  H
  C42      1.0000 0.52992  0.42750  0.14667  Biso   1.000  C
  H25      1.0000 0.57203  0.53500  0.21701  Biso   1.000  H
  O9       1.0000 0.51957  0.92591  0.07301  Biso   1.000  O
  C43      1.0000 0.69715  0.90241  0.21871  Biso   1.000  C
  H26      1.0000 0.64205  0.87800  0.04997  Biso   1.000  H
  C44      1.0000 0.68961  0.79048  0.08843  Biso   1.000  C
  C45      1.0000 0.31371  0.88782  0.07829  Biso   1.000  C
  C46      1.0000 0.78892  0.92782  0.38859  Biso   1.000  C
  H27      1.0000 0.89506  0.95101  0.51101  Biso   1.000  H
  C47      1.0000 0.88776  0.84672  0.45479  Biso   1.000  C
  O10      1.0000 0.82433  0.00950  0.64292  Biso   1.000  O
  C48      1.0000 0.75487  0.00798  0.87380  Biso   1.000  C
  C49      1.0000 0.64934  0.44720  0.44773  Biso   1.000  C
  H28      1.0000 0.56704  0.52001  0.44400  Biso   1.000  H
  C50      1.0000 0.74830  0.45877  0.60998  Biso   1.000  C
  H29      1.0000 0.74303  0.54100  0.73199  Biso   1.000  H
  O11      1.0000 0.17164  0.95092  0.52812  Biso   1.000  O
  C51      1.0000 0.21113  0.07221  0.61136  Biso   1.000  C
  O12      1.0000 0.34922  0.99979  0.86406  Biso   1.000  O
  C52      1.0000 0.30290  0.09757  0.78132  Biso   1.000  C
  C53      1.0000 0.46362  0.37782  0.08826  Biso   1.000  C
  H30      1.0000 0.33704  0.35802  0.00998  Biso   1.000  H
  H31      1.0000 0.58802  0.41298  0.17304  Biso   1.000  H
  C54      1.0000 0.56387  0.99022  0.13613  Biso   1.000  C
  C55      1.0000 0.74684  0.87999  0.30179  Biso   1.000  C
  C56      1.0000 0.68953  0.97261  0.22253  Biso   1.000  C
  H32      1.0000 0.70106  0.76201  0.15803  Biso   1.000  H
  H33      1.0000 0.64800  0.75500  0.02499  Biso   1.000  H
  C57      1.0000 0.77250  0.81738  0.04657  Biso   1.000  C
  C58      1.0000 0.24951  0.92542  0.07707  Biso   1.000  C
  H34      1.0000 0.28303  0.83300  0.06904  Biso   1.000  H
  H35      1.0000 0.34605  0.90102  0.00900  Biso   1.000  H
  C59      1.0000 0.78136  0.99802  0.39232  Biso   1.000  C
  H36      1.0000 0.84403  0.80499  0.40303  Biso   1.000  H
  H37      1.0000 0.91004  0.82597  0.52796  Biso   1.000  H
  C60      1.0000 0.96224  0.87779  0.39557  Biso   1.000  C
  C61      1.0000 0.79273  0.05297  0.57023  Biso   1.000  C
  H38      1.0000 0.74206  0.97198  0.93497  Biso   1.000  H
  H39      1.0000 0.81802  0.01098  0.85603  Biso   1.000  H
  C62      1.0000 0.75046  0.07456  0.92288  Biso   1.000  C
  C63      1.0000 0.71451  0.42510  0.50760  Biso   1.000  C
  H40      1.0000 0.62303  0.42101  0.36798  Biso   1.000  H
  H41      1.0000 0.79902  0.44199  0.65598  Biso   1.000  H
  C64      1.0000 0.20732  0.94701  0.42980  Biso   1.000  C
  C65      1.0000 0.15659  0.09387  0.51636  Biso   1.000  C
  C66      1.0000 0.25320  0.11999  0.69816  Biso   1.000  C
  C67      1.0000 0.43618  0.00976  0.86390  Biso   1.000  C
  C68      1.0000 0.35289  0.14839  0.87672  Biso   1.000  C
  H42      1.0000 0.47103  0.32499  0.06904  Biso   1.000  H
  H43      1.0000 0.55107  0.98701  0.21904  Biso   1.000  H
  H44      1.0000 0.54200  0.03398  0.10400  Biso   1.000  H
  O13      1.0000 0.65082  0.00018  0.13588  Biso   1.000  O
  H45      1.0000 0.75301  0.82602  0.29903  Biso   1.000  H
  C69      1.0000 0.73158  0.02039  0.30917  Biso   1.000  C
  H46      1.0000 0.81501  0.85003  0.11098  Biso   1.000  H
  C70      1.0000 0.81306  0.76100  0.01079  Biso   1.000  C
  H47      1.0000 0.76208  0.84802  0.97996  Biso   1.000  H
  C71      1.0000 0.24511  0.99200  0.12623  Biso   1.000  C
  H48      1.0000 0.20002  0.89100  0.10903  Biso   1.000  H
  H49      1.0000 0.23208  0.92901  0.99197  Biso   1.000  H
  O14      1.0000 0.82842  0.04911  0.47190  Biso   1.000  O
  H50      1.0000 0.93902  0.89899  0.32296  Biso   1.000  H
  H51      1.0000 0.00503  0.91898  0.44797  Biso   1.000  H
  C72      1.0000 0.00934  0.82218  0.36303  Biso   1.000  C
  H52      1.0000 0.72499  0.03698  0.55303  Biso   1.000  H
  H53      1.0000 0.80998  0.10699  0.60600  Biso   1.000  H
  H54      1.0000 0.80003  0.10898  0.89100  Biso   1.000  H
  C73      1.0000 0.68627  0.11216  0.92166  Biso   1.000  C
  H55      1.0000 0.76797  0.07097  0.00806  Biso   1.000  H
  H56      1.0000 0.73898  0.38198  0.47499  Biso   1.000  H
  O15      1.0000 0.17572  0.99048  0.35711  Biso   1.000  O
  H57      1.0000 0.27506  0.96300  0.44700  Biso   1.000  H
  H58      1.0000 0.19006  0.89299  0.39402  Biso   1.000  H
  C74      1.0000 0.21222  0.11329  0.42867  Biso   1.000  C
  H59      1.0000 0.10499  0.04897  0.48902  Biso   1.000  H
  C75      1.0000 0.11228  0.15326  0.54516  Biso   1.000  C
  H60      1.0000 0.24697  0.17396  0.70100  Biso   1.000  H
  H61      1.0000 0.45805  0.96600  0.89603  Biso   1.000  H
  O16      1.0000 0.48048  0.07407  0.92702  Biso   1.000  O
  H62      1.0000 0.44898  0.01296  0.78099  Biso   1.000  H
  C76      1.0000 0.44023  0.17367  0.84670  Biso   1.000  C
  H63      1.0000 0.35799  0.12197  0.94998  Biso   1.000  H
  C77      1.0000 0.31044  0.20950  0.91160  Biso   1.000  C
  O17      1.0000 0.71693  0.08811  0.31890  Biso   1.000  O
  C78      1.0000 0.84783  0.72213  0.08672  Biso   1.000  C
  C79      1.0000 0.81104  0.74302  0.90013  Biso   1.000  C
  H64      1.0000 0.18203  0.98900  0.14400  Biso   1.000  H
  O18      1.0000 0.29610  0.02058  0.21271  Biso   1.000  O
  H65      1.0000 0.25798  0.02800  0.06498  Biso   1.000  H
  C80      1.0000 0.03821  0.78211  0.44173  Biso   1.000  C
  C81      1.0000 0.02581  0.81231  0.25627  Biso   1.000  C
  H66      1.0000 0.71702  0.16698  0.93099  Biso   1.000  H
  H67      1.0000 0.65400  0.09896  0.99102  Biso   1.000  H
  O19      1.0000 0.62779  0.10247  0.83754  Biso   1.000  O
  C82      1.0000 0.21919  0.05939  0.35314  Biso   1.000  C
  C83      1.0000 0.25752  0.18190  0.42412  Biso   1.000  C
  H68      1.0000 0.15602  0.19499  0.59700  Biso   1.000  H
  H69      1.0000 0.09000  0.17400  0.47199  Biso   1.000  H
  C84      1.0000 0.03781  0.12218  0.60438  Biso   1.000  C
  C85      1.0000 0.49781  0.13168  0.86788  Biso   1.000  C
  C86      1.0000 0.46160  0.23361  0.79121  Biso   1.000  C
  H70      1.0000 0.29899  0.23797  0.84200  Biso   1.000  H
  H71      1.0000 0.35198  0.24497  0.97496  Biso   1.000  H
  C87      1.0000 0.22748  0.18259  0.95338  Biso   1.000  C
  C88      1.0000 0.76781  0.13728  0.27777  Biso   1.000  C
  C89      1.0000 0.88074  0.66518  0.05200  Biso   1.000  C
  H72      1.0000 0.84903  0.73599  0.17199  Biso   1.000  H
  C90      1.0000 0.84404  0.68612  0.86549  Biso   1.000  C
  H73      1.0000 0.78403  0.77300  0.84099  Biso   1.000  H
  C91      1.0000 0.27138  0.07410  0.27290  Biso   1.000  C
  C92      1.0000 0.08367  0.73202  0.41382  Biso   1.000  C
  H74      1.0000 0.02505  0.79001  0.52399  Biso   1.000  H
  C93      1.0000 0.07121  0.76222  0.22837  Biso   1.000  C
  H75      1.0000 0.00305  0.84300  0.19502  Biso   1.000  H
  C94      1.0000 0.57681  0.14878  0.83356  Biso   1.000  C
  C95      1.0000 0.30968  0.19650  0.34389  Biso   1.000  C
  H76      1.0000 0.25199  0.22399  0.48302  Biso   1.000  H
  H77      1.0000 0.99501  0.08100  0.55198  Biso   1.000  H
  C96      1.0000 0.99071  0.17780  0.63699  Biso   1.000  C
  H78      1.0000 0.06102  0.10098  0.67699  Biso   1.000  H
  C97      1.0000 0.54051  0.25107  0.75690  Biso   1.000  C
  H79      1.0000 0.41701  0.26596  0.77499  Biso   1.000  H
  H80      1.0000 0.18498  0.15000  0.88897  Biso   1.000  H
  C98      1.0000 0.18698  0.23898  0.98916  Biso   1.000  C
  H81      1.0000 0.23798  0.15201  0.02007  Biso   1.000  H
  H82      1.0000 0.77903  0.11201  0.20298  Biso   1.000  H
  H83      1.0000 0.82600  0.15298  0.33196  Biso   1.000  H
  C99      1.0000 0.73999  0.19751  0.24881  Biso   1.000  C
  H84      1.0000 0.90799  0.63498  0.11098  Biso   1.000  H
  C100     1.0000 0.87884  0.64719  0.94127  Biso   1.000  C
  H85      1.0000 0.84202  0.67199  0.77999  Biso   1.000  H
  C101     1.0000 0.31671  0.14260  0.26828  Biso   1.000  C
  C102     1.0000 0.10015  0.72211  0.30722  Biso   1.000  C
  H86      1.0000 0.10604  0.70100  0.47499  Biso   1.000  H
  H87      1.0000 0.08404  0.75400  0.14603  Biso   1.000  H
  C103     1.0000 0.59813  0.20867  0.77823  Biso   1.000  C
  C104     1.0000 0.36589  0.26878  0.33918  Biso   1.000  C
  C105     1.0000 0.96184  0.21787  0.55830  Biso   1.000  C
  C106     1.0000 0.97423  0.18767  0.74367  Biso   1.000  C
  C107     1.0000 0.56503  0.31397  0.68843  Biso   1.000  C
  C108     1.0000 0.15223  0.27790  0.91331  Biso   1.000  C
  C109     1.0000 0.18900  0.25696  0.09981  Biso   1.000  C
  H88      1.0000 0.70101  0.18499  0.17199  Biso   1.000  H
  H89      1.0000 0.79801  0.23298  0.23899  Biso   1.000  H
  C110     1.0000 0.69318  0.23808  0.31387  Biso   1.000  C
  H90      1.0000 0.90405  0.60303  0.91401  Biso   1.000  H
  O20      1.0000 0.36220  0.15637  0.18277  Biso   1.000  O
  H91      1.0000 0.13501  0.68297  0.28597  Biso   1.000  H
  O21      1.0000 0.67762  0.22536  0.74586  Biso   1.000  O
  C111     1.0000 0.45052  0.26869  0.40262  Biso   1.000  C
  H92      1.0000 0.37605  0.27901  0.25700  Biso   1.000  H
  C112     1.0000 0.32664  0.32977  0.37910  Biso   1.000  C
  C113     1.0000 0.91640  0.26801  0.58621  Biso   1.000  C
  H93      1.0000 0.97499  0.20997  0.47596  Biso   1.000  H
  C114     1.0000 0.92879  0.23781  0.77158  Biso   1.000  C
  H94      1.0000 0.99700  0.15698  0.80500  Biso   1.000  H
  C115     1.0000 0.54510  0.28786  0.56999  Biso   1.000  C
  H95      1.0000 0.63204  0.33497  0.70603  Biso   1.000  H
  C116     1.0000 0.53330  0.38039  0.71966  Biso   1.000  C
  C117     1.0000 0.11931  0.33480  0.94803  Biso   1.000  C
  H96      1.0000 0.15101  0.26399  0.82796  Biso   1.000  H
  C118     1.0000 0.15601  0.31386  0.13453  Biso   1.000  C
  H97      1.0000 0.21602  0.22698  0.15903  Biso   1.000  H
  H98      1.0000 0.73701  0.26699  0.38096  Biso   1.000  H
  H99      1.0000 0.66900  0.27502  0.26504  Biso   1.000  H
  O22      1.0000 0.63442  0.19897  0.35898  Biso   1.000  O
  C119     1.0000 0.44803  0.15950  0.20468  Biso   1.000  C
  C120     1.0000 0.68361  0.20248  0.63772  Biso   1.000  C
  C121     1.0000 0.50849  0.24078  0.34997  Biso   1.000  C
  C122     1.0000 0.46885  0.29220  0.51263  Biso   1.000  C
  H100     1.0000 0.32399  0.32801  0.46501  Biso   1.000  H
  H101     1.0000 0.26401  0.32198  0.33699  Biso   1.000  H
  C123     1.0000 0.37724  0.40139  0.36401  Biso   1.000  C
  C124     1.0000 0.89990  0.27787  0.69281  Biso   1.000  C
  H102     1.0000 0.89400  0.29897  0.52496  Biso   1.000  H
  H103     1.0000 0.91601  0.24598  0.85400  Biso   1.000  H
  C125     1.0000 0.60310  0.26001  0.51742  Biso   1.000  C
  H104     1.0000 0.54899  0.41896  0.66198  Biso   1.000  H
  H105     1.0000 0.46603  0.36599  0.71698  Biso   1.000  H
  C126     1.0000 0.56992  0.41470  0.83283  Biso   1.000  C
  H106     1.0000 0.09199  0.36500  0.88897  Biso   1.000  H
  C127     1.0000 0.12121  0.35279  0.05876  Biso   1.000  C
  H107     1.0000 0.15803  0.32799  0.22004  Biso   1.000  H
  C128     1.0000 0.58489  0.23650  0.40741  Biso   1.000  C
  H108     1.0000 0.46998  0.13898  0.13296  Biso   1.000  H
  H109     1.0000 0.45702  0.12599  0.26998  Biso   1.000  H
  O23      1.0000 0.49510  0.22478  0.23908  Biso   1.000  O
  O24      1.0000 0.67939  0.25757  0.57039  Biso   1.000  O
  H110     1.0000 0.63399  0.15697  0.60901  Biso   1.000  H
  H111     1.0000 0.74403  0.18898  0.63497  Biso   1.000  H
  H112     1.0000 0.42399  0.31397  0.55303  Biso   1.000  H
  H113     1.0000 0.37301  0.40397  0.27696  Biso   1.000  H
  H114     1.0000 0.44202  0.40501  0.39703  Biso   1.000  H
  C129     1.0000 0.34842  0.46332  0.40741  Biso   1.000  C
  H115     1.0000 0.86503  0.31700  0.71398  Biso   1.000  H
  H116     1.0000 0.63700  0.41896  0.84102  Biso   1.000  H
  H117     1.0000 0.54301  0.37998  0.89100  Biso   1.000  H
  C130     1.0000 0.55489  0.48486  0.86171  Biso   1.000  C
  H118     1.0000 0.09601  0.39700  0.08602  Biso   1.000  H
  C131     1.0000 0.38221  0.49699  0.50979  Biso   1.000  C
  C132     1.0000 0.28311  0.48537  0.34746  Biso   1.000  C
  C133     1.0000 0.62112  0.53470  0.92020  Biso   1.000  C
  C134     1.0000 0.47941  0.50380  0.82829  Biso   1.000  C
  C135     1.0000 0.35071  0.55277  0.55230  Biso   1.000  C
  H119     1.0000 0.43302  0.48002  0.55603  Biso   1.000  H
  C136     1.0000 0.25174  0.54120  0.38997  Biso   1.000  C
  H120     1.0000 0.25702  0.45898  0.26804  Biso   1.000  H
  C137     1.0000 0.61193  0.60327  0.94519  Biso   1.000  C
  H121     1.0000 0.68004  0.51999  0.94600  Biso   1.000  H
  C138     1.0000 0.47012  0.57247  0.85327  Biso   1.000  C
  H122     1.0000 0.42802  0.46498  0.78302  Biso   1.000  H
  C139     1.0000 0.28553  0.57488  0.49243  Biso   1.000  C
  H123     1.0000 0.37701  0.57896  0.63196  Biso   1.000  H
  H124     1.0000 0.20102  0.55798  0.34397  Biso   1.000  H
  C140     1.0000 0.53644  0.62221  0.91168  Biso   1.000  C
  H125     1.0000 0.66300  0.64196  0.98997  Biso   1.000  H
  H126     1.0000 0.41203  0.58700  0.82699  Biso   1.000  H
  H127     1.0000 0.26100  0.61799  0.52496  Biso   1.000  H
  H128     1.0000 0.52901  0.67499  0.93099  Biso   1.000  H
  Ne1      1.0000 0.50002  0.99999  0.50000  Biso   1.000  Ne
  He1      1.0000 0.56680  0.97147  0.82368  Biso   1.000  He
  He2      1.0000 0.84164  0.17334  0.76076  Biso   1.000  He
  He3      1.0000 0.35801  0.21340  0.61192  Biso   1.000  He
  He4      1.0000 0.27808  0.86309  0.51256  Biso   1.000  He
  He5      1.0000 0.71451  0.13192  0.48794  Biso   1.000  He
  He6      1.0000 0.64098  0.78818  0.38895  Biso   1.000  He
  He7      1.0000 0.57259  0.10728  0.23174  Biso   1.000  He
  He8      1.0000 0.43374  0.02848  0.17853  Biso   1.000  He
  Ar1      1.0000 0.50002  0.99999  0.50000  Biso   1.000  Ar
