data_image0
_cell_length_a       11.876
_cell_length_b       12.101
_cell_length_c       12.245
_cell_angle_alpha    90.88
_cell_angle_beta     92.5
_cell_angle_gamma    103.13

_symmetry_space_group_name_H-M    "P 1"
_symmetry_int_tables_number       1

loop_
  _symmetry_equiv_pos_as_xyz
  'x, y, z'

loop_
  _atom_site_label
  _atom_site_occupancy
  _atom_site_fract_x
  _atom_site_fract_y
  _atom_site_fract_z
  _atom_site_thermal_displace_type
  _atom_site_B_iso_or_equiv
  _atom_site_type_symbol
  N1       1.0000 0.69603  0.40922  0.72858  Biso   1.000  N
  C1       1.0000 0.80629  0.40192  0.70340  Biso   1.000  C
  H1       1.0000 0.64842  0.41990  0.67478  Biso   1.000  H
  C2       1.0000 0.65538  0.40059  0.83341  Biso   1.000  C
  C3       1.0000 0.83051  0.42402  0.58516  Biso   1.000  C
  O1       1.0000 0.87591  0.39097  0.77249  Biso   1.000  O
  H2       1.0000 0.81695  0.32525  0.72081  Biso   1.000  H
  H3       1.0000 0.86319  0.45756  0.74976  Biso   1.000  H
  C4       1.0000 0.53501  0.41999  0.83546  Biso   1.000  C
  H4       1.0000 0.70800  0.45724  0.88248  Biso   1.000  H
  H5       1.0000 0.65562  0.32420  0.86105  Biso   1.000  H
  O2       1.0000 0.70942  0.37536  0.90480  Biso   1.000  O
  C5       1.0000 0.85566  0.53881  0.54991  Biso   1.000  C
  C6       1.0000 0.82318  0.33718  0.51148  Biso   1.000  C
  C7       1.0000 0.43811  0.33085  0.80234  Biso   1.000  C
  C8       1.0000 0.51903  0.52528  0.86318  Biso   1.000  C
  C9       1.0000 0.86982  0.56156  0.43682  Biso   1.000  C
  C10      1.0000 0.86839  0.63114  0.62555  Biso   1.000  C
  C11      1.0000 0.84448  0.35947  0.40052  Biso   1.000  C
  O3       1.0000 0.79887  0.22939  0.55187  Biso   1.000  O
  C12      1.0000 0.32477  0.35322  0.79187  Biso   1.000  C
  C13      1.0000 0.44962  0.21873  0.77969  Biso   1.000  C
  C14      1.0000 0.40600  0.54434  0.86187  Biso   1.000  C
  O4       1.0000 0.61533  0.60677  0.89253  Biso   1.000  O
  C15      1.0000 0.88988  0.67607  0.40035  Biso   1.000  C
  C16      1.0000 0.86701  0.46765  0.36527  Biso   1.000  C
  C17      1.0000 0.89529  0.73916  0.59096  Biso   1.000  C
  H6       1.0000 0.85798  0.61696  0.70094  Biso   1.000  H
  H7       1.0000 0.84309  0.29846  0.35031  Biso   1.000  H
  C18      1.0000 0.76261  0.13428  0.47673  Biso   1.000  C
  C19      1.0000 0.22867  0.26672  0.74976  Biso   1.000  C
  C20      1.0000 0.31412  0.46166  0.82638  Biso   1.000  C
  C21      1.0000 0.35606  0.13532  0.74804  Biso   1.000  C
  H8       1.0000 0.52384  0.20187  0.78680  Biso   1.000  H
  H9       1.0000 0.39428  0.61559  0.88607  Biso   1.000  H
  C22      1.0000 0.60250  0.72030  0.91420  Biso   1.000  C
  C23      1.0000 0.88920  0.71140  0.28187  Biso   1.000  C
  C24      1.0000 0.90653  0.76177  0.47918  Biso   1.000  C
  H10      1.0000 0.88129  0.48098  0.29029  Biso   1.000  H
  H11      1.0000 0.90685  0.80047  0.64280  Biso   1.000  H
  H12      1.0000 0.70049  0.14663  0.42497  Biso   1.000  H
  H13      1.0000 0.82851  0.12312  0.43429  Biso   1.000  H
  C25      1.0000 0.71860  0.03193  0.54542  Biso   1.000  C
  C26      1.0000 0.11078  0.28852  0.71812  Biso   1.000  C
  C27      1.0000 0.24742  0.15957  0.73161  Biso   1.000  C
  H14      1.0000 0.23929  0.47740  0.82466  Biso   1.000  H
  H15      1.0000 0.36478  0.05984  0.73701  Biso   1.000  H
  H16      1.0000 0.54774  0.72043  0.97275  Biso   1.000  H
  H17      1.0000 0.57200  0.75100  0.84748  Biso   1.000  H
  C28      1.0000 0.72017  0.79192  0.94904  Biso   1.000  C
  C29      1.0000 0.77131  0.73320  0.25022  Biso   1.000  C
  C30      1.0000 0.98041  0.82141  0.27402  Biso   1.000  C
  H18      1.0000 0.90678  0.65094  0.23321  Biso   1.000  H
  O5       1.0000 0.93246  0.87579  0.45588  Biso   1.000  O
  H19      1.0000 0.78400  0.01773  0.59170  Biso   1.000  H
  C31      1.0000 0.62251  0.04432  0.61795  Biso   1.000  C
  H20      1.0000 0.69040  0.96475  0.49619  Biso   1.000  H
  C32      1.0000 0.11009  0.32385  0.59955  Biso   1.000  C
  C33      1.0000 0.01957  0.17851  0.72597  Biso   1.000  C
  H21      1.0000 0.09318  0.34889  0.76677  Biso   1.000  H
  O6       1.0000 0.16081  0.06718  0.69481  Biso   1.000  O
  H22      1.0000 0.71220  0.86948  0.96785  Biso   1.000  H
  C34      1.0000 0.80808  0.79950  0.86506  Biso   1.000  C
  H23      1.0000 0.74857  0.76004  0.01609  Biso   1.000  H
  C35      1.0000 0.67521  0.64670  0.20811  Biso   1.000  C
  C36      1.0000 0.75256  0.84035  0.26837  Biso   1.000  C
  C37      1.0000 0.94478  0.90923  0.34606  Biso   1.000  C
  H24      1.0000 0.98473  0.84625  0.19740  Biso   1.000  H
  H25      1.0000 0.05740  0.81047  0.29928  Biso   1.000  H
  H26      1.0000 0.55851  0.06227  0.57232  Biso   1.000  H
  H27      1.0000 0.65178  0.10903  0.66995  Biso   1.000  H
  C38      1.0000 0.57596  0.93963  0.68156  Biso   1.000  C
  C39      1.0000 0.13016  0.43836  0.56316  Biso   1.000  C
  C40      1.0000 0.09353  0.23815  0.52080  Biso   1.000  C
  C41      1.0000 0.05518  0.09060  0.65384  Biso   1.000  C
  H28      1.0000 0.01531  0.15359  0.80259  Biso   1.000  H
  H29      1.0000 0.94258  0.18945  0.70070  Biso   1.000  H
  H30      1.0000 0.77781  0.82650  0.79629  Biso   1.000  H
  H31      1.0000 0.82099  0.72281  0.85018  Biso   1.000  H
  C42      1.0000 0.92319  0.87901  0.89965  Biso   1.000  C
  C43      1.0000 0.68586  0.53826  0.17360  Biso   1.000  C
  C44      1.0000 0.56187  0.66907  0.19756  Biso   1.000  C
  C45      1.0000 0.64392  0.86460  0.25186  Biso   1.000  C
  O7       1.0000 0.83917  0.93274  0.30517  Biso   1.000  O
  H32      1.0000 0.00625  0.98108  0.34508  Biso   1.000  H
  H33      1.0000 0.51677  0.95399  0.72956  Biso   1.000  H
  H34      1.0000 0.54177  0.87640  0.63070  Biso   1.000  H
  H35      1.0000 0.63921  0.92020  0.72580  Biso   1.000  H
  C46      1.0000 0.14430  0.46102  0.45007  Biso   1.000  C
  C47      1.0000 0.13297  0.53227  0.63471  Biso   1.000  C
  C48      1.0000 0.10469  0.26076  0.40902  Biso   1.000  C
  O8       1.0000 0.06752  0.12413  0.54411  Biso   1.000  O
  H36      1.0000 0.99373  0.01884  0.65491  Biso   1.000  H
  H37      1.0000 0.97961  0.87599  0.84421  Biso   1.000  H
  H38      1.0000 0.95163  0.85545  0.96989  Biso   1.000  H
  H39      1.0000 0.91271  0.95668  0.90709  Biso   1.000  H
  C49      1.0000 0.59398  0.45558  0.13811  Biso   1.000  C
  H40      1.0000 0.76069  0.52252  0.17532  Biso   1.000  H
  C50      1.0000 0.46495  0.57985  0.16452  Biso   1.000  C
  C51      1.0000 0.55036  0.78118  0.22029  Biso   1.000  C
  H41      1.0000 0.63520  0.94008  0.26298  Biso   1.000  H
  C52      1.0000 0.16947  0.57590  0.41483  Biso   1.000  C
  C53      1.0000 0.13159  0.36878  0.37443  Biso   1.000  C
  C54      1.0000 0.15550  0.64045  0.59947  Biso   1.000  C
  H42      1.0000 0.11869  0.51894  0.70969  Biso   1.000  H
  H43      1.0000 0.09322  0.19945  0.35718  Biso   1.000  H
  C55      1.0000 0.48102  0.47455  0.13680  Biso   1.000  C
  H44      1.0000 0.60570  0.38433  0.11391  Biso   1.000  H
  C56      1.0000 0.34458  0.59925  0.16657  Biso   1.000  C
  H45      1.0000 0.47622  0.79805  0.21318  Biso   1.000  H
  C57      1.0000 0.19369  0.59800  0.29658  Biso   1.000  C
  C58      1.0000 0.17680  0.66274  0.48850  Biso   1.000  C
  H46      1.0000 0.14200  0.38295  0.29896  Biso   1.000  H
  H47      1.0000 0.15689  0.70146  0.64967  Biso   1.000  H
  O9       1.0000 0.38465  0.39315  0.10745  Biso   1.000  O
  N2       1.0000 0.30404  0.59070  0.27140  Biso   1.000  N
  H48      1.0000 0.29198  0.54268  0.11751  Biso   1.000  H
  H49      1.0000 0.34437  0.67572  0.13893  Biso   1.000  H
  O10      1.0000 0.29056  0.62456  0.09518  Biso   1.000  O
  O11      1.0000 0.12407  0.60895  0.22749  Biso   1.000  O
  H50      1.0000 0.18312  0.67467  0.27917  Biso   1.000  H
  H51      1.0000 0.13679  0.54236  0.25022  Biso   1.000  H
  O12      1.0000 0.20111  0.77052  0.44811  Biso   1.000  O
  C59      1.0000 0.39748  0.27962  0.08578  Biso   1.000  C
  H52      1.0000 0.35162  0.57993  0.32520  Biso   1.000  H
  C60      1.0000 0.23737  0.86564  0.52325  Biso   1.000  C
  C61      1.0000 0.27980  0.20800  0.05086  Biso   1.000  C
  H53      1.0000 0.45233  0.27949  0.02723  Biso   1.000  H
  H54      1.0000 0.42798  0.24892  0.15250  Biso   1.000  H
  H55      1.0000 0.29949  0.85329  0.57502  Biso   1.000  H
  H56      1.0000 0.17145  0.87671  0.56569  Biso   1.000  H
  C62      1.0000 0.28138  0.96799  0.45457  Biso   1.000  C
  C63      1.0000 0.19190  0.20042  0.13492  Biso   1.000  C
  H57      1.0000 0.28777  0.13036  0.03214  Biso   1.000  H
  H58      1.0000 0.25141  0.23988  0.98389  Biso   1.000  H
  H59      1.0000 0.21598  0.98219  0.40828  Biso   1.000  H
  C64      1.0000 0.37747  0.95559  0.38195  Biso   1.000  C
  H60      1.0000 0.30958  0.03517  0.50379  Biso   1.000  H
  H61      1.0000 0.22217  0.17342  0.20369  Biso   1.000  H
  H62      1.0000 0.17899  0.27711  0.14981  Biso   1.000  H
  C65      1.0000 0.07679  0.12091  0.10033  Biso   1.000  C
  H63      1.0000 0.44147  0.93765  0.42766  Biso   1.000  H
  H64      1.0000 0.34820  0.89089  0.33003  Biso   1.000  H
  C66      1.0000 0.42402  0.06029  0.31842  Biso   1.000  C
  H65      1.0000 0.02035  0.12385  0.15577  Biso   1.000  H
  H66      1.0000 0.04835  0.14447  0.03009  Biso   1.000  H
  H67      1.0000 0.08725  0.04315  0.09289  Biso   1.000  H
  H68      1.0000 0.48321  0.04593  0.27042  Biso   1.000  H
  H69      1.0000 0.45821  0.12352  0.36928  Biso   1.000  H
  H70      1.0000 0.36077  0.07972  0.27418  Biso   1.000  H
