data_image0
_cell_length_a       8.678
_cell_length_b       16.031
_cell_length_c       17.808
_cell_angle_alpha    75.13
_cell_angle_beta     80.07
_cell_angle_gamma    77.81

_symmetry_space_group_name_H-M    "P 1"
_symmetry_int_tables_number       1

loop_
  _symmetry_equiv_pos_as_xyz
  'x, y, z'

loop_
  _atom_site_label
  _atom_site_occupancy
  _atom_site_fract_x
  _atom_site_fract_y
  _atom_site_fract_z
  _atom_site_thermal_displace_type
  _atom_site_B_iso_or_equiv
  _atom_site_type_symbol
  C1       1.0000 0.75709  0.44211  0.57261  Biso   1.000  C
  N1       1.0000 0.69060  0.37030  0.59088  Biso   1.000  N
  O1       1.0000 0.87960  0.44602  0.51323  Biso   1.000  O
  N2       1.0000 0.72200  0.50981  0.60429  Biso   1.000  N
  C2       1.0000 0.57181  0.37390  0.64710  Biso   1.000  C
  C3       1.0000 0.93196  0.36949  0.48512  Biso   1.000  C
  C4       1.0000 0.59793  0.50332  0.66379  Biso   1.000  C
  O2       1.0000 0.49170  0.30398  0.67017  Biso   1.000  O
  N3       1.0000 0.51494  0.43579  0.68651  Biso   1.000  N
  C5       1.0000 0.85938  0.35557  0.42679  Biso   1.000  C
  C6       1.0000 0.05333  0.30783  0.51457  Biso   1.000  C
  N4       1.0000 0.55726  0.56771  0.70220  Biso   1.000  N
  C7       1.0000 0.55949  0.23551  0.63451  Biso   1.000  C
  F1       1.0000 0.73412  0.41178  0.40067  Biso   1.000  F
  C8       1.0000 0.91566  0.28079  0.39710  Biso   1.000  C
  C9       1.0000 0.11183  0.23219  0.48670  Biso   1.000  C
  F2       1.0000 0.11415  0.31669  0.57618  Biso   1.000  F
  C10      1.0000 0.64138  0.64187  0.68200  Biso   1.000  C
  C11      1.0000 0.42546  0.56737  0.76633  Biso   1.000  C
  C12      1.0000 0.53170  0.23697  0.56002  Biso   1.000  C
  C13      1.0000 0.66299  0.16609  0.67158  Biso   1.000  C
  C14      1.0000 0.03862  0.21979  0.42720  Biso   1.000  C
  F3       1.0000 0.84070  0.26602  0.34287  Biso   1.000  F
  O3       1.0000 0.23457  0.17039  0.51797  Biso   1.000  O
  H1       1.0000 0.62388  0.66982  0.72639  Biso   1.000  H
  H2       1.0000 0.75537  0.62118  0.66959  Biso   1.000  H
  H3       1.0000 0.60125  0.68458  0.63632  Biso   1.000  H
  H4       1.0000 0.36140  0.62633  0.76088  Biso   1.000  H
  H5       1.0000 0.35877  0.52589  0.76410  Biso   1.000  H
  H6       1.0000 0.46815  0.54972  0.81657  Biso   1.000  H
  C15      1.0000 0.60574  0.16923  0.52348  Biso   1.000  C
  F4       1.0000 0.43942  0.30661  0.52031  Biso   1.000  F
  C16      1.0000 0.73996  0.09707  0.63632  Biso   1.000  C
  F5       1.0000 0.70532  0.16653  0.74068  Biso   1.000  F
  F6       1.0000 0.08675  0.14539  0.40249  Biso   1.000  F
  C17      1.0000 0.18842  0.10233  0.57589  Biso   1.000  C
  F7       1.0000 0.57842  0.17302  0.45063  Biso   1.000  F
  C18      1.0000 0.70630  0.10066  0.56172  Biso   1.000  C
  O4       1.0000 0.84639  0.02769  0.67351  Biso   1.000  O
  N5       1.0000 0.03421  0.10382  0.59451  Biso   1.000  N
  N6       1.0000 0.30722  0.04359  0.60417  Biso   1.000  N
  F8       1.0000 0.78146  0.03627  0.52582  Biso   1.000  F
  C19      1.0000 0.00232  0.03413  0.65008  Biso   1.000  C
  C20      1.0000 0.25760  0.97515  0.66063  Biso   1.000  C
  N7       1.0000 0.10228  0.96896  0.68628  Biso   1.000  N
  N8       1.0000 0.36768  0.91234  0.69231  Biso   1.000  N
  C21      1.0000 0.53714  0.91146  0.66508  Biso   1.000  C
  C22      1.0000 0.32542  0.83646  0.75339  Biso   1.000  C
  H7       1.0000 0.57646  0.95018  0.68909  Biso   1.000  H
  H8       1.0000 0.59586  0.85167  0.68001  Biso   1.000  H
  H9       1.0000 0.55242  0.93208  0.60798  Biso   1.000  H
  H10      1.0000 0.31058  0.79116  0.72867  Biso   1.000  H
  H11      1.0000 0.41079  0.81290  0.78659  Biso   1.000  H
  H12      1.0000 0.22664  0.85498  0.78548  Biso   1.000  H
  C23      1.0000 0.24291  0.55792  0.42738  Biso   1.000  C
  N9       1.0000 0.27800  0.49022  0.39570  Biso   1.000  N
  O5       1.0000 0.12039  0.55400  0.48682  Biso   1.000  O
  N10      1.0000 0.30943  0.62967  0.40911  Biso   1.000  N
  C24      1.0000 0.40208  0.49671  0.33620  Biso   1.000  C
  C25      1.0000 0.06806  0.63046  0.51493  Biso   1.000  C
  C26      1.0000 0.42819  0.62613  0.35289  Biso   1.000  C
  N11      1.0000 0.44274  0.43232  0.29778  Biso   1.000  N
  N12      1.0000 0.48507  0.56424  0.31348  Biso   1.000  N
  C27      1.0000 0.14064  0.64439  0.57319  Biso   1.000  C
  C28      1.0000 0.94667  0.69220  0.48541  Biso   1.000  C
  O6       1.0000 0.50833  0.69599  0.32981  Biso   1.000  O
  C29      1.0000 0.35865  0.35810  0.31799  Biso   1.000  C
  C30      1.0000 0.57456  0.43258  0.23372  Biso   1.000  C
  F9       1.0000 0.26591  0.58818  0.59931  Biso   1.000  F
  C31      1.0000 0.08437  0.71918  0.60288  Biso   1.000  C
  F10      1.0000 0.88588  0.68328  0.42381  Biso   1.000  F
  C32      1.0000 0.88820  0.76777  0.51329  Biso   1.000  C
  C33      1.0000 0.44051  0.76452  0.36548  Biso   1.000  C
  H13      1.0000 0.37613  0.33022  0.27360  Biso   1.000  H
  H14      1.0000 0.24466  0.37879  0.33040  Biso   1.000  H
  H15      1.0000 0.39865  0.31537  0.36372  Biso   1.000  H
  H16      1.0000 0.63860  0.37370  0.23910  Biso   1.000  H
  H17      1.0000 0.64126  0.47408  0.23588  Biso   1.000  H
  H18      1.0000 0.53174  0.45031  0.18341  Biso   1.000  H
  F11      1.0000 0.15930  0.73401  0.65711  Biso   1.000  F
  C34      1.0000 0.96141  0.78017  0.57278  Biso   1.000  C
  O7       1.0000 0.76546  0.82958  0.48201  Biso   1.000  O
  C35      1.0000 0.46831  0.76298  0.44003  Biso   1.000  C
  C36      1.0000 0.33704  0.83387  0.32841  Biso   1.000  C
  F12      1.0000 0.91316  0.85458  0.59750  Biso   1.000  F
  C37      1.0000 0.81158  0.89770  0.42410  Biso   1.000  C
  F13      1.0000 0.56058  0.69342  0.47967  Biso   1.000  F
  C38      1.0000 0.39426  0.83080  0.47651  Biso   1.000  C
  F14      1.0000 0.29468  0.83351  0.25931  Biso   1.000  F
  C39      1.0000 0.25994  0.90288  0.36372  Biso   1.000  C
  N13      1.0000 0.69280  0.95638  0.39581  Biso   1.000  N
  N14      1.0000 0.96579  0.89621  0.40548  Biso   1.000  N
  F15      1.0000 0.42157  0.82700  0.54942  Biso   1.000  F
  C40      1.0000 0.29371  0.89929  0.43833  Biso   1.000  C
  O8       1.0000 0.15364  0.97228  0.32648  Biso   1.000  O
  C41      1.0000 0.74242  0.02481  0.33942  Biso   1.000  C
  C42      1.0000 0.99769  0.96590  0.34990  Biso   1.000  C
  F16      1.0000 0.21856  0.96368  0.47423  Biso   1.000  F
  N15      1.0000 0.89775  0.03101  0.31371  Biso   1.000  N
  N16      1.0000 0.63235  0.08762  0.30768  Biso   1.000  N
  C43      1.0000 0.46289  0.08850  0.33491  Biso   1.000  C
  C44      1.0000 0.67461  0.16351  0.24660  Biso   1.000  C
  H19      1.0000 0.42354  0.04985  0.31090  Biso   1.000  H
  H20      1.0000 0.40403  0.14836  0.31998  Biso   1.000  H
  H21      1.0000 0.44759  0.06795  0.39201  Biso   1.000  H
  H22      1.0000 0.68944  0.20881  0.27131  Biso   1.000  H
  H23      1.0000 0.58922  0.18713  0.21340  Biso   1.000  H
  H24      1.0000 0.77337  0.14505  0.21451  Biso   1.000  H
  C45      1.0000 0.87233  0.35272  0.77792  Biso   1.000  C
  N17      1.0000 0.95798  0.42607  0.76311  Biso   1.000  N
  H25      1.0000 0.75753  0.37472  0.78372  Biso   1.000  H
  H26      1.0000 0.90087  0.32400  0.73383  Biso   1.000  H
  H27      1.0000 0.90109  0.31041  0.82600  Biso   1.000  H
  C46      1.0000 0.91752  0.48619  0.80498  Biso   1.000  C
  C47      1.0000 0.09645  0.42752  0.70138  Biso   1.000  C
  N18      1.0000 0.78894  0.47740  0.86149  Biso   1.000  N
  N19      1.0000 0.00296  0.55272  0.78817  Biso   1.000  N
  H28      1.0000 0.16304  0.46690  0.70783  Biso   1.000  H
  H29      1.0000 0.15866  0.36823  0.70589  Biso   1.000  H
  H30      1.0000 0.05928  0.44819  0.64979  Biso   1.000  H
  C48      1.0000 0.75613  0.54151  0.89950  Biso   1.000  C
  C49      1.0000 0.95170  0.60749  0.83520  Biso   1.000  C
  O9       1.0000 0.62926  0.53293  0.95618  Biso   1.000  O
  N20      1.0000 0.82983  0.60739  0.89118  Biso   1.000  N
  O10      1.0000 0.03634  0.67303  0.82301  Biso   1.000  O
  C50      1.0000 0.58664  0.59961  0.99659  Biso   1.000  C
  C51      1.0000 0.97012  0.73702  0.86571  Biso   1.000  C
  C52      1.0000 0.46695  0.67052  0.97562  Biso   1.000  C
  C53      1.0000 0.66352  0.59873  0.06036  Biso   1.000  C
  C54      1.0000 0.87298  0.81029  0.83379  Biso   1.000  C
  C55      1.0000 0.00552  0.72580  0.94119  Biso   1.000  C
  F17      1.0000 0.40040  0.67553  0.91068  Biso   1.000  F
  C56      1.0000 0.42067  0.73548  0.01527  Biso   1.000  C
  F18      1.0000 0.78541  0.53230  0.07928  Biso   1.000  F
  C57      1.0000 0.62115  0.66398  0.09936  Biso   1.000  C
  F19      1.0000 0.82697  0.81720  0.76340  Biso   1.000  F
  C58      1.0000 0.79893  0.87490  0.87478  Biso   1.000  C
  C59      1.0000 0.93649  0.79028  0.98248  Biso   1.000  C
  F20      1.0000 0.09468  0.65312  0.97580  Biso   1.000  F
  O11      1.0000 0.29884  0.80401  0.99290  Biso   1.000  O
  C60      1.0000 0.49862  0.73229  0.07857  Biso   1.000  C
  F21      1.0000 0.69983  0.66293  0.15857  Biso   1.000  F
  O12      1.0000 0.69231  0.94671  0.84257  Biso   1.000  O
  C61      1.0000 0.83771  0.86158  0.95050  Biso   1.000  C
  F22      1.0000 0.96547  0.77768  0.05708  Biso   1.000  F
  C62      1.0000 0.34725  0.87477  0.93961  Biso   1.000  C
  F23      1.0000 0.45887  0.79658  0.11611  Biso   1.000  F
  C63      1.0000 0.53532  0.94281  0.86752  Biso   1.000  C
  F24      1.0000 0.76822  0.92262  0.99103  Biso   1.000  F
  N21      1.0000 0.50385  0.87080  0.92023  Biso   1.000  N
  N22      1.0000 0.23007  0.93723  0.91501  Biso   1.000  N
  N23      1.0000 0.43787  0.01191  0.83520  Biso   1.000  N
  C64      1.0000 0.28261  0.00567  0.86108  Biso   1.000  C
  N24      1.0000 0.17143  0.07195  0.83127  Biso   1.000  N
  C65      1.0000 0.00273  0.07163  0.85669  Biso   1.000  C
  C66      1.0000 0.21575  0.14883  0.77400  Biso   1.000  C
  H31      1.0000 0.94055  0.12543  0.82852  Biso   1.000  H
  H32      1.0000 0.97343  0.02060  0.84562  Biso   1.000  H
  H33      1.0000 0.98050  0.06861  0.91308  Biso   1.000  H
  H34      1.0000 0.32684  0.13525  0.75151  Biso   1.000  H
  H35      1.0000 0.14740  0.16554  0.73219  Biso   1.000  H
  H36      1.0000 0.20288  0.19752  0.79971  Biso   1.000  H
  C67      1.0000 0.12765  0.64730  0.22212  Biso   1.000  C
  N25      1.0000 0.04205  0.57389  0.23688  Biso   1.000  N
  H37      1.0000 0.24234  0.62530  0.21632  Biso   1.000  H
  H38      1.0000 0.09912  0.67602  0.26622  Biso   1.000  H
  H39      1.0000 0.09891  0.68962  0.17398  Biso   1.000  H
  C68      1.0000 0.08251  0.51378  0.19501  Biso   1.000  C
  C69      1.0000 0.90344  0.57251  0.29860  Biso   1.000  C
  N26      1.0000 0.99693  0.44731  0.21181  Biso   1.000  N
  N27      1.0000 0.21106  0.52263  0.13850  Biso   1.000  N
  H40      1.0000 0.83683  0.53311  0.29222  Biso   1.000  H
  H41      1.0000 0.84135  0.63180  0.29409  Biso   1.000  H
  H42      1.0000 0.94075  0.55177  0.35019  Biso   1.000  H
  C70      1.0000 0.04833  0.39247  0.16479  Biso   1.000  C
  C71      1.0000 0.24387  0.45852  0.10049  Biso   1.000  C
  O13      1.0000 0.96366  0.32700  0.17697  Biso   1.000  O
  N28      1.0000 0.17020  0.39257  0.10881  Biso   1.000  N
  O14      1.0000 0.37075  0.46710  0.04380  Biso   1.000  O
  C72      1.0000 0.02989  0.26301  0.13428  Biso   1.000  C
  C73      1.0000 0.41325  0.40042  0.00340  Biso   1.000  C
  C74      1.0000 0.12705  0.18968  0.16620  Biso   1.000  C
  C75      1.0000 0.99451  0.27417  0.05880  Biso   1.000  C
  C76      1.0000 0.53303  0.32949  0.02442  Biso   1.000  C
  C77      1.0000 0.33648  0.40130  0.93962  Biso   1.000  C
  F25      1.0000 0.17304  0.18283  0.23659  Biso   1.000  F
  C78      1.0000 0.20108  0.12513  0.12520  Biso   1.000  C
  C79      1.0000 0.06354  0.20969  0.01751  Biso   1.000  C
  F26      1.0000 0.90533  0.34691  0.02419  Biso   1.000  F
  C80      1.0000 0.57924  0.26448  0.98472  Biso   1.000  C
  F27      1.0000 0.59960  0.32450  0.08931  Biso   1.000  F
  C81      1.0000 0.37887  0.33598  0.90062  Biso   1.000  C
  F28      1.0000 0.21459  0.46773  0.92071  Biso   1.000  F
  O15      1.0000 0.30769  0.05332  0.15741  Biso   1.000  O
  C82      1.0000 0.16232  0.13839  0.04948  Biso   1.000  C
  F29      1.0000 0.03444  0.22228  0.94290  Biso   1.000  F
  O16      1.0000 0.70116  0.19602  0.00709  Biso   1.000  O
  C83      1.0000 0.50141  0.26767  0.92141  Biso   1.000  C
  F30      1.0000 0.30017  0.33710  0.84142  Biso   1.000  F
  C84      1.0000 0.46467  0.05720  0.13252  Biso   1.000  C
  F31      1.0000 0.23177  0.07740  0.00902  Biso   1.000  F
  C85      1.0000 0.65266  0.12520  0.06038  Biso   1.000  C
  F32      1.0000 0.54114  0.20337  0.88393  Biso   1.000  F
  N29      1.0000 0.49614  0.12922  0.07982  Biso   1.000  N
  N30      1.0000 0.56215  0.98806  0.16479  Biso   1.000  N
  N31      1.0000 0.76993  0.06280  0.08497  Biso   1.000  N
  C86      1.0000 0.71739  0.99437  0.13891  Biso   1.000  C
  N32      1.0000 0.82845  0.92808  0.16871  Biso   1.000  N
  C87      1.0000 0.99727  0.92840  0.14330  Biso   1.000  C
  C88      1.0000 0.78425  0.85120  0.22599  Biso   1.000  C
  H43      1.0000 0.05944  0.87459  0.17152  Biso   1.000  H
  H44      1.0000 0.02658  0.97935  0.15443  Biso   1.000  H
  H45      1.0000 0.01953  0.93135  0.08690  Biso   1.000  H
  H46      1.0000 0.67316  0.86478  0.24847  Biso   1.000  H
  H47      1.0000 0.85260  0.83449  0.26780  Biso   1.000  H
  H48      1.0000 0.79715  0.80245  0.20028  Biso   1.000  H
