data_image0
_cell_length_a       12.875
_cell_length_b       15.034
_cell_length_c       22.438
_cell_angle_alpha    72.37
_cell_angle_beta     76.92
_cell_angle_gamma    83.45

_symmetry_space_group_name_H-M    "P 1"
_symmetry_int_tables_number       1

loop_
  _symmetry_equiv_pos_as_xyz
  'x, y, z'

loop_
  _atom_site_label
  _atom_site_occupancy
  _atom_site_fract_x
  _atom_site_fract_y
  _atom_site_fract_z
  _atom_site_thermal_displace_type
  _atom_site_B_iso_or_equiv
  _atom_site_type_symbol
  O1       1.0000 0.37401  0.40852  0.30051  Biso   1.000  O
  C1       1.0000 0.41533  0.32718  0.28131  Biso   1.000  C
  C2       1.0000 0.29323  0.46031  0.26847  Biso   1.000  C
  H1       1.0000 0.40606  0.33469  0.23829  Biso   1.000  H
  H2       1.0000 0.37760  0.27299  0.30982  Biso   1.000  H
  C3       1.0000 0.53118  0.31408  0.28365  Biso   1.000  C
  C4       1.0000 0.29142  0.55947  0.26990  Biso   1.000  C
  H3       1.0000 0.22430  0.43410  0.28962  Biso   1.000  H
  H4       1.0000 0.30819  0.45768  0.22473  Biso   1.000  H
  O2       1.0000 0.58125  0.39538  0.23600  Biso   1.000  O
  H5       1.0000 0.54138  0.31094  0.32582  Biso   1.000  H
  H6       1.0000 0.56139  0.25695  0.27363  Biso   1.000  H
  O3       1.0000 0.39335  0.59366  0.23031  Biso   1.000  O
  H7       1.0000 0.23236  0.59601  0.25252  Biso   1.000  H
  H8       1.0000 0.28490  0.56234  0.31321  Biso   1.000  H
  C5       1.0000 0.68122  0.40875  0.23619  Biso   1.000  C
  C6       1.0000 0.41426  0.68099  0.22244  Biso   1.000  C
  N1       1.0000 0.72215  0.48428  0.19159  Biso   1.000  N
  N2       1.0000 0.72960  0.34801  0.27955  Biso   1.000  N
  N3       1.0000 0.34502  0.73250  0.25338  Biso   1.000  N
  N4       1.0000 0.50645  0.70670  0.18247  Biso   1.000  N
  C7       1.0000 0.82180  0.49460  0.19302  Biso   1.000  C
  C8       1.0000 0.82974  0.36830  0.27363  Biso   1.000  C
  C9       1.0000 0.37682  0.81851  0.24001  Biso   1.000  C
  C10      1.0000 0.52726  0.79426  0.17516  Biso   1.000  C
  O4       1.0000 0.87573  0.56738  0.14985  Biso   1.000  O
  N5       1.0000 0.88266  0.43999  0.23242  Biso   1.000  N
  O5       1.0000 0.88760  0.31047  0.31465  Biso   1.000  O
  O6       1.0000 0.31244  0.87874  0.26790  Biso   1.000  O
  N6       1.0000 0.46548  0.85529  0.20209  Biso   1.000  N
  O7       1.0000 0.61745  0.82964  0.13657  Biso   1.000  O
  C11      1.0000 0.81977  0.64377  0.11470  Biso   1.000  C
  C12      1.0000 0.83621  0.23224  0.35930  Biso   1.000  C
  C13      1.0000 0.21856  0.84358  0.31121  Biso   1.000  C
  C14      1.0000 0.69400  0.77146  0.10845  Biso   1.000  C
  C15      1.0000 0.85523  0.67082  0.04933  Biso   1.000  C
  C16      1.0000 0.73993  0.69311  0.14589  Biso   1.000  C
  C17      1.0000 0.85333  0.14749  0.34650  Biso   1.000  C
  C18      1.0000 0.77404  0.24326  0.41593  Biso   1.000  C
  C19      1.0000 0.12211  0.87449  0.29306  Biso   1.000  C
  C20      1.0000 0.22493  0.78390  0.37057  Biso   1.000  C
  C21      1.0000 0.72607  0.80082  0.04283  Biso   1.000  C
  C22      1.0000 0.80727  0.75050  0.01385  Biso   1.000  C
  H9       1.0000 0.90957  0.63670  0.02961  Biso   1.000  H
  H10      1.0000 0.71815  0.67438  0.19011  Biso   1.000  H
  H11      1.0000 0.89623  0.14200  0.30830  Biso   1.000  H
  C23      1.0000 0.80531  0.07024  0.39153  Biso   1.000  C
  C24      1.0000 0.72590  0.16536  0.45934  Biso   1.000  C
  H12      1.0000 0.76511  0.30083  0.42443  Biso   1.000  H
  C25      1.0000 0.02982  0.84420  0.33642  Biso   1.000  C
  H13      1.0000 0.11954  0.91469  0.25271  Biso   1.000  H
  C26      1.0000 0.13060  0.75351  0.41163  Biso   1.000  C
  H14      1.0000 0.29040  0.76491  0.38250  Biso   1.000  H
  H15      1.0000 0.69357  0.85348  0.01862  Biso   1.000  H
  H16      1.0000 0.83039  0.77028  0.96982  Biso   1.000  H
  H17      1.0000 0.81627  0.01227  0.38351  Biso   1.000  H
  C27      1.0000 0.74121  0.07869  0.44821  Biso   1.000  C
  O8       1.0000 0.66601  0.17627  0.51750  Biso   1.000  O
  C28      1.0000 0.03231  0.78228  0.39650  Biso   1.000  C
  H18      1.0000 0.96424  0.86567  0.32530  Biso   1.000  H
  O9       1.0000 0.13512  0.69423  0.47338  Biso   1.000  O
  H19      1.0000 0.70902  0.02688  0.47839  Biso   1.000  H
  C29      1.0000 0.55907  0.17878  0.52686  Biso   1.000  C
  H20      1.0000 0.96983  0.76115  0.42520  Biso   1.000  H
  C30      1.0000 0.13178  0.60156  0.48379  Biso   1.000  C
  N7       1.0000 0.51416  0.16393  0.48288  Biso   1.000  N
  N8       1.0000 0.51046  0.19689  0.58097  Biso   1.000  N
  N9       1.0000 0.12314  0.55385  0.54525  Biso   1.000  N
  N10      1.0000 0.13691  0.56818  0.43479  Biso   1.000  N
  C31      1.0000 0.40837  0.17129  0.49792  Biso   1.000  C
  C32      1.0000 0.40356  0.19994  0.58966  Biso   1.000  C
  C33      1.0000 0.11828  0.46256  0.55571  Biso   1.000  C
  C34      1.0000 0.13459  0.47489  0.45308  Biso   1.000  C
  O10      1.0000 0.36111  0.15579  0.45404  Biso   1.000  O
  N11      1.0000 0.34729  0.18867  0.54945  Biso   1.000  N
  O11      1.0000 0.35449  0.21379  0.64481  Biso   1.000  O
  O12      1.0000 0.10504  0.40520  0.61416  Biso   1.000  O
  N12      1.0000 0.12516  0.41823  0.51129  Biso   1.000  N
  O13      1.0000 0.14183  0.43839  0.40452  Biso   1.000  O
  C35      1.0000 0.26211  0.20146  0.44444  Biso   1.000  C
  C36      1.0000 0.24044  0.20227  0.66353  Biso   1.000  C
  C37      1.0000 0.08804  0.44336  0.66802  Biso   1.000  C
  C38      1.0000 0.15481  0.33988  0.41865  Biso   1.000  C
  C39      1.0000 0.18449  0.14987  0.43909  Biso   1.000  C
  C40      1.0000 0.24981  0.29690  0.43413  Biso   1.000  C
  H21      1.0000 0.22463  0.13924  0.66664  Biso   1.000  H
  H22      1.0000 0.20420  0.24585  0.63221  Biso   1.000  H
  C41      1.0000 0.20400  0.22116  0.72790  Biso   1.000  C
  C42      1.0000 0.08870  0.35964  0.72513  Biso   1.000  C
  H23      1.0000 0.02026  0.47874  0.67194  Biso   1.000  H
  H24      1.0000 0.14476  0.48398  0.66310  Biso   1.000  H
  C43      1.0000 0.07459  0.29187  0.41259  Biso   1.000  C
  H25      1.0000 0.19463  0.08560  0.44611  Biso   1.000  H
  C44      1.0000 0.09150  0.19590  0.42319  Biso   1.000  C
  H26      1.0000 0.30305  0.33090  0.43752  Biso   1.000  H
  O14      1.0000 0.19339  0.31748  0.72365  Biso   1.000  O
  H27      1.0000 0.13579  0.19344  0.74853  Biso   1.000  H
  H28      1.0000 0.25497  0.19096  0.75460  Biso   1.000  H
  H29      1.0000 0.06458  0.37868  0.76391  Biso   1.000  H
  H30      1.0000 0.03994  0.31494  0.72523  Biso   1.000  H
  H31      1.0000 0.01162  0.32250  0.40180  Biso   1.000  H
  H32      1.0000 0.03866  0.16180  0.41942  Biso   1.000  H
  O15      1.0000 0.64552  0.78619  0.35519  Biso   1.000  O
  C45      1.0000 0.75955  0.79770  0.33652  Biso   1.000  C
  C46      1.0000 0.59646  0.79998  0.41034  Biso   1.000  C
  C47      1.0000 0.79609  0.77882  0.27210  Biso   1.000  C
  H33      1.0000 0.77538  0.86066  0.33341  Biso   1.000  H
  H34      1.0000 0.79582  0.75406  0.36780  Biso   1.000  H
  N13      1.0000 0.48955  0.80310  0.41904  Biso   1.000  N
  N14      1.0000 0.65273  0.81125  0.45055  Biso   1.000  N
  O16      1.0000 0.80663  0.68244  0.27635  Biso   1.000  O
  H35      1.0000 0.86429  0.80646  0.25152  Biso   1.000  H
  H36      1.0000 0.74504  0.80902  0.24540  Biso   1.000  H
  C48      1.0000 0.44094  0.82120  0.47314  Biso   1.000  C
  C49      1.0000 0.59162  0.82868  0.50213  Biso   1.000  C
  C50      1.0000 0.91132  0.64027  0.27487  Biso   1.000  C
  O17      1.0000 0.33401  0.82364  0.48250  Biso   1.000  O
  N15      1.0000 0.48584  0.83597  0.51717  Biso   1.000  N
  O18      1.0000 0.63897  0.84417  0.54601  Biso   1.000  O
  H37      1.0000 0.93543  0.62130  0.23609  Biso   1.000  H
  H38      1.0000 0.96006  0.68495  0.27482  Biso   1.000  H
  C51      1.0000 0.91196  0.55660  0.33203  Biso   1.000  C
  C52      1.0000 0.27412  0.83456  0.54066  Biso   1.000  C
  C53      1.0000 0.73789  0.79844  0.55561  Biso   1.000  C
  O19      1.0000 0.89497  0.59472  0.38585  Biso   1.000  O
  H39      1.0000 0.97974  0.52115  0.32811  Biso   1.000  H
  H40      1.0000 0.85525  0.51600  0.33690  Biso   1.000  H
  C54      1.0000 0.25879  0.92127  0.55184  Biso   1.000  C
  C55      1.0000 0.22598  0.75665  0.58407  Biso   1.000  C
  C56      1.0000 0.81553  0.85005  0.56091  Biso   1.000  C
  C57      1.0000 0.75019  0.70308  0.56588  Biso   1.000  C
  C58      1.0000 0.88172  0.53734  0.44434  Biso   1.000  C
  C59      1.0000 0.19469  0.92966  0.60852  Biso   1.000  C
  H41      1.0000 0.29107  0.97310  0.52161  Biso   1.000  H
  C60      1.0000 0.16379  0.76765  0.64075  Biso   1.000  C
  H42      1.0000 0.23489  0.69906  0.57562  Biso   1.000  H
  H43      1.0000 0.80538  0.91438  0.55389  Biso   1.000  H
  C61      1.0000 0.90851  0.80408  0.57681  Biso   1.000  C
  C62      1.0000 0.84520  0.66004  0.58135  Biso   1.000  C
  H44      1.0000 0.69694  0.66906  0.56253  Biso   1.000  H
  N16      1.0000 0.87484  0.58167  0.48876  Biso   1.000  N
  N17      1.0000 0.87695  0.44607  0.45475  Biso   1.000  N
  C63      1.0000 0.14669  0.85243  0.65350  Biso   1.000  C
  H45      1.0000 0.18374  0.98765  0.61650  Biso   1.000  H
  O20      1.0000 0.11242  0.68945  0.68536  Biso   1.000  O
  C64      1.0000 0.92543  0.70805  0.58741  Biso   1.000  C
  H46      1.0000 0.96133  0.83817  0.58063  Biso   1.000  H
  O21      1.0000 0.85819  0.56152  0.59548  Biso   1.000  O
  C65      1.0000 0.86542  0.52509  0.54692  Biso   1.000  C
  C66      1.0000 0.86822  0.39834  0.51626  Biso   1.000  C
  H47      1.0000 0.10378  0.85798  0.69171  Biso   1.000  H
  C67      1.0000 0.17025  0.63167  0.72642  Biso   1.000  C
  H48      1.0000 0.98839  0.67748  0.59821  Biso   1.000  H
  N18      1.0000 0.86308  0.43178  0.56526  Biso   1.000  N
  O22      1.0000 0.86487  0.30574  0.52667  Biso   1.000  O
  N19      1.0000 0.11741  0.55997  0.76763  Biso   1.000  N
  N20      1.0000 0.27040  0.65198  0.72045  Biso   1.000  N
  C68      1.0000 0.86940  0.24648  0.58837  Biso   1.000  C
  C69      1.0000 0.17819  0.50537  0.80703  Biso   1.000  C
  C70      1.0000 0.31879  0.59114  0.76386  Biso   1.000  C
  C71      1.0000 0.96768  0.21769  0.60355  Biso   1.000  C
  C72      1.0000 0.77508  0.21608  0.62944  Biso   1.000  C
  O23      1.0000 0.12429  0.43253  0.85015  Biso   1.000  O
  N21      1.0000 0.27786  0.51561  0.80846  Biso   1.000  N
  O24      1.0000 0.41875  0.60452  0.76405  Biso   1.000  O
  C73      1.0000 0.97017  0.15576  0.66363  Biso   1.000  C
  H49      1.0000 0.03019  0.23877  0.57481  Biso   1.000  H
  C74      1.0000 0.78143  0.15638  0.68884  Biso   1.000  C
  H50      1.0000 0.70961  0.23508  0.61750  Biso   1.000  H
  C75      1.0000 0.18023  0.35613  0.88535  Biso   1.000  C
  C76      1.0000 0.46883  0.68584  0.71635  Biso   1.000  C
  C77      1.0000 0.87789  0.12541  0.70699  Biso   1.000  C
  H51      1.0000 0.03578  0.13425  0.67471  Biso   1.000  H
  O25      1.0000 0.68755  0.12123  0.73215  Biso   1.000  O
  C78      1.0000 0.14476  0.32914  0.95072  Biso   1.000  C
  C79      1.0000 0.26007  0.30686  0.85416  Biso   1.000  C
  C80      1.0000 0.58467  0.67272  0.71874  Biso   1.000  C
  H52      1.0000 0.45862  0.68895  0.67423  Biso   1.000  H
  H53      1.0000 0.43861  0.74294  0.72642  Biso   1.000  H
  H54      1.0000 0.88046  0.08521  0.74734  Biso   1.000  H
  C81      1.0000 0.62319  0.18147  0.75999  Biso   1.000  C
  C82      1.0000 0.19275  0.24942  0.98615  Biso   1.000  C
  H55      1.0000 0.09043  0.36319  0.97044  Biso   1.000  H
  C83      1.0000 0.30607  0.22844  0.89160  Biso   1.000  C
  H56      1.0000 0.28186  0.32552  0.80994  Biso   1.000  H
  O26      1.0000 0.62598  0.59144  0.69954  Biso   1.000  O
  H57      1.0000 0.59404  0.66522  0.76171  Biso   1.000  H
  H58      1.0000 0.62240  0.72697  0.69023  Biso   1.000  H
  N22      1.0000 0.65497  0.26746  0.74667  Biso   1.000  N
  N23      1.0000 0.53452  0.14461  0.79796  Biso   1.000  N
  C84      1.0000 0.27392  0.19914  0.95722  Biso   1.000  C
  H59      1.0000 0.16962  0.22970  0.03018  Biso   1.000  H
  O27      1.0000 0.38255  0.17026  0.86348  Biso   1.000  O
  C85      1.0000 0.70678  0.53968  0.73153  Biso   1.000  C
  C86      1.0000 0.58575  0.31893  0.77757  Biso   1.000  C
  C87      1.0000 0.47274  0.20564  0.82489  Biso   1.000  C
  H60      1.0000 0.30643  0.14642  0.98143  Biso   1.000  H
  C88      1.0000 0.70858  0.44043  0.73015  Biso   1.000  C
  H61      1.0000 0.77569  0.56586  0.71043  Biso   1.000  H
  H62      1.0000 0.69181  0.54222  0.77532  Biso   1.000  H
  O28      1.0000 0.60667  0.40626  0.76969  Biso   1.000  O
  N24      1.0000 0.49355  0.29326  0.81758  Biso   1.000  N
  H63      1.0000 0.76771  0.40396  0.74753  Biso   1.000  H
  H64      1.0000 0.71510  0.43755  0.68684  Biso   1.000  H
  O29      1.0000 0.61484  0.25576  0.14894  Biso   1.000  O
  C89      1.0000 0.57902  0.21167  0.11403  Biso   1.000  C
  C90      1.0000 0.72104  0.28467  0.12788  Biso   1.000  C
  N25      1.0000 0.47258  0.21061  0.12631  Biso   1.000  N
  N26      1.0000 0.64821  0.17611  0.07330  Biso   1.000  N
  C91      1.0000 0.79302  0.24581  0.16647  Biso   1.000  C
  C92      1.0000 0.74527  0.35648  0.07235  Biso   1.000  C
  C93      1.0000 0.43944  0.16668  0.09164  Biso   1.000  C
  C94      1.0000 0.60120  0.13741  0.04054  Biso   1.000  C
  H65      1.0000 0.77409  0.19808  0.20400  Biso   1.000  H
  C95      1.0000 0.89486  0.27970  0.14789  Biso   1.000  C
  C96      1.0000 0.84747  0.38779  0.05530  Biso   1.000  C
  H66      1.0000 0.69475  0.38272  0.04742  Biso   1.000  H
  O30      1.0000 0.33320  0.15660  0.10052  Biso   1.000  O
  N27      1.0000 0.49704  0.12961  0.04732  Biso   1.000  N
  O31      1.0000 0.66953  0.10502  0.99718  Biso   1.000  O
  H67      1.0000 0.94483  0.25386  0.17330  Biso   1.000  H
  C97      1.0000 0.92346  0.35141  0.09212  Biso   1.000  C
  O32      1.0000 0.87295  0.46657  0.00229  Biso   1.000  O
  C98      1.0000 0.26427  0.18238  0.15119  Biso   1.000  C
  C99      1.0000 0.62616  0.07603  0.95229  Biso   1.000  C
  H68      1.0000 0.99167  0.37407  0.07989  Biso   1.000  H
  C100     1.0000 0.86910  0.46114  0.94399  Biso   1.000  C
  C101     1.0000 0.23978  0.27580  0.14746  Biso   1.000  C
  C102     1.0000 0.21822  0.11146  0.20171  Biso   1.000  C
  C103     1.0000 0.71842  0.05364  0.90378  Biso   1.000  C
  H69      1.0000 0.58451  0.02148  0.97431  Biso   1.000  H
  H70      1.0000 0.58012  0.12577  0.93152  Biso   1.000  H
  N28      1.0000 0.87149  0.37789  0.93510  Biso   1.000  N
  N29      1.0000 0.86482  0.54430  0.90115  Biso   1.000  N
  C104     1.0000 0.16699  0.29606  0.19818  Biso   1.000  C
  H71      1.0000 0.27083  0.32291  0.11251  Biso   1.000  H
  C105     1.0000 0.14580  0.13416  0.25142  Biso   1.000  C
  H72      1.0000 0.23518  0.04939  0.20252  Biso   1.000  H
  O33      1.0000 0.77647  0.13371  0.86543  Biso   1.000  O
  H73      1.0000 0.69183  0.02664  0.87632  Biso   1.000  H
  H74      1.0000 0.76642  0.00727  0.92574  Biso   1.000  H
  C106     1.0000 0.87017  0.38248  0.87508  Biso   1.000  C
  C107     1.0000 0.86330  0.53718  0.84399  Biso   1.000  C
  O34      1.0000 0.14225  0.38543  0.20491  Biso   1.000  O
  C108     1.0000 0.11998  0.22650  0.25028  Biso   1.000  C
  H75      1.0000 0.11401  0.08680  0.28599  Biso   1.000  H
  C109     1.0000 0.87723  0.13949  0.87976  Biso   1.000  C
  O35      1.0000 0.87247  0.30441  0.85879  Biso   1.000  O
  N30      1.0000 0.86577  0.46029  0.82646  Biso   1.000  N
  O36      1.0000 0.85781  0.61455  0.79514  Biso   1.000  O
  C110     1.0000 0.13669  0.46281  0.15606  Biso   1.000  C
  H76      1.0000 0.07190  0.24150  0.28399  Biso   1.000  H
  C111     1.0000 0.87934  0.21726  0.90860  Biso   1.000  C
  H77      1.0000 0.89512  0.08068  0.90922  Biso   1.000  H
  H78      1.0000 0.93143  0.14877  0.84084  Biso   1.000  H
  C112     1.0000 0.83301  0.70386  0.80187  Biso   1.000  C
  N31      1.0000 0.13526  0.45571  0.09885  Biso   1.000  N
  N32      1.0000 0.13421  0.53970  0.17358  Biso   1.000  N
  H79      1.0000 0.94494  0.21237  0.92393  Biso   1.000  H
  H80      1.0000 0.81956  0.21425  0.94422  Biso   1.000  H
  C113     1.0000 0.76023  0.72414  0.85254  Biso   1.000  C
  C114     1.0000 0.88003  0.77351  0.74972  Biso   1.000  C
  C115     1.0000 0.13092  0.53880  0.05601  Biso   1.000  C
  C116     1.0000 0.12984  0.61753  0.12492  Biso   1.000  C
  C117     1.0000 0.73572  0.81754  0.84886  Biso   1.000  C
  H81      1.0000 0.72916  0.67707  0.88754  Biso   1.000  H
  C118     1.0000 0.85419  0.86576  0.74863  Biso   1.000  C
  H82      1.0000 0.92810  0.75851  0.71601  Biso   1.000  H
  N33      1.0000 0.12852  0.62205  0.06490  Biso   1.000  N
  O37      1.0000 0.12706  0.53337  0.99771  Biso   1.000  O
  O38      1.0000 0.12753  0.69551  0.14125  Biso   1.000  O
  O39      1.0000 0.66680  0.84341  0.89948  Biso   1.000  O
  C119     1.0000 0.78178  0.88846  0.79834  Biso   1.000  C
  H83      1.0000 0.88599  0.91321  0.71401  Biso   1.000  H
  C120     1.0000 0.15253  0.61213  0.94475  Biso   1.000  C
  C121     1.0000 0.12065  0.78266  0.09145  Biso   1.000  C
  C122     1.0000 0.56057  0.83326  0.90836  Biso   1.000  C
  H84      1.0000 0.76481  0.95059  0.79753  Biso   1.000  H
  C123     1.0000 0.07655  0.64853  0.90788  Biso   1.000  C
  C124     1.0000 0.25473  0.64344  0.92770  Biso   1.000  C
  H85      1.0000 0.05505  0.78761  0.07612  Biso   1.000  H
  H86      1.0000 0.18044  0.78567  0.05582  Biso   1.000  H
  C125     1.0000 0.12277  0.86052  0.12024  Biso   1.000  C
  N34      1.0000 0.52741  0.78938  0.87374  Biso   1.000  N
  N35      1.0000 0.50297  0.87033  0.95268  Biso   1.000  N
  C126     1.0000 0.10515  0.72024  0.85211  Biso   1.000  C
  H87      1.0000 0.00834  0.62587  0.92011  Biso   1.000  H
  C127     1.0000 0.27897  0.71527  0.87212  Biso   1.000  C
  H88      1.0000 0.30524  0.61727  0.95263  Biso   1.000  H
  O40      1.0000 0.22354  0.86630  0.13457  Biso   1.000  O
  H89      1.0000 0.10489  0.91933  0.09078  Biso   1.000  H
  H90      1.0000 0.06856  0.85122  0.15921  Biso   1.000  H
  C128     1.0000 0.42097  0.78825  0.88601  Biso   1.000  C
  C129     1.0000 0.39879  0.86258  0.95951  Biso   1.000  C
  C130     1.0000 0.20697  0.75418  0.83358  Biso   1.000  C
  H91      1.0000 0.05519  0.74608  0.82670  Biso   1.000  H
  O41      1.0000 0.38516  0.74416  0.85111  Biso   1.000  O
  C131     1.0000 0.28159  0.94631  0.09622  Biso   1.000  C
  N36      1.0000 0.35177  0.82388  0.92675  Biso   1.000  N
  O42      1.0000 0.33047  0.89490  0.00287  Biso   1.000  O
  H92      1.0000 0.22592  0.80186  0.79600  Biso   1.000  H
  H93      1.0000 0.30818  0.97330  0.12368  Biso   1.000  H
  H94      1.0000 0.23357  0.99271  0.07430  Biso   1.000  H
  C132     1.0000 0.37391  0.92390  0.04775  Biso   1.000  C
  H95      1.0000 0.41549  0.97853  0.02569  Biso   1.000  H
  H96      1.0000 0.41988  0.87424  0.06848  Biso   1.000  H
  Ne1      1.0000 0.50000  0.49998  0.00001  Biso   1.000  Ne
  He1      1.0000 0.52955  0.56538  0.00677  Biso   1.000  He
  He2      1.0000 0.54915  0.51304  0.94373  Biso   1.000  He
  Ar1      1.0000 0.50000  0.49998  0.00001  Biso   1.000  Ar
  Ne2      1.0000 0.42804  0.45864  0.37138  Biso   1.000  Ne
  He3      1.0000 0.00000  0.00000  0.00000  Biso   1.000  He
  He4      1.0000 0.45134  0.27411  0.39619  Biso   1.000  He
  Ar2      1.0000 0.46482  0.49148  0.40478  Biso   1.000  Ar
  Ne3      1.0000 0.57197  0.54130  0.62865  Biso   1.000  Ne
  He5      1.0000 0.52494  0.50349  0.52535  Biso   1.000  He
  He6      1.0000 0.40804  0.71755  0.60064  Biso   1.000  He
  Ar3      1.0000 0.53516  0.50843  0.59522  Biso   1.000  Ar
