data_image0
_cell_length_a       14.118
_cell_length_b       14.625
_cell_length_c       17.993
_cell_angle_alpha    73.42
_cell_angle_beta     72.76
_cell_angle_gamma    80.92

_symmetry_space_group_name_H-M    "P 1"
_symmetry_int_tables_number       1

loop_
  _symmetry_equiv_pos_as_xyz
  'x, y, z'

loop_
  _atom_site_label
  _atom_site_occupancy
  _atom_site_fract_x
  _atom_site_fract_y
  _atom_site_fract_z
  _atom_site_thermal_displace_type
  _atom_site_B_iso_or_equiv
  _atom_site_type_symbol
  C1       1.0000 0.43032  0.51367  0.73212  Biso   1.000  C
  O1       1.0000 0.51755  0.51079  0.67588  Biso   1.000  O
  N1       1.0000 0.41346  0.43026  0.78379  Biso   1.000  N
  N2       1.0000 0.37317  0.59539  0.73068  Biso   1.000  N
  C2       1.0000 0.56603  0.59359  0.62740  Biso   1.000  C
  C3       1.0000 0.32989  0.43454  0.84249  Biso   1.000  C
  C4       1.0000 0.29238  0.58807  0.79227  Biso   1.000  C
  C5       1.0000 0.62503  0.58460  0.55330  Biso   1.000  C
  C6       1.0000 0.56361  0.67210  0.65459  Biso   1.000  C
  O2       1.0000 0.31216  0.34994  0.89717  Biso   1.000  O
  N3       1.0000 0.26624  0.50984  0.85182  Biso   1.000  N
  O3       1.0000 0.22788  0.66326  0.79829  Biso   1.000  O
  H1       1.0000 0.62564  0.52981  0.53658  Biso   1.000  H
  C7       1.0000 0.68265  0.65690  0.50428  Biso   1.000  C
  C8       1.0000 0.62186  0.74427  0.60323  Biso   1.000  C
  H2       1.0000 0.52485  0.67678  0.70530  Biso   1.000  H
  C9       1.0000 0.23886  0.34604  0.96971  Biso   1.000  C
  C10      1.0000 0.24705  0.75149  0.73429  Biso   1.000  C
  H3       1.0000 0.72172  0.65137  0.45388  Biso   1.000  H
  C11      1.0000 0.68335  0.73850  0.52900  Biso   1.000  C
  O4       1.0000 0.61692  0.83005  0.62698  Biso   1.000  O
  C12      1.0000 0.14128  0.33707  0.97650  Biso   1.000  C
  C13      1.0000 0.27153  0.34346  0.03623  Biso   1.000  C
  C14      1.0000 0.14607  0.80845  0.74012  Biso   1.000  C
  H4       1.0000 0.27345  0.73750  0.68208  Biso   1.000  H
  H5       1.0000 0.29429  0.78677  0.74247  Biso   1.000  H
  H6       1.0000 0.24695  0.74140  0.68340  Biso   1.000  H
  H7       1.0000 0.31127  0.77237  0.72887  Biso   1.000  H
  C15      1.0000 0.16509  0.82504  0.75817  Biso   1.000  C
  H8       1.0000 0.72372  0.78714  0.49670  Biso   1.000  H
  C16      1.0000 0.64636  0.82475  0.69218  Biso   1.000  C
  H9       1.0000 0.12100  0.33962  0.93121  Biso   1.000  H
  C17      1.0000 0.07370  0.32420  0.05055  Biso   1.000  C
  H10      1.0000 0.33765  0.35115  0.03094  Biso   1.000  H
  C18      1.0000 0.20222  0.32899  0.11009  Biso   1.000  C
  O5       1.0000 0.10948  0.84516  0.80911  Biso   1.000  O
  H11      1.0000 0.15107  0.86150  0.69248  Biso   1.000  H
  H12      1.0000 0.09815  0.76753  0.74012  Biso   1.000  H
  H13      1.0000 0.17129  0.88377  0.71558  Biso   1.000  H
  H14      1.0000 0.10099  0.80185  0.76689  Biso   1.000  H
  O6       1.0000 0.17154  0.84348  0.83101  Biso   1.000  O
  N4       1.0000 0.69451  0.74564  0.72382  Biso   1.000  N
  N5       1.0000 0.62182  0.90580  0.71739  Biso   1.000  N
  C19      1.0000 0.10256  0.32026  0.11930  Biso   1.000  C
  H15      1.0000 0.00763  0.31791  0.05512  Biso   1.000  H
  O7       1.0000 0.23011  0.32899  0.17932  Biso   1.000  O
  C20      1.0000 0.15417  0.93079  0.80207  Biso   1.000  C
  C21      1.0000 0.08058  0.88905  0.86758  Biso   1.000  C
  H16      1.0000 0.03293  0.89815  0.83618  Biso   1.000  H
  H17      1.0000 0.21686  0.91266  0.81627  Biso   1.000  H
  C22      1.0000 0.71716  0.75066  0.78902  Biso   1.000  C
  C23      1.0000 0.64933  0.89729  0.78361  Biso   1.000  C
  H18      1.0000 0.05666  0.31214  0.16952  Biso   1.000  H
  C24      1.0000 0.28296  0.24923  0.21102  Biso   1.000  C
  C25      1.0000 0.09107  0.98918  0.85308  Biso   1.000  C
  H19      1.0000 0.16815  0.96818  0.74662  Biso   1.000  H
  C26      1.0000 0.10109  0.96493  0.86968  Biso   1.000  C
  H20      1.0000 0.11017  0.99946  0.81362  Biso   1.000  H
  H21      1.0000 0.06907  0.94858  0.90697  Biso   1.000  H
  H22      1.0000 0.05229  0.85103  0.92141  Biso   1.000  H
  O8       1.0000 0.76992  0.67098  0.82072  Biso   1.000  O
  N6       1.0000 0.69648  0.82238  0.82361  Biso   1.000  N
  O9       1.0000 0.62737  0.97019  0.81771  Biso   1.000  O
  N7       1.0000 0.30553  0.25426  0.27622  Biso   1.000  N
  N8       1.0000 0.30362  0.17759  0.17644  Biso   1.000  N
  H23      1.0000 0.03567  0.99013  0.89639  Biso   1.000  H
  O10      1.0000 0.13423  0.06570  0.85741  Biso   1.000  O
  H24      1.0000 0.03235  0.01389  0.83377  Biso   1.000  H
  O11      1.0000 0.15288  0.00688  0.88881  Biso   1.000  O
  C27      1.0000 0.79785  0.67093  0.88989  Biso   1.000  C
  C28      1.0000 0.57314  0.05570  0.78138  Biso   1.000  C
  C29      1.0000 0.35378  0.17516  0.30780  Biso   1.000  C
  C30      1.0000 0.35070  0.10268  0.21643  Biso   1.000  C
  C31      1.0000 0.09947  0.09794  0.92628  Biso   1.000  C
  C32      1.0000 0.72859  0.65643  0.96381  Biso   1.000  C
  C33      1.0000 0.89757  0.67966  0.88069  Biso   1.000  C
  H25      1.0000 0.51757  0.03898  0.76791  Biso   1.000  H
  H26      1.0000 0.61637  0.09200  0.73278  Biso   1.000  H
  C34      1.0000 0.53665  0.11277  0.84298  Biso   1.000  C
  O12      1.0000 0.38314  0.16987  0.37300  Biso   1.000  O
  N9       1.0000 0.37824  0.09418  0.28260  Biso   1.000  N
  O13      1.0000 0.37274  0.02978  0.18233  Biso   1.000  O
  C35      1.0000 0.15516  0.07460  0.98980  Biso   1.000  C
  H27      1.0000 0.03369  0.07556  0.95281  Biso   1.000  H
  H28      1.0000 0.09048  0.16727  0.90920  Biso   1.000  H
  H29      1.0000 0.11386  0.15930  0.88809  Biso   1.000  H
  H30      1.0000 0.02815  0.09491  0.94878  Biso   1.000  H
  H31      1.0000 0.66247  0.64875  0.96911  Biso   1.000  H
  C36      1.0000 0.76119  0.65386  0.03034  Biso   1.000  C
  H32      1.0000 0.94346  0.68776  0.83052  Biso   1.000  H
  C37      1.0000 0.92633  0.67577  0.94950  Biso   1.000  C
  O14      1.0000 0.45815  0.06656  0.90541  Biso   1.000  O
  H33      1.0000 0.59042  0.11728  0.86481  Biso   1.000  H
  H34      1.0000 0.51314  0.17706  0.81849  Biso   1.000  H
  C38      1.0000 0.37826  0.25562  0.39682  Biso   1.000  C
  C39      1.0000 0.42692  0.94429  0.21860  Biso   1.000  C
  O15      1.0000 0.25271  0.10637  0.95257  Biso   1.000  O
  H35      1.0000 0.12080  0.10638  0.03214  Biso   1.000  H
  H36      1.0000 0.15935  0.00608  0.01362  Biso   1.000  H
  O16      1.0000 0.68791  0.64997  0.10281  Biso   1.000  O
  C40      1.0000 0.85882  0.66290  0.02354  Biso   1.000  C
  H37      1.0000 0.99250  0.68208  0.94487  Biso   1.000  H
  C41      1.0000 0.41165  0.11841  0.96387  Biso   1.000  C
  C42      1.0000 0.31676  0.26146  0.47104  Biso   1.000  C
  C43      1.0000 0.43644  0.32788  0.34539  Biso   1.000  C
  H38      1.0000 0.48254  0.96099  0.23213  Biso   1.000  H
  H39      1.0000 0.38375  0.90798  0.26720  Biso   1.000  H
  C44      1.0000 0.46341  0.88721  0.15701  Biso   1.000  C
  C45      1.0000 0.31123  0.08406  0.00850  Biso   1.000  C
  C46      1.0000 0.67023  0.56536  0.15755  Biso   1.000  C
  H40      1.0000 0.87912  0.66027  0.06883  Biso   1.000  H
  H41      1.0000 0.40538  0.18616  0.93801  Biso   1.000  H
  H42      1.0000 0.45192  0.10928  0.00110  Biso   1.000  H
  C47      1.0000 0.31747  0.34309  0.49570  Biso   1.000  C
  H43      1.0000 0.27632  0.21276  0.50334  Biso   1.000  H
  C48      1.0000 0.43400  0.40637  0.37264  Biso   1.000  C
  H44      1.0000 0.47526  0.32312  0.29475  Biso   1.000  H
  O17      1.0000 0.54189  0.93341  0.09463  Biso   1.000  O
  H45      1.0000 0.40961  0.88269  0.13523  Biso   1.000  H
  H46      1.0000 0.48689  0.82291  0.18155  Biso   1.000  H
  H47      1.0000 0.31672  0.01562  0.03184  Biso   1.000  H
  H48      1.0000 0.28060  0.11547  0.05163  Biso   1.000  H
  N10      1.0000 0.73380  0.49006  0.14823  Biso   1.000  N
  N11      1.0000 0.58667  0.56966  0.21619  Biso   1.000  N
  C49      1.0000 0.37508  0.41537  0.44674  Biso   1.000  C
  H49      1.0000 0.27834  0.34855  0.54611  Biso   1.000  H
  O18      1.0000 0.48257  0.48919  0.32410  Biso   1.000  O
  C50      1.0000 0.58839  0.88164  0.03611  Biso   1.000  C
  C51      1.0000 0.70776  0.41184  0.20771  Biso   1.000  C
  C52      1.0000 0.56972  0.48623  0.26792  Biso   1.000  C
  H50      1.0000 0.37448  0.47018  0.46340  Biso   1.000  H
  H51      1.0000 0.54822  0.89064  0.99888  Biso   1.000  H
  C53      1.0000 0.68891  0.91585  0.99148  Biso   1.000  C
  H52      1.0000 0.59472  0.81381  0.06203  Biso   1.000  H
  O19      1.0000 0.77226  0.33665  0.20170  Biso   1.000  O
  N12      1.0000 0.62696  0.40459  0.26930  Biso   1.000  N
  H53      1.0000 0.68338  0.98435  0.96820  Biso   1.000  H
  H54      1.0000 0.71945  0.88443  0.94841  Biso   1.000  H
  O20      1.0000 0.74741  0.89361  0.04742  Biso   1.000  O
  C54      1.0000 0.75308  0.24849  0.26570  Biso   1.000  C
  C55      1.0000 0.84493  0.92544  0.01025  Biso   1.000  C
  C56      1.0000 0.85404  0.19144  0.25992  Biso   1.000  C
  H55      1.0000 0.72668  0.26248  0.31790  Biso   1.000  H
  H56      1.0000 0.70585  0.21315  0.25752  Biso   1.000  H
  H57      1.0000 0.75315  0.25857  0.31664  Biso   1.000  H
  H58      1.0000 0.68887  0.22754  0.27111  Biso   1.000  H
  C57      1.0000 0.83505  0.17487  0.24182  Biso   1.000  C
  H59      1.0000 0.87925  0.89352  0.96790  Biso   1.000  H
  H60      1.0000 0.84079  0.99384  0.98637  Biso   1.000  H
  C58      1.0000 0.90065  0.90204  0.07370  Biso   1.000  C
  O21      1.0000 0.89064  0.15474  0.19093  Biso   1.000  O
  H61      1.0000 0.84905  0.13848  0.30750  Biso   1.000  H
  H62      1.0000 0.90197  0.23237  0.25992  Biso   1.000  H
  H63      1.0000 0.82885  0.11615  0.28440  Biso   1.000  H
  H64      1.0000 0.89915  0.19806  0.23310  Biso   1.000  H
  O22      1.0000 0.82850  0.15648  0.16904  Biso   1.000  O
  O23      1.0000 0.86579  0.93433  0.14263  Biso   1.000  O
  O24      1.0000 0.84722  0.99309  0.11124  Biso   1.000  O
  H65      1.0000 0.96642  0.92441  0.04724  Biso   1.000  H
  H66      1.0000 0.90962  0.83269  0.09085  Biso   1.000  H
  H67      1.0000 0.88626  0.84076  0.11190  Biso   1.000  H
  H68      1.0000 0.97189  0.90514  0.05121  Biso   1.000  H
  C59      1.0000 0.84596  0.06920  0.19791  Biso   1.000  C
  C60      1.0000 0.91956  0.11087  0.13241  Biso   1.000  C
  H69      1.0000 0.96713  0.10176  0.16381  Biso   1.000  H
  H70      1.0000 0.78320  0.08725  0.18371  Biso   1.000  H
  C61      1.0000 0.90906  0.01074  0.14690  Biso   1.000  C
  C62      1.0000 0.89904  0.03499  0.13030  Biso   1.000  C
  H71      1.0000 0.83195  0.03178  0.25343  Biso   1.000  H
  H72      1.0000 0.88994  0.00044  0.18642  Biso   1.000  H
  H73      1.0000 0.93106  0.05140  0.09301  Biso   1.000  H
  H74      1.0000 0.94783  0.14887  0.07864  Biso   1.000  H
  H75      1.0000 0.96771  0.98609  0.16621  Biso   1.000  H
  H76      1.0000 0.96446  0.00979  0.10360  Biso   1.000  H
  N13      1.0000 0.24198  0.48937  0.64100  Biso   1.000  N
  C63      1.0000 0.17861  0.56527  0.64972  Biso   1.000  C
  C64      1.0000 0.21641  0.41175  0.70103  Biso   1.000  C
  O25      1.0000 0.19646  0.64976  0.59402  Biso   1.000  O
  N14      1.0000 0.09659  0.57063  0.70758  Biso   1.000  N
  O26      1.0000 0.28045  0.33690  0.69459  Biso   1.000  O
  N15      1.0000 0.13534  0.40497  0.76220  Biso   1.000  N
  C65      1.0000 0.27115  0.65560  0.52239  Biso   1.000  C
  C66      1.0000 0.07808  0.48663  0.76051  Biso   1.000  C
  C67      1.0000 0.25765  0.24558  0.75528  Biso   1.000  C
  C68      1.0000 0.24137  0.66028  0.45370  Biso   1.000  C
  C69      1.0000 0.36951  0.66098  0.51787  Biso   1.000  C
  O27      1.0000 0.99187  0.49128  0.81777  Biso   1.000  O
  C70      1.0000 0.33768  0.17145  0.73170  Biso   1.000  C
  H77      1.0000 0.25544  0.25174  0.80797  Biso   1.000  H
  H78      1.0000 0.19352  0.22758  0.75732  Biso   1.000  H
  C71      1.0000 0.31324  0.67336  0.38152  Biso   1.000  C
  H79      1.0000 0.17542  0.65484  0.45682  Biso   1.000  H
  C72      1.0000 0.44006  0.67376  0.44389  Biso   1.000  C
  H80      1.0000 0.38852  0.65611  0.56419  Biso   1.000  H
  C73      1.0000 0.94263  0.41002  0.86872  Biso   1.000  C
  O28      1.0000 0.33447  0.15816  0.65670  Biso   1.000  O
  H81      1.0000 0.32804  0.11166  0.77278  Biso   1.000  H
  H82      1.0000 0.40202  0.19174  0.72641  Biso   1.000  H
  O29      1.0000 0.28640  0.67435  0.31151  Biso   1.000  O
  C74      1.0000 0.41142  0.67990  0.37472  Biso   1.000  C
  H83      1.0000 0.50620  0.67817  0.44052  Biso   1.000  H
  C75      1.0000 0.93945  0.33085  0.84352  Biso   1.000  C
  C76      1.0000 0.89116  0.41895  0.94487  Biso   1.000  C
  C77      1.0000 0.41527  0.09635  0.62349  Biso   1.000  C
  C78      1.0000 0.23450  0.75371  0.27861  Biso   1.000  C
  H84      1.0000 0.45808  0.68811  0.32492  Biso   1.000  H
  C79      1.0000 0.88195  0.26043  0.89573  Biso   1.000  C
  H85      1.0000 0.97556  0.32519  0.79239  Biso   1.000  H
  C80      1.0000 0.83398  0.34612  0.99611  Biso   1.000  C
  H86      1.0000 0.89484  0.47287  0.96129  Biso   1.000  H
  H87      1.0000 0.43246  0.11674  0.56521  Biso   1.000  H
  H88      1.0000 0.47324  0.09905  0.64100  Biso   1.000  H
  C81      1.0000 0.38514  0.99898  0.65068  Biso   1.000  C
  N16      1.0000 0.20412  0.74532  0.21792  Biso   1.000  N
  N17      1.0000 0.22111  0.82952  0.30808  Biso   1.000  N
  O30      1.0000 0.88185  0.17423  0.87497  Biso   1.000  O
  C82      1.0000 0.82854  0.26518  0.97241  Biso   1.000  C
  H89      1.0000 0.79841  0.35135  0.04754  Biso   1.000  H
  O31      1.0000 0.31803  0.98486  0.61020  Biso   1.000  O
  H90      1.0000 0.35352  0.98474  0.70812  Biso   1.000  H
  H91      1.0000 0.44372  0.95473  0.64172  Biso   1.000  H
  C83      1.0000 0.15539  0.82443  0.18628  Biso   1.000  C
  C84      1.0000 0.17202  0.90450  0.26832  Biso   1.000  C
  C85      1.0000 0.84464  0.17558  0.81368  Biso   1.000  C
  H92      1.0000 0.79033  0.21594  0.00694  Biso   1.000  H
  C86      1.0000 0.36415  0.94263  0.54482  Biso   1.000  C
  O32      1.0000 0.11820  0.82571  0.12499  Biso   1.000  O
  N18      1.0000 0.13690  0.90701  0.20661  Biso   1.000  N
  O33      1.0000 0.15794  0.97982  0.29737  Biso   1.000  O
  N19      1.0000 0.79597  0.25468  0.78211  Biso   1.000  N
  N20      1.0000 0.86318  0.09298  0.79341  Biso   1.000  N
  C87      1.0000 0.28826  0.95108  0.49400  Biso   1.000  C
  H93      1.0000 0.42283  0.97505  0.51120  Biso   1.000  H
  H94      1.0000 0.38455  0.87587  0.56509  Biso   1.000  H
  C88      1.0000 0.11808  0.73950  0.10430  Biso   1.000  C
  C89      1.0000 0.10091  0.06392  0.26249  Biso   1.000  C
  C90      1.0000 0.76551  0.24629  0.72142  Biso   1.000  C
  C91      1.0000 0.82807  0.09549  0.73170  Biso   1.000  C
  O34      1.0000 0.21156  0.89253  0.54217  Biso   1.000  O
  H95      1.0000 0.26155  0.01701  0.47878  Biso   1.000  H
  H96      1.0000 0.32106  0.93015  0.44528  Biso   1.000  H
  C92      1.0000 0.06064  0.66908  0.15651  Biso   1.000  C
  C93      1.0000 0.17147  0.73481  0.02761  Biso   1.000  C
  H97      1.0000 0.04204  0.04581  0.25479  Biso   1.000  H
  H98      1.0000 0.14070  0.09762  0.21082  Biso   1.000  H
  C94      1.0000 0.07233  0.12613  0.31969  Biso   1.000  C
  O35      1.0000 0.71362  0.32557  0.68851  Biso   1.000  O
  N21      1.0000 0.77893  0.17049  0.69188  Biso   1.000  N
  O36      1.0000 0.84217  0.02019  0.70259  Biso   1.000  O
  C95      1.0000 0.13873  0.89855  0.50079  Biso   1.000  C
  C96      1.0000 0.05739  0.58990  0.13130  Biso   1.000  C
  H99      1.0000 0.02455  0.67482  0.20757  Biso   1.000  H
  C97      1.0000 0.16611  0.65380  0.00391  Biso   1.000  C
  H100     1.0000 0.20976  0.78398  0.99308  Biso   1.000  H
  O37      1.0000 0.99612  0.08477  0.38669  Biso   1.000  O
  H101     1.0000 0.12953  0.13163  0.33707  Biso   1.000  H
  H102     1.0000 0.04894  0.18968  0.29352  Biso   1.000  H
  C98      1.0000 0.68685  0.32657  0.61850  Biso   1.000  C
  C99      1.0000 0.89920  0.93602  0.73748  Biso   1.000  C
  C100     1.0000 0.04795  0.85505  0.55950  Biso   1.000  C
  H103     1.0000 0.12226  0.96497  0.47589  Biso   1.000  H
  H104     1.0000 0.16443  0.86464  0.45887  Biso   1.000  H
  O38      1.0000 0.00825  0.50866  0.18219  Biso   1.000  O
  C101     1.0000 0.10889  0.58099  0.05510  Biso   1.000  C
  H105     1.0000 0.20162  0.64858  0.95248  Biso   1.000  H
  C102     1.0000 0.95215  0.14487  0.44052  Biso   1.000  C
  C103     1.0000 0.75873  0.33964  0.54632  Biso   1.000  C
  C104     1.0000 0.58866  0.32009  0.62530  Biso   1.000  C
  H106     1.0000 0.95808  0.95413  0.74517  Biso   1.000  H
  H107     1.0000 0.85939  0.90230  0.78920  Biso   1.000  H
  C105     1.0000 0.92778  0.87388  0.68027  Biso   1.000  C
  O39      1.0000 0.00393  0.91517  0.61327  Biso   1.000  O
  H108     1.0000 0.06573  0.79132  0.58951  Biso   1.000  H
  H109     1.0000 0.00105  0.84994  0.53117  Biso   1.000  H
  C106     1.0000 0.92202  0.51329  0.23951  Biso   1.000  C
  H110     1.0000 0.10520  0.52707  0.03868  Biso   1.000  H
  H111     1.0000 0.93430  0.20861  0.41051  Biso   1.000  H
  H112     1.0000 0.99900  0.15000  0.46879  Biso   1.000  H
  C107     1.0000 0.86132  0.10139  0.49917  Biso   1.000  C
  C108     1.0000 0.72895  0.34441  0.47758  Biso   1.000  C
  H113     1.0000 0.82461  0.34508  0.54320  Biso   1.000  H
  C109     1.0000 0.56005  0.32618  0.55607  Biso   1.000  C
  H114     1.0000 0.54194  0.31188  0.67510  Biso   1.000  H
  H115     1.0000 0.87058  0.86838  0.66289  Biso   1.000  H
  H116     1.0000 0.95116  0.81025  0.70650  Biso   1.000  H
  N22      1.0000 0.90353  0.42931  0.29238  Biso   1.000  N
  N23      1.0000 0.86468  0.59495  0.23783  Biso   1.000  N
  O40      1.0000 0.78856  0.10741  0.45779  Biso   1.000  O
  H117     1.0000 0.87786  0.03497  0.52407  Biso   1.000  H
  H118     1.0000 0.83562  0.13530  0.54109  Biso   1.000  H
  O41      1.0000 0.80364  0.35017  0.40600  Biso   1.000  O
  C110     1.0000 0.63053  0.33896  0.48209  Biso   1.000  C
  H119     1.0000 0.49382  0.32176  0.55950  Biso   1.000  H
  C111     1.0000 0.82142  0.43465  0.35030  Biso   1.000  C
  C112     1.0000 0.78361  0.58817  0.29900  Biso   1.000  C
  C113     1.0000 0.71183  0.04892  0.50603  Biso   1.000  C
  H120     1.0000 0.61152  0.34390  0.43577  Biso   1.000  H
  N24      1.0000 0.75812  0.51055  0.35902  Biso   1.000  N
  O42      1.0000 0.71965  0.66311  0.30537  Biso   1.000  O
  C114     1.0000 0.63595  0.05729  0.45520  Biso   1.000  C
  H121     1.0000 0.73855  0.98300  0.52118  Biso   1.000  H
  H122     1.0000 0.67906  0.06979  0.55469  Biso   1.000  H
  C115     1.0000 0.74239  0.75436  0.24468  Biso   1.000  C
  O43      1.0000 0.68200  0.01507  0.38982  Biso   1.000  O
  H123     1.0000 0.57719  0.02487  0.48882  Biso   1.000  H
  H124     1.0000 0.61556  0.12414  0.43487  Biso   1.000  H
  C116     1.0000 0.66242  0.82847  0.26832  Biso   1.000  C
  H125     1.0000 0.74460  0.74820  0.19199  Biso   1.000  H
  H126     1.0000 0.80649  0.77241  0.24270  Biso   1.000  H
  C117     1.0000 0.61489  0.00103  0.34928  Biso   1.000  C
  O44      1.0000 0.66563  0.84176  0.34333  Biso   1.000  O
  H127     1.0000 0.67200  0.88829  0.22718  Biso   1.000  H
  H128     1.0000 0.59800  0.80818  0.27361  Biso   1.000  H
  C118     1.0000 0.58483  0.90357  0.37653  Biso   1.000  C
  H129     1.0000 0.64650  0.01519  0.29190  Biso   1.000  H
  H130     1.0000 0.55631  0.04519  0.35830  Biso   1.000  H
  H131     1.0000 0.56764  0.88319  0.43481  Biso   1.000  H
  H132     1.0000 0.52679  0.90088  0.35902  Biso   1.000  H
  Ne1      1.0000 0.00004  0.49998  0.50000  Biso   1.000  Ne
  He1      1.0000 0.95190  0.55747  0.47434  Biso   1.000  He
  He2      1.0000 0.10692  0.08947  0.70124  Biso   1.000  He
  He3      1.0000 0.99239  0.51962  0.46137  Biso   1.000  He
  He4      1.0000 0.89988  0.88641  0.32973  Biso   1.000  He
  Ar1      1.0000 0.00002  0.49996  0.50000  Biso   1.000  Ar
  Ne2      1.0000 0.50005  0.49997  0.00001  Biso   1.000  Ne
  He5      1.0000 0.45161  0.57853  0.94889  Biso   1.000  He
  He6      1.0000 0.60012  0.03879  0.32806  Biso   1.000  He
  He7      1.0000 0.53051  0.45215  0.04486  Biso   1.000  He
  He8      1.0000 0.40278  0.90875  0.79677  Biso   1.000  He
  Ar2      1.0000 0.50004  0.49997  0.00001  Biso   1.000  Ar
