data_image0
_cell_length_a       11.601
_cell_length_b       13.783
_cell_length_c       19.737
_cell_angle_alpha    98.26
_cell_angle_beta     104.05
_cell_angle_gamma    105.72

_symmetry_space_group_name_H-M    "P 1"
_symmetry_int_tables_number       1

loop_
  _symmetry_equiv_pos_as_xyz
  'x, y, z'

loop_
  _atom_site_label
  _atom_site_occupancy
  _atom_site_fract_x
  _atom_site_fract_y
  _atom_site_fract_z
  _atom_site_thermal_displace_type
  _atom_site_B_iso_or_equiv
  _atom_site_type_symbol
  C1       1.0000 0.62785  0.35712  0.42430  Biso   1.000  C
  C2       1.0000 0.66244  0.27394  0.44349  Biso   1.000  C
  H1       1.0000 0.54705  0.36101  0.42350  Biso   1.000  H
  C3       1.0000 0.71163  0.43517  0.40624  Biso   1.000  C
  O1       1.0000 0.58735  0.19140  0.46000  Biso   1.000  O
  C4       1.0000 0.78242  0.26934  0.44580  Biso   1.000  C
  H2       1.0000 0.68731  0.49190  0.39290  Biso   1.000  H
  C5       1.0000 0.82929  0.43083  0.40753  Biso   1.000  C
  C6       1.0000 0.46332  0.19114  0.45919  Biso   1.000  C
  O2       1.0000 0.80572  0.18269  0.46289  Biso   1.000  O
  C7       1.0000 0.86582  0.34742  0.42763  Biso   1.000  C
  C8       1.0000 0.92009  0.51342  0.38791  Biso   1.000  C
  C9       1.0000 0.39524  0.08785  0.46959  Biso   1.000  C
  H3       1.0000 0.41919  0.20261  0.41289  Biso   1.000  H
  H4       1.0000 0.46726  0.24703  0.49821  Biso   1.000  H
  C10      1.0000 0.93304  0.18576  0.49242  Biso   1.000  C
  H5       1.0000 0.94712  0.34433  0.42881  Biso   1.000  H
  O3       1.0000 0.91666  0.47740  0.31294  Biso   1.000  O
  H6       1.0000 0.89720  0.57771  0.39279  Biso   1.000  H
  H7       1.0000 0.00555  0.52844  0.42034  Biso   1.000  H
  O4       1.0000 0.38189  0.01082  0.40903  Biso   1.000  O
  H8       1.0000 0.44322  0.07401  0.51391  Biso   1.000  H
  H9       1.0000 0.31171  0.08685  0.47393  Biso   1.000  H
  H10      1.0000 0.94294  0.16627  0.53932  Biso   1.000  H
  H11      1.0000 0.98978  0.25713  0.50030  Biso   1.000  H
  C11      1.0000 0.96799  0.11365  0.44312  Biso   1.000  C
  C12      1.0000 0.01563  0.52949  0.29552  Biso   1.000  C
  C13      1.0000 0.28120  0.91877  0.39874  Biso   1.000  C
  O5       1.0000 0.97780  0.15422  0.38100  Biso   1.000  O
  H12      1.0000 0.90361  0.04451  0.42859  Biso   1.000  H
  H13      1.0000 0.04917  0.10627  0.46804  Biso   1.000  H
  O6       1.0000 0.10613  0.59514  0.33743  Biso   1.000  O
  C14      1.0000 0.00685  0.49985  0.21743  Biso   1.000  C
  C15      1.0000 0.27631  0.84264  0.33561  Biso   1.000  C
  H14      1.0000 0.20114  0.93438  0.39059  Biso   1.000  H
  H15      1.0000 0.29403  0.88973  0.44199  Biso   1.000  H
  C16      1.0000 0.05226  0.12291  0.33480  Biso   1.000  C
  N1       1.0000 0.89905  0.43445  0.17188  Biso   1.000  N
  C17      1.0000 0.11244  0.54478  0.19744  Biso   1.000  C
  O7       1.0000 0.26211  0.88889  0.27521  Biso   1.000  O
  H16      1.0000 0.35448  0.82396  0.34472  Biso   1.000  H
  H17      1.0000 0.20472  0.77894  0.32650  Biso   1.000  H
  C18      1.0000 0.98800  0.02836  0.28882  Biso   1.000  C
  H18      1.0000 0.07314  0.17563  0.30672  Biso   1.000  H
  H19      1.0000 0.13192  0.11996  0.36573  Biso   1.000  H
  C19      1.0000 0.89632  0.41343  0.10295  Biso   1.000  C
  C20      1.0000 0.10615  0.52123  0.12584  Biso   1.000  C
  H20      1.0000 0.18684  0.59042  0.23201  Biso   1.000  H
  C21      1.0000 0.22678  0.81567  0.20896  Biso   1.000  C
  O8       1.0000 0.87787  0.02861  0.23673  Biso   1.000  O
  H21      1.0000 0.96341  0.97659  0.31701  Biso   1.000  H
  H22      1.0000 0.04423  0.00694  0.26363  Biso   1.000  H
  C22      1.0000 0.77770  0.34398  0.04791  Biso   1.000  C
  C23      1.0000 0.99685  0.45353  0.07782  Biso   1.000  C
  H23      1.0000 0.17591  0.55118  0.11008  Biso   1.000  H
  C24      1.0000 0.24199  0.87441  0.15178  Biso   1.000  C
  H24      1.0000 0.13863  0.77144  0.19760  Biso   1.000  H
  H25      1.0000 0.28082  0.77075  0.21223  Biso   1.000  H
  C25      1.0000 0.80951  0.92664  0.19599  Biso   1.000  C
  O9       1.0000 0.69450  0.29155  0.07643  Biso   1.000  O
  O10      1.0000 0.76153  0.33728  0.98435  Biso   1.000  O
  H26      1.0000 0.99051  0.43471  0.02851  Biso   1.000  H
  O11      1.0000 0.37468  0.90833  0.15714  Biso   1.000  O
  H27      1.0000 0.19273  0.82968  0.10392  Biso   1.000  H
  H28      1.0000 0.21213  0.93495  0.15880  Biso   1.000  H
  H29      1.0000 0.77407  0.88385  0.22681  Biso   1.000  H
  H30      1.0000 0.86600  0.89514  0.17740  Biso   1.000  H
  C26      1.0000 0.70688  0.92972  0.13543  Biso   1.000  C
  C27      1.0000 0.57691  0.22277  0.02460  Biso   1.000  C
  C28      1.0000 0.41504  0.98196  0.12193  Biso   1.000  C
  O12      1.0000 0.60977  0.95394  0.16110  Biso   1.000  O
  H31      1.0000 0.74060  0.98264  0.11008  Biso   1.000  H
  H32      1.0000 0.67165  0.86175  0.10102  Biso   1.000  H
  C29      1.0000 0.52024  0.14028  0.05895  Biso   1.000  C
  H33      1.0000 0.51882  0.26241  0.01061  Biso   1.000  H
  H34      1.0000 0.59363  0.19164  0.98103  Biso   1.000  H
  C30      1.0000 0.54193  0.00644  0.12353  Biso   1.000  C
  C31      1.0000 0.34253  0.03584  0.08720  Biso   1.000  C
  C32      1.0000 0.59263  0.08418  0.09218  Biso   1.000  C
  C33      1.0000 0.39512  0.11537  0.05676  Biso   1.000  C
  H35      1.0000 0.25613  0.01821  0.08420  Biso   1.000  H
  H36      1.0000 0.67800  0.10000  0.09309  Biso   1.000  H
  H37      1.0000 0.34502  0.15284  0.03441  Biso   1.000  H
  C34      1.0000 0.37234  0.64295  0.57571  Biso   1.000  C
  C35      1.0000 0.33777  0.72615  0.55658  Biso   1.000  C
  H38      1.0000 0.45314  0.63906  0.57651  Biso   1.000  H
  C36      1.0000 0.28858  0.56498  0.59377  Biso   1.000  C
  O13      1.0000 0.41295  0.80875  0.54001  Biso   1.000  O
  C37      1.0000 0.21780  0.73075  0.55427  Biso   1.000  C
  H39      1.0000 0.31296  0.50817  0.60711  Biso   1.000  H
  C38      1.0000 0.17090  0.56924  0.59248  Biso   1.000  C
  C39      1.0000 0.53686  0.80893  0.54082  Biso   1.000  C
  O14      1.0000 0.19449  0.81740  0.53717  Biso   1.000  O
  C40      1.0000 0.13437  0.65265  0.57239  Biso   1.000  C
  C41      1.0000 0.08009  0.48665  0.61210  Biso   1.000  C
  C42      1.0000 0.60498  0.91223  0.53047  Biso   1.000  C
  H40      1.0000 0.58100  0.79746  0.58712  Biso   1.000  H
  H41      1.0000 0.53293  0.75304  0.50180  Biso   1.000  H
  C43      1.0000 0.06718  0.81432  0.50764  Biso   1.000  C
  H42      1.0000 0.05307  0.65574  0.57121  Biso   1.000  H
  O15      1.0000 0.08355  0.52269  0.68713  Biso   1.000  O
  H43      1.0000 0.10299  0.42236  0.60722  Biso   1.000  H
  H44      1.0000 0.99466  0.47165  0.57973  Biso   1.000  H
  O16      1.0000 0.61830  0.98925  0.59098  Biso   1.000  O
  H45      1.0000 0.55697  0.92606  0.48610  Biso   1.000  H
  H46      1.0000 0.68850  0.91324  0.52613  Biso   1.000  H
  H47      1.0000 0.05724  0.83380  0.46070  Biso   1.000  H
  H48      1.0000 0.01041  0.74294  0.49971  Biso   1.000  H
  C44      1.0000 0.03220  0.88642  0.55690  Biso   1.000  C
  C45      1.0000 0.98459  0.47059  0.70455  Biso   1.000  C
  C46      1.0000 0.71898  0.08130  0.60127  Biso   1.000  C
  O17      1.0000 0.02241  0.84586  0.61907  Biso   1.000  O
  H49      1.0000 0.09657  0.95556  0.57142  Biso   1.000  H
  H50      1.0000 0.95104  0.89382  0.53203  Biso   1.000  H
  O18      1.0000 0.89405  0.40493  0.66258  Biso   1.000  O
  C47      1.0000 0.99337  0.50024  0.78264  Biso   1.000  C
  C48      1.0000 0.72388  0.15743  0.66441  Biso   1.000  C
  H51      1.0000 0.79904  0.06569  0.60942  Biso   1.000  H
  H52      1.0000 0.70616  0.11033  0.55802  Biso   1.000  H
  C49      1.0000 0.94793  0.87716  0.66521  Biso   1.000  C
  N2       1.0000 0.10118  0.56571  0.82819  Biso   1.000  N
  C50      1.0000 0.88775  0.45529  0.80257  Biso   1.000  C
  O19      1.0000 0.73810  0.11120  0.72486  Biso   1.000  O
  H53      1.0000 0.64573  0.17613  0.65535  Biso   1.000  H
  H54      1.0000 0.79547  0.22113  0.67352  Biso   1.000  H
  C51      1.0000 0.01224  0.97180  0.71125  Biso   1.000  C
  H55      1.0000 0.92707  0.82446  0.69335  Biso   1.000  H
  H56      1.0000 0.86830  0.88013  0.63434  Biso   1.000  H
  C52      1.0000 0.10390  0.58666  0.89711  Biso   1.000  C
  C53      1.0000 0.89404  0.47884  0.87417  Biso   1.000  C
  H57      1.0000 0.81335  0.40965  0.76800  Biso   1.000  H
  C54      1.0000 0.77340  0.18440  0.79105  Biso   1.000  C
  O20      1.0000 0.12235  0.97148  0.76334  Biso   1.000  O
  H58      1.0000 0.95598  0.99314  0.73644  Biso   1.000  H
  H59      1.0000 0.03686  0.02348  0.68300  Biso   1.000  H
  C55      1.0000 0.22251  0.65611  0.95215  Biso   1.000  C
  C56      1.0000 0.00336  0.54662  0.92219  Biso   1.000  C
  H60      1.0000 0.82428  0.44889  0.88993  Biso   1.000  H
  C57      1.0000 0.75820  0.12566  0.84823  Biso   1.000  C
  H61      1.0000 0.86155  0.22863  0.80241  Biso   1.000  H
  H62      1.0000 0.71939  0.22934  0.78783  Biso   1.000  H
  C58      1.0000 0.19067  0.07343  0.80402  Biso   1.000  C
  O21      1.0000 0.30571  0.70853  0.92364  Biso   1.000  O
  O22      1.0000 0.23866  0.66279  0.01566  Biso   1.000  O
  H63      1.0000 0.00970  0.56538  0.97155  Biso   1.000  H
  O23      1.0000 0.62562  0.09175  0.84293  Biso   1.000  O
  H64      1.0000 0.80751  0.17048  0.89615  Biso   1.000  H
  H65      1.0000 0.78805  0.06512  0.84121  Biso   1.000  H
  H66      1.0000 0.22611  0.11622  0.77320  Biso   1.000  H
  H67      1.0000 0.13419  0.10493  0.82262  Biso   1.000  H
  C59      1.0000 0.29331  0.07035  0.86458  Biso   1.000  C
  C60      1.0000 0.42327  0.77730  0.97541  Biso   1.000  C
  C61      1.0000 0.58518  0.01813  0.87814  Biso   1.000  C
  O24      1.0000 0.39042  0.04613  0.83891  Biso   1.000  O
  H68      1.0000 0.25959  0.01743  0.88993  Biso   1.000  H
  H69      1.0000 0.32856  0.13833  0.89904  Biso   1.000  H
  C62      1.0000 0.47994  0.85979  0.94106  Biso   1.000  C
  H70      1.0000 0.48140  0.73767  0.98946  Biso   1.000  H
  H71      1.0000 0.40658  0.80845  0.01904  Biso   1.000  H
  C63      1.0000 0.45828  0.99370  0.87648  Biso   1.000  C
  C64      1.0000 0.65769  0.96425  0.91287  Biso   1.000  C
  C65      1.0000 0.40756  0.91589  0.90783  Biso   1.000  C
  C66      1.0000 0.60507  0.88469  0.94326  Biso   1.000  C
  H72      1.0000 0.74405  0.98186  0.91582  Biso   1.000  H
  H73      1.0000 0.32218  0.90007  0.90692  Biso   1.000  H
  H74      1.0000 0.65522  0.84733  0.96566  Biso   1.000  H
  Ne1      1.0000 0.69989  0.19016  0.26110  Biso   1.000  Ne
  He1      1.0000 0.57500  0.04261  0.31359  Biso   1.000  He
  He2      1.0000 0.87378  0.25110  0.24676  Biso   1.000  He
  He3      1.0000 0.71282  0.25210  0.25230  Biso   1.000  He
  Ar1      1.0000 0.70598  0.19733  0.26619  Biso   1.000  Ar
  Ne2      1.0000 0.30031  0.80993  0.73894  Biso   1.000  Ne
  He4      1.0000 0.11647  0.74687  0.75193  Biso   1.000  He
  He5      1.0000 0.33956  0.78369  0.73587  Biso   1.000  He
  He6      1.0000 0.41074  0.91177  0.70211  Biso   1.000  He
  Ar2      1.0000 0.29422  0.80274  0.73384  Biso   1.000  Ar
