data_image0
_cell_length_a       12.35
_cell_length_b       17.709
_cell_length_c       19.45
_cell_angle_alpha    64.83
_cell_angle_beta     84.17
_cell_angle_gamma    80.87

_symmetry_space_group_name_H-M    "P 1"
_symmetry_int_tables_number       1

loop_
  _symmetry_equiv_pos_as_xyz
  'x, y, z'

loop_
  _atom_site_label
  _atom_site_occupancy
  _atom_site_fract_x
  _atom_site_fract_y
  _atom_site_fract_z
  _atom_site_thermal_displace_type
  _atom_site_B_iso_or_equiv
  _atom_site_type_symbol
  O1       1.0000 0.82313  0.53942  0.33638  Biso   1.000  O
  C1       1.0000 0.92795  0.54723  0.30727  Biso   1.000  C
  H1       1.0000 0.80793  0.49801  0.33899  Biso   1.000  H
  C2       1.0000 0.99774  0.48209  0.29772  Biso   1.000  C
  C3       1.0000 0.96178  0.62622  0.28618  Biso   1.000  C
  C4       1.0000 0.95915  0.40102  0.32171  Biso   1.000  C
  C5       1.0000 0.10467  0.49721  0.26281  Biso   1.000  C
  O2       1.0000 0.88962  0.68656  0.29658  Biso   1.000  O
  C6       1.0000 0.06899  0.64022  0.25457  Biso   1.000  C
  N1       1.0000 0.85667  0.39083  0.33911  Biso   1.000  N
  H2       1.0000 0.00952  0.35482  0.32467  Biso   1.000  H
  C7       1.0000 0.17875  0.42606  0.24917  Biso   1.000  C
  C8       1.0000 0.14058  0.57463  0.24201  Biso   1.000  C
  H3       1.0000 0.91689  0.73104  0.27902  Biso   1.000  H
  C9       1.0000 0.10551  0.72173  0.23581  Biso   1.000  C
  C10      1.0000 0.82457  0.30900  0.36810  Biso   1.000  C
  H4       1.0000 0.14106  0.37731  0.26708  Biso   1.000  H
  H5       1.0000 0.24517  0.41232  0.27612  Biso   1.000  H
  H6       1.0000 0.19621  0.44415  0.19579  Biso   1.000  H
  C11      1.0000 0.25055  0.59501  0.20028  Biso   1.000  C
  N2       1.0000 0.03689  0.78731  0.23138  Biso   1.000  N
  H7       1.0000 0.17992  0.72672  0.22671  Biso   1.000  H
  C12      1.0000 0.73417  0.29670  0.33672  Biso   1.000  C
  C13      1.0000 0.87744  0.24125  0.42910  Biso   1.000  C
  H8       1.0000 0.26038  0.65122  0.19101  Biso   1.000  H
  H9       1.0000 0.25201  0.59041  0.15270  Biso   1.000  H
  H10      1.0000 0.30853  0.55612  0.23081  Biso   1.000  H
  C14      1.0000 0.07788  0.86344  0.21711  Biso   1.000  C
  N3       1.0000 0.68497  0.36802  0.27458  Biso   1.000  N
  C15      1.0000 0.69940  0.21706  0.36668  Biso   1.000  C
  C16      1.0000 0.84236  0.16302  0.45798  Biso   1.000  C
  H11      1.0000 0.93653  0.24925  0.45019  Biso   1.000  H
  C17      1.0000 0.02941  0.93970  0.16310  Biso   1.000  C
  C18      1.0000 0.16258  0.86382  0.25957  Biso   1.000  C
  C19      1.0000 0.60596  0.36433  0.23717  Biso   1.000  C
  C20      1.0000 0.75321  0.15056  0.42608  Biso   1.000  C
  H12      1.0000 0.63966  0.20875  0.34650  Biso   1.000  H
  O3       1.0000 0.88778  0.09372  0.51761  Biso   1.000  O
  N4       1.0000 0.94265  0.93531  0.12200  Biso   1.000  N
  C21      1.0000 0.06983  0.01492  0.14917  Biso   1.000  C
  C22      1.0000 0.20041  0.93823  0.24729  Biso   1.000  C
  H13      1.0000 0.19394  0.81342  0.29670  Biso   1.000  H
  C23      1.0000 0.55697  0.43820  0.17470  Biso   1.000  C
  H14      1.0000 0.58031  0.31303  0.25082  Biso   1.000  H
  O4       1.0000 0.72546  0.07002  0.45849  Biso   1.000  O
  C24      1.0000 0.98214  0.10045  0.55189  Biso   1.000  C
  C25      1.0000 0.89150  0.00024  0.06998  Biso   1.000  C
  C26      1.0000 0.15471  0.01540  0.18982  Biso   1.000  C
  H15      1.0000 0.03866  0.06523  0.11199  Biso   1.000  H
  O5       1.0000 0.28319  0.94375  0.28680  Biso   1.000  O
  C27      1.0000 0.46743  0.43441  0.13490  Biso   1.000  C
  C28      1.0000 0.59696  0.51471  0.15400  Biso   1.000  C
  C29      1.0000 0.64987  0.05095  0.41909  Biso   1.000  C
  H16      1.0000 0.96350  0.14196  0.57287  Biso   1.000  H
  C30      1.0000 0.01590  0.01526  0.61386  Biso   1.000  C
  H17      1.0000 0.04173  0.11760  0.51431  Biso   1.000  H
  C31      1.0000 0.80232  0.99313  0.03070  Biso   1.000  C
  H18      1.0000 0.91196  0.05304  0.05730  Biso   1.000  H
  O6       1.0000 0.19945  0.08531  0.18021  Biso   1.000  O
  C32      1.0000 0.32442  0.86730  0.34991  Biso   1.000  C
  C33      1.0000 0.42825  0.34973  0.15707  Biso   1.000  C
  C34      1.0000 0.41784  0.50792  0.07868  Biso   1.000  C
  O7       1.0000 0.68061  0.52371  0.18919  Biso   1.000  O
  C35      1.0000 0.54944  0.58873  0.09369  Biso   1.000  C
  H19      1.0000 0.67854  0.06033  0.36821  Biso   1.000  H
  H20      1.0000 0.58018  0.08622  0.41528  Biso   1.000  H
  C36      1.0000 0.63547  0.95930  0.46480  Biso   1.000  C
  H21      1.0000 0.95613  0.99902  0.65070  Biso   1.000  H
  H22      1.0000 0.03396  0.97484  0.59237  Biso   1.000  H
  H23      1.0000 0.07859  0.01736  0.63808  Biso   1.000  H
  C37      1.0000 0.77166  0.91359  0.04952  Biso   1.000  C
  C38      1.0000 0.74460  0.06596  0.97260  Biso   1.000  C
  C39      1.0000 0.16090  0.16395  0.11808  Biso   1.000  C
  H24      1.0000 0.35599  0.82463  0.33217  Biso   1.000  H
  H25      1.0000 0.26552  0.84572  0.38692  Biso   1.000  H
  C40      1.0000 0.41005  0.88964  0.38470  Biso   1.000  C
  H26      1.0000 0.47244  0.30704  0.19670  Biso   1.000  H
  H27      1.0000 0.43463  0.33660  0.11358  Biso   1.000  H
  H28      1.0000 0.35292  0.35193  0.17487  Biso   1.000  H
  C41      1.0000 0.45874  0.58620  0.05787  Biso   1.000  C
  C42      1.0000 0.31991  0.50692  0.03729  Biso   1.000  C
  H29      1.0000 0.71091  0.45799  0.23200  Biso   1.000  H
  O8       1.0000 0.59373  0.66099  0.07442  Biso   1.000  O
  H30      1.0000 0.58536  0.94353  0.44007  Biso   1.000  H
  H31      1.0000 0.60673  0.95114  0.51488  Biso   1.000  H
  H32      1.0000 0.70518  0.92521  0.46827  Biso   1.000  H
  C43      1.0000 0.68701  0.90348  0.01302  Biso   1.000  C
  O9       1.0000 0.82471  0.84170  0.10261  Biso   1.000  O
  C44      1.0000 0.65999  0.05646  0.93650  Biso   1.000  C
  C45      1.0000 0.78066  0.15165  0.95333  Biso   1.000  C
  H33      1.0000 0.08311  0.17933  0.12541  Biso   1.000  H
  H34      1.0000 0.17276  0.15862  0.07021  Biso   1.000  H
  C46      1.0000 0.22599  0.22983  0.11808  Biso   1.000  C
  H35      1.0000 0.43961  0.84055  0.42716  Biso   1.000  H
  H36      1.0000 0.37775  0.93202  0.40181  Biso   1.000  H
  H37      1.0000 0.46784  0.91087  0.34758  Biso   1.000  H
  C47      1.0000 0.40855  0.66364  0.99932  Biso   1.000  C
  H38      1.0000 0.29705  0.56277  0.00051  Biso   1.000  H
  H39      1.0000 0.26046  0.48702  0.07328  Biso   1.000  H
  H40      1.0000 0.34057  0.47020  0.01200  Biso   1.000  H
  H41      1.0000 0.54895  0.70903  0.03297  Biso   1.000  H
  C48      1.0000 0.63069  0.97507  0.95549  Biso   1.000  C
  O10      1.0000 0.66262  0.82492  0.03269  Biso   1.000  O
  H42      1.0000 0.86892  0.84800  0.12802  Biso   1.000  H
  C49      1.0000 0.59906  0.13298  0.87448  Biso   1.000  C
  H43      1.0000 0.84018  0.14467  0.98448  Biso   1.000  H
  H44      1.0000 0.72016  0.18798  0.96248  Biso   1.000  H
  H45      1.0000 0.80437  0.17626  0.90068  Biso   1.000  H
  H46      1.0000 0.20314  0.28311  0.07731  Biso   1.000  H
  H47      1.0000 0.30279  0.21356  0.11108  Biso   1.000  H
  H48      1.0000 0.21306  0.23464  0.16572  Biso   1.000  H
  N5       1.0000 0.44843  0.73390  0.97197  Biso   1.000  N
  H49      1.0000 0.34325  0.66227  0.98022  Biso   1.000  H
  C50      1.0000 0.54241  0.96436  0.91768  Biso   1.000  C
  H50      1.0000 0.60083  0.84007  0.99500  Biso   1.000  H
  H51      1.0000 0.54339  0.11538  0.85572  Biso   1.000  H
  H52      1.0000 0.64998  0.15955  0.83372  Biso   1.000  H
  H53      1.0000 0.56581  0.17197  0.89523  Biso   1.000  H
  C51      1.0000 0.39665  0.80585  0.91143  Biso   1.000  C
  N6       1.0000 0.51518  0.89207  0.93059  Biso   1.000  N
  H54      1.0000 0.50348  0.01227  0.88238  Biso   1.000  H
  C52      1.0000 0.42883  0.88478  0.89108  Biso   1.000  C
  C53      1.0000 0.31286  0.79884  0.87118  Biso   1.000  C
  C54      1.0000 0.37431  0.95445  0.83212  Biso   1.000  C
  C55      1.0000 0.25890  0.86743  0.81433  Biso   1.000  C
  H55      1.0000 0.29312  0.74586  0.88363  Biso   1.000  H
  C56      1.0000 0.29114  0.94804  0.79318  Biso   1.000  C
  H56      1.0000 0.39545  0.00725  0.81871  Biso   1.000  H
  O11      1.0000 0.17636  0.86456  0.77402  Biso   1.000  O
  O12      1.0000 0.23438  0.01336  0.73622  Biso   1.000  O
  C57      1.0000 0.13772  0.78422  0.79830  Biso   1.000  C
  C58      1.0000 0.25884  0.09698  0.71649  Biso   1.000  C
  H57      1.0000 0.11261  0.76374  0.85128  Biso   1.000  H
  H58      1.0000 0.19616  0.74336  0.79278  Biso   1.000  H
  C59      1.0000 0.04365  0.79765  0.74821  Biso   1.000  C
  H59      1.0000 0.33509  0.10137  0.69978  Biso   1.000  H
  H60      1.0000 0.24500  0.11085  0.75998  Biso   1.000  H
  C60      1.0000 0.18467  0.15577  0.65311  Biso   1.000  C
  H61      1.0000 0.98685  0.83867  0.75390  Biso   1.000  H
  H62      1.0000 0.01487  0.74548  0.76288  Biso   1.000  H
  H63      1.0000 0.06978  0.81734  0.69608  Biso   1.000  H
  H64      1.0000 0.19852  0.21256  0.63810  Biso   1.000  H
  H65      1.0000 0.10952  0.15078  0.67039  Biso   1.000  H
  H66      1.0000 0.19909  0.14125  0.61041  Biso   1.000  H
  O13      1.0000 0.17673  0.46062  0.66360  Biso   1.000  O
  C61      1.0000 0.07189  0.45287  0.69271  Biso   1.000  C
  H67      1.0000 0.19194  0.50204  0.66099  Biso   1.000  H
  C62      1.0000 0.03800  0.37383  0.71380  Biso   1.000  C
  C63      1.0000 0.00212  0.51795  0.70226  Biso   1.000  C
  O14      1.0000 0.11023  0.31354  0.70339  Biso   1.000  O
  C64      1.0000 0.93079  0.35982  0.74541  Biso   1.000  C
  C65      1.0000 0.04069  0.59907  0.67827  Biso   1.000  C
  C66      1.0000 0.89518  0.50289  0.73716  Biso   1.000  C
  H68      1.0000 0.08296  0.26906  0.72096  Biso   1.000  H
  C67      1.0000 0.89434  0.27837  0.76417  Biso   1.000  C
  C68      1.0000 0.85919  0.42547  0.75797  Biso   1.000  C
  N7       1.0000 0.14318  0.60927  0.66087  Biso   1.000  N
  H69      1.0000 0.99026  0.64522  0.67531  Biso   1.000  H
  C69      1.0000 0.82110  0.57404  0.75081  Biso   1.000  C
  N8       1.0000 0.96289  0.21273  0.76860  Biso   1.000  N
  H70      1.0000 0.81993  0.27338  0.77326  Biso   1.000  H
  C70      1.0000 0.74931  0.40503  0.79970  Biso   1.000  C
  C71      1.0000 0.17529  0.69104  0.63188  Biso   1.000  C
  H71      1.0000 0.85880  0.62273  0.73290  Biso   1.000  H
  H72      1.0000 0.75468  0.58778  0.72386  Biso   1.000  H
  H73      1.0000 0.80356  0.55595  0.80419  Biso   1.000  H
  C72      1.0000 0.92197  0.13666  0.78287  Biso   1.000  C
  H74      1.0000 0.73938  0.34888  0.80896  Biso   1.000  H
  H75      1.0000 0.74776  0.40969  0.84728  Biso   1.000  H
  H76      1.0000 0.69132  0.44398  0.76917  Biso   1.000  H
  C73      1.0000 0.26568  0.70339  0.66326  Biso   1.000  C
  C74      1.0000 0.12241  0.75885  0.57088  Biso   1.000  C
  C75      1.0000 0.97045  0.06034  0.83688  Biso   1.000  C
  C76      1.0000 0.83720  0.13622  0.74040  Biso   1.000  C
  N9       1.0000 0.31488  0.63208  0.72540  Biso   1.000  N
  C77      1.0000 0.30036  0.78303  0.63330  Biso   1.000  C
  C78      1.0000 0.15750  0.83702  0.54200  Biso   1.000  C
  H77      1.0000 0.06331  0.75084  0.54979  Biso   1.000  H
  N10      1.0000 0.05711  0.06479  0.87798  Biso   1.000  N
  C79      1.0000 0.93003  0.98512  0.85080  Biso   1.000  C
  C80      1.0000 0.79944  0.06187  0.75268  Biso   1.000  C
  H78      1.0000 0.80591  0.18668  0.70328  Biso   1.000  H
  C81      1.0000 0.39388  0.63577  0.76280  Biso   1.000  C
  C82      1.0000 0.24656  0.84954  0.57389  Biso   1.000  C
  H79      1.0000 0.36018  0.79135  0.65348  Biso   1.000  H
  O15      1.0000 0.11207  0.90638  0.48237  Biso   1.000  O
  C83      1.0000 0.10834  0.99986  0.93000  Biso   1.000  C
  C84      1.0000 0.84515  0.98464  0.81016  Biso   1.000  C
  H80      1.0000 0.96111  0.93486  0.88798  Biso   1.000  H
  O16      1.0000 0.71665  0.05635  0.71317  Biso   1.000  O
  H81      1.0000 0.41945  0.68707  0.74916  Biso   1.000  H
  C85      1.0000 0.44290  0.56184  0.82528  Biso   1.000  C
  O17      1.0000 0.27440  0.93003  0.54149  Biso   1.000  O
  C86      1.0000 0.01771  0.89965  0.44809  Biso   1.000  C
  C87      1.0000 0.19753  0.00697  0.96928  Biso   1.000  C
  H82      1.0000 0.08788  0.94706  0.94267  Biso   1.000  H
  O18      1.0000 0.80031  0.91478  0.81977  Biso   1.000  O
  C88      1.0000 0.67544  0.13274  0.65007  Biso   1.000  C
  C89      1.0000 0.53242  0.56568  0.86507  Biso   1.000  C
  C90      1.0000 0.40289  0.48538  0.84597  Biso   1.000  C
  C91      1.0000 0.34998  0.94915  0.58088  Biso   1.000  C
  H83      1.0000 0.03626  0.85813  0.42711  Biso   1.000  H
  C92      1.0000 0.98395  0.98487  0.38606  Biso   1.000  C
  H84      1.0000 0.95804  0.88244  0.48566  Biso   1.000  H
  C93      1.0000 0.22811  0.08650  0.95046  Biso   1.000  C
  C94      1.0000 0.25526  0.93408  0.02738  Biso   1.000  C
  C95      1.0000 0.83895  0.83615  0.88190  Biso   1.000  C
  H85      1.0000 0.64385  0.17546  0.66781  Biso   1.000  H
  H86      1.0000 0.73433  0.15438  0.61306  Biso   1.000  H
  C96      1.0000 0.58972  0.11046  0.61528  Biso   1.000  C
  C97      1.0000 0.58201  0.49218  0.92130  Biso   1.000  C
  C98      1.0000 0.57159  0.65037  0.84290  Biso   1.000  C
  O19      1.0000 0.31915  0.47638  0.81078  Biso   1.000  O
  C99      1.0000 0.45041  0.41136  0.90629  Biso   1.000  C
  H87      1.0000 0.32122  0.93976  0.63176  Biso   1.000  H
  H88      1.0000 0.41968  0.91382  0.58469  Biso   1.000  H
  C100     1.0000 0.36439  0.04074  0.53518  Biso   1.000  C
  H89      1.0000 0.92126  0.98274  0.36190  Biso   1.000  H
  H90      1.0000 0.96589  0.02526  0.40761  Biso   1.000  H
  H91      1.0000 0.04364  0.00108  0.34928  Biso   1.000  H
  O20      1.0000 0.17514  0.15840  0.89736  Biso   1.000  O
  C101     1.0000 0.31286  0.09656  0.98696  Biso   1.000  C
  C102     1.0000 0.33978  0.94364  0.06348  Biso   1.000  C
  C103     1.0000 0.21911  0.84845  0.04665  Biso   1.000  C
  H92      1.0000 0.91674  0.82077  0.87457  Biso   1.000  H
  H93      1.0000 0.82701  0.84148  0.92977  Biso   1.000  H
  C104     1.0000 0.77386  0.77026  0.88190  Biso   1.000  C
  H94      1.0000 0.56024  0.15955  0.57281  Biso   1.000  H
  H95      1.0000 0.62202  0.06808  0.59817  Biso   1.000  H
  H96      1.0000 0.53193  0.08923  0.65240  Biso   1.000  H
  C105     1.0000 0.54112  0.41384  0.94210  Biso   1.000  C
  C106     1.0000 0.67986  0.49317  0.96268  Biso   1.000  C
  H97      1.0000 0.52741  0.69306  0.80328  Biso   1.000  H
  H98      1.0000 0.56513  0.66349  0.88639  Biso   1.000  H
  H99      1.0000 0.64685  0.64819  0.82505  Biso   1.000  H
  H100     1.0000 0.28887  0.54205  0.76798  Biso   1.000  H
  O21      1.0000 0.40613  0.33905  0.92556  Biso   1.000  O
  H101     1.0000 0.41448  0.05657  0.55991  Biso   1.000  H
  H102     1.0000 0.39304  0.04896  0.48509  Biso   1.000  H
  H103     1.0000 0.29468  0.07483  0.53171  Biso   1.000  H
  H104     1.0000 0.13092  0.15210  0.87195  Biso   1.000  H
  O22      1.0000 0.33722  0.17517  0.96729  Biso   1.000  O
  C107     1.0000 0.36908  0.02502  0.04449  Biso   1.000  C
  C108     1.0000 0.40071  0.86711  0.12550  Biso   1.000  C
  H105     1.0000 0.15968  0.85537  0.01550  Biso   1.000  H
  H106     1.0000 0.27961  0.81212  0.03750  Biso   1.000  H
  H107     1.0000 0.19540  0.82383  0.09929  Biso   1.000  H
  H108     1.0000 0.79663  0.71698  0.92266  Biso   1.000  H
  H109     1.0000 0.69706  0.78654  0.88889  Biso   1.000  H
  H110     1.0000 0.78679  0.76546  0.83426  Biso   1.000  H
  C109     1.0000 0.59130  0.33646  0.00066  Biso   1.000  C
  H111     1.0000 0.70281  0.43727  0.99947  Biso   1.000  H
  H112     1.0000 0.73938  0.51308  0.92670  Biso   1.000  H
  H113     1.0000 0.65928  0.52990  0.98798  Biso   1.000  H
  H114     1.0000 0.45090  0.29106  0.96700  Biso   1.000  H
  H115     1.0000 0.39901  0.16003  0.00498  Biso   1.000  H
  C110     1.0000 0.45743  0.03573  0.08229  Biso   1.000  C
  H116     1.0000 0.45646  0.88472  0.14426  Biso   1.000  H
  H117     1.0000 0.34979  0.84054  0.16626  Biso   1.000  H
  H118     1.0000 0.43404  0.82812  0.10475  Biso   1.000  H
  N11      1.0000 0.55142  0.26620  0.02800  Biso   1.000  N
  H119     1.0000 0.65660  0.33783  0.01976  Biso   1.000  H
  H120     1.0000 0.49629  0.98783  0.11760  Biso   1.000  H
  N12      1.0000 0.48459  0.10803  0.06939  Biso   1.000  N
  C111     1.0000 0.60320  0.19425  0.08855  Biso   1.000  C
  C112     1.0000 0.57102  0.11532  0.10890  Biso   1.000  C
  C113     1.0000 0.68700  0.20120  0.12880  Biso   1.000  C
  C114     1.0000 0.62554  0.04565  0.16785  Biso   1.000  C
  C115     1.0000 0.74087  0.13267  0.18565  Biso   1.000  C
  H121     1.0000 0.70672  0.25424  0.11635  Biso   1.000  H
  H122     1.0000 0.60440  0.99285  0.18127  Biso   1.000  H
  C116     1.0000 0.70872  0.05200  0.20679  Biso   1.000  C
  O23      1.0000 0.82349  0.13554  0.22595  Biso   1.000  O
  O24      1.0000 0.76538  0.98674  0.26376  Biso   1.000  O
  C117     1.0000 0.86206  0.21582  0.20168  Biso   1.000  C
  C118     1.0000 0.74101  0.90312  0.28348  Biso   1.000  C
  H123     1.0000 0.88717  0.23630  0.14869  Biso   1.000  H
  H124     1.0000 0.80369  0.25674  0.20719  Biso   1.000  H
  C119     1.0000 0.95620  0.20245  0.25176  Biso   1.000  C
  H125     1.0000 0.66468  0.89873  0.30020  Biso   1.000  H
  H126     1.0000 0.75478  0.88920  0.23999  Biso   1.000  H
  C120     1.0000 0.81510  0.84433  0.34687  Biso   1.000  C
  H127     1.0000 0.98497  0.25462  0.23709  Biso   1.000  H
  H128     1.0000 0.93008  0.18271  0.30389  Biso   1.000  H
  H129     1.0000 0.01300  0.16143  0.24608  Biso   1.000  H
  H130     1.0000 0.80133  0.78754  0.36188  Biso   1.000  H
  H131     1.0000 0.89033  0.84932  0.32959  Biso   1.000  H
  H132     1.0000 0.80067  0.85885  0.38956  Biso   1.000  H
