data_image0
_cell_length_a       15.167
_cell_length_b       10.185
_cell_length_c       20.969
_cell_angle_alpha    90
_cell_angle_beta     110.99
_cell_angle_gamma    90

_symmetry_space_group_name_H-M    "P 1"
_symmetry_int_tables_number       1

loop_
  _symmetry_equiv_pos_as_xyz
  'x, y, z'

loop_
  _atom_site_label
  _atom_site_occupancy
  _atom_site_fract_x
  _atom_site_fract_y
  _atom_site_fract_z
  _atom_site_thermal_displace_type
  _atom_site_B_iso_or_equiv
  _atom_site_type_symbol
  C1       1.0000 0.46617  0.72950  0.52141  Biso   1.000  C
  C2       1.0000 0.37617  0.78508  0.46987  Biso   1.000  C
  H1       1.0000 0.47738  0.64192  0.50650  Biso   1.000  H
  C3       1.0000 0.54975  0.81728  0.52749  Biso   1.000  C
  O1       1.0000 0.45635  0.71939  0.58679  Biso   1.000  O
  O2       1.0000 0.30247  0.69062  0.46140  Biso   1.000  O
  H2       1.0000 0.36016  0.86667  0.48801  Biso   1.000  H
  C4       1.0000 0.38573  0.81325  0.40199  Biso   1.000  C
  H3       1.0000 0.54137  0.90103  0.54772  Biso   1.000  H
  C5       1.0000 0.55227  0.84477  0.45562  Biso   1.000  C
  O3       1.0000 0.63694  0.76082  0.56989  Biso   1.000  O
  H4       1.0000 0.40727  0.68041  0.58261  Biso   1.000  H
  C6       1.0000 0.22513  0.72784  0.48029  Biso   1.000  C
  H5       1.0000 0.39638  0.73078  0.38181  Biso   1.000  H
  O4       1.0000 0.46575  0.89789  0.41379  Biso   1.000  O
  C7       1.0000 0.30217  0.87943  0.35387  Biso   1.000  C
  H6       1.0000 0.60298  0.90761  0.45951  Biso   1.000  H
  O5       1.0000 0.57208  0.72450  0.42998  Biso   1.000  O
  H7       1.0000 0.66094  0.72126  0.54619  Biso   1.000  H
  C8       1.0000 0.20496  0.61463  0.52090  Biso   1.000  C
  O6       1.0000 0.14502  0.75601  0.42278  Biso   1.000  O
  H8       1.0000 0.24244  0.80589  0.50951  Biso   1.000  H
  H9       1.0000 0.26708  0.80825  0.32522  Biso   1.000  H
  H10      1.0000 0.26630  0.90329  0.38222  Biso   1.000  H
  C9       1.0000 0.64522  0.72263  0.40128  Biso   1.000  C
  C10      1.0000 0.17305  0.49504  0.47590  Biso   1.000  C
  H11      1.0000 0.15357  0.64134  0.53602  Biso   1.000  H
  O7       1.0000 0.28527  0.58625  0.57949  Biso   1.000  O
  C11      1.0000 0.11076  0.64978  0.37569  Biso   1.000  C
  C12      1.0000 0.60272  0.71664  0.32358  Biso   1.000  C
  H12      1.0000 0.68466  0.80128  0.41568  Biso   1.000  H
  C13      1.0000 0.70334  0.60285  0.42850  Biso   1.000  C
  C14      1.0000 0.09295  0.52950  0.41149  Biso   1.000  C
  H13      1.0000 0.22604  0.46460  0.46349  Biso   1.000  H
  O8       1.0000 0.14732  0.39195  0.51130  Biso   1.000  O
  H14      1.0000 0.28143  0.62602  0.61249  Biso   1.000  H
  C15      1.0000 0.02326  0.70231  0.32108  Biso   1.000  C
  H15      1.0000 0.15784  0.62857  0.35520  Biso   1.000  H
  O9       1.0000 0.68035  0.71291  0.29861  Biso   1.000  O
  C16      1.0000 0.53978  0.82297  0.28609  Biso   1.000  C
  H16      1.0000 0.56805  0.63368  0.31082  Biso   1.000  H
  C17      1.0000 0.77849  0.58537  0.39612  Biso   1.000  C
  H17      1.0000 0.66122  0.52646  0.41588  Biso   1.000  H
  O10      1.0000 0.74693  0.60452  0.50108  Biso   1.000  O
  O11      1.0000 0.07798  0.41954  0.36675  Biso   1.000  O
  H18      1.0000 0.03601  0.54384  0.42232  Biso   1.000  H
  H19      1.0000 0.11717  0.33628  0.48382  Biso   1.000  H
  H20      1.0000 0.03939  0.77801  0.29948  Biso   1.000  H
  H21      1.0000 0.99677  0.63564  0.28650  Biso   1.000  H
  O12      1.0000 0.95567  0.73883  0.35009  Biso   1.000  O
  C18      1.0000 0.73488  0.59715  0.31858  Biso   1.000  C
  H22      1.0000 0.52328  0.80560  0.23772  Biso   1.000  H
  H23      1.0000 0.48197  0.81630  0.29570  Biso   1.000  H
  O13      1.0000 0.57078  0.95562  0.29769  Biso   1.000  O
  H24      1.0000 0.82497  0.65596  0.41302  Biso   1.000  H
  O14      1.0000 0.82625  0.46382  0.41522  Biso   1.000  O
  H25      1.0000 0.71440  0.64752  0.51728  Biso   1.000  H
  C19      1.0000 0.98648  0.36406  0.33748  Biso   1.000  C
  H26      1.0000 0.90845  0.76780  0.32011  Biso   1.000  H
  O15      1.0000 0.68086  0.48355  0.29258  Biso   1.000  O
  H27      1.0000 0.78617  0.60088  0.30060  Biso   1.000  H
  H28      1.0000 0.61014  0.96269  0.33630  Biso   1.000  H
  H29      1.0000 0.80055  0.40835  0.38621  Biso   1.000  H
  C20      1.0000 0.99745  0.21512  0.34780  Biso   1.000  C
  O16      1.0000 0.94483  0.39323  0.26776  Biso   1.000  O
  H30      1.0000 0.94634  0.39784  0.36149  Biso   1.000  H
  C21      1.0000 0.70549  0.40461  0.24538  Biso   1.000  C
  C22      1.0000 0.05417  0.16063  0.30709  Biso   1.000  C
  O17      1.0000 0.03937  0.18783  0.41900  Biso   1.000  O
  H31      1.0000 0.93447  0.17526  0.33058  Biso   1.000  H
  C23      1.0000 0.99883  0.34993  0.22730  Biso   1.000  C
  C24      1.0000 0.69438  0.26313  0.26382  Biso   1.000  C
  C25      1.0000 0.64047  0.43721  0.17122  Biso   1.000  C
  H32      1.0000 0.77135  0.42091  0.25070  Biso   1.000  H
  C26      1.0000 0.00860  0.19961  0.23292  Biso   1.000  C
  H33      1.0000 0.11820  0.19715  0.32522  Biso   1.000  H
  O18      1.0000 0.05976  0.02091  0.31439  Biso   1.000  O
  H34      1.0000 0.06725  0.25322  0.43907  Biso   1.000  H
  H35      1.0000 0.06177  0.38999  0.24482  Biso   1.000  H
  C27      1.0000 0.94646  0.39823  0.15589  Biso   1.000  C
  C28      1.0000 0.70618  0.17251  0.20978  Biso   1.000  C
  H36      1.0000 0.63118  0.25096  0.26561  Biso   1.000  H
  O19      1.0000 0.76292  0.23868  0.32941  Biso   1.000  O
  O20      1.0000 0.65500  0.34384  0.12586  Biso   1.000  O
  H37      1.0000 0.57435  0.43387  0.16790  Biso   1.000  H
  C29      1.0000 0.66027  0.56858  0.14741  Biso   1.000  C
  O21      1.0000 0.06568  0.15425  0.19773  Biso   1.000  O
  H38      1.0000 0.94585  0.15916  0.21351  Biso   1.000  H
  H39      1.0000 0.06380  0.98792  0.27981  Biso   1.000  H
  H40      1.0000 0.94258  0.49318  0.15712  Biso   1.000  H
  H41      1.0000 0.98300  0.37604  0.12770  Biso   1.000  H
  O22      1.0000 0.85609  0.34855  0.12519  Biso   1.000  O
  C30      1.0000 0.64007  0.21051  0.14098  Biso   1.000  C
  H42      1.0000 0.77106  0.18046  0.21070  Biso   1.000  H
  O23      1.0000 0.68998  0.03810  0.22419  Biso   1.000  O
  H43      1.0000 0.73987  0.19244  0.35142  Biso   1.000  H
  H44      1.0000 0.62128  0.58125  0.09971  Biso   1.000  H
  H45      1.0000 0.64557  0.63751  0.17392  Biso   1.000  H
  O24      1.0000 0.75879  0.57467  0.15559  Biso   1.000  O
  C31      1.0000 0.02311  0.07982  0.13679  Biso   1.000  C
  H46      1.0000 0.81767  0.40196  0.12882  Biso   1.000  H
  O25      1.0000 0.54668  0.19450  0.13893  Biso   1.000  O
  H47      1.0000 0.65018  0.15297  0.10681  Biso   1.000  H
  H48      1.0000 0.65528  0.03633  0.24651  Biso   1.000  H
  H49      1.0000 0.77550  0.50349  0.14552  Biso   1.000  H
  O26      1.0000 0.02456  0.14983  0.07968  Biso   1.000  O
  H50      1.0000 0.95730  0.06166  0.13132  Biso   1.000  H
  C32      1.0000 0.07480  0.95179  0.14399  Biso   1.000  C
  C33      1.0000 0.47850  0.13265  0.08019  Biso   1.000  C
  C34      1.0000 0.11958  0.17712  0.08050  Biso   1.000  C
  H51      1.0000 0.04077  0.89926  0.10349  Biso   1.000  H
  C35      1.0000 0.17449  0.97064  0.14491  Biso   1.000  C
  O27      1.0000 0.07390  0.87973  0.20181  Biso   1.000  O
  C36      1.0000 0.39346  0.22455  0.05241  Biso   1.000  C
  C37      1.0000 0.45216  0.00442  0.10451  Biso   1.000  C
  H52      1.0000 0.50607  0.11654  0.04520  Biso   1.000  H
  C38      1.0000 0.11092  0.26411  0.01921  Biso   1.000  C
  C39      1.0000 0.16890  0.04958  0.08198  Biso   1.000  C
  H53      1.0000 0.15418  0.22582  0.12228  Biso   1.000  H
  H54      1.0000 0.21047  0.02140  0.18562  Biso   1.000  H
  O28      1.0000 0.21801  0.84919  0.14838  Biso   1.000  O
  H55      1.0000 0.06958  0.93058  0.23077  Biso   1.000  H
  O29      1.0000 0.31570  0.15562  0.00322  Biso   1.000  O
  C40      1.0000 0.41147  0.34168  0.01461  Biso   1.000  C
  H56      1.0000 0.37488  0.25488  0.09010  Biso   1.000  H
  C41      1.0000 0.36810  0.94217  0.05072  Biso   1.000  C
  H57      1.0000 0.43659  0.02101  0.14522  Biso   1.000  H
  O30      1.0000 0.53086  0.91527  0.12228  Biso   1.000  O
  H58      1.0000 0.07051  0.33844  0.01829  Biso   1.000  H
  H59      1.0000 0.17266  0.29759  0.02380  Biso   1.000  H
  O31      1.0000 0.07262  0.19342  0.95720  Biso   1.000  O
  O32      1.0000 0.26342  0.07197  0.08591  Biso   1.000  O
  H60      1.0000 0.13482  0.99912  0.04071  Biso   1.000  H
  H61      1.0000 0.25237  0.85125  0.12591  Biso   1.000  H
  C42      1.0000 0.28740  0.04192  0.02809  Biso   1.000  C
  H62      1.0000 0.46666  0.38841  0.04418  Biso   1.000  H
  H63      1.0000 0.42459  0.31144  0.97507  Biso   1.000  H
  O33      1.0000 0.33427  0.42788  0.99305  Biso   1.000  O
  H64      1.0000 0.38536  0.91969  0.01129  Biso   1.000  H
  O34      1.0000 0.34118  0.82523  0.07611  Biso   1.000  O
  H65      1.0000 0.57700  0.94934  0.15130  Biso   1.000  H
  H66      1.0000 0.06827  0.24212  0.92497  Biso   1.000  H
  H67      1.0000 0.23261  0.00334  0.99229  Biso   1.000  H
  H68      1.0000 0.34647  0.48994  0.97257  Biso   1.000  H
  H69      1.0000 0.30536  0.84359  0.09618  Biso   1.000  H
  O35      1.0000 0.85257  0.89190  0.48872  Biso   1.000  O
  C43      1.0000 0.82685  0.99499  0.52412  Biso   1.000  C
  H70      1.0000 0.88273  0.83633  0.51620  Biso   1.000  H
  C44      1.0000 0.79493  0.11458  0.47912  Biso   1.000  C
  H71      1.0000 0.77383  0.96456  0.53648  Biso   1.000  H
  C45      1.0000 0.90692  0.02946  0.58848  Biso   1.000  C
  C46      1.0000 0.77473  0.22779  0.51968  Biso   1.000  C
  H72      1.0000 0.84632  0.14129  0.46400  Biso   1.000  H
  O36      1.0000 0.71466  0.08630  0.42048  Biso   1.000  O
  C47      1.0000 0.88911  0.14983  0.62429  Biso   1.000  C
  O37      1.0000 0.92191  0.91949  0.63328  Biso   1.000  O
  H73      1.0000 0.96395  0.04379  0.57770  Biso   1.000  H
  O38      1.0000 0.69746  0.19057  0.53858  Biso   1.000  O
  H74      1.0000 0.75746  0.30594  0.49051  Biso   1.000  H
  O39      1.0000 0.85484  0.25596  0.57719  Biso   1.000  O
  H75      1.0000 0.71843  0.12597  0.38748  Biso   1.000  H
  C48      1.0000 0.97661  0.20226  0.67889  Biso   1.000  C
  H76      1.0000 0.84205  0.12862  0.64482  Biso   1.000  H
  C49      1.0000 0.01346  0.86411  0.66249  Biso   1.000  C
  C50      1.0000 0.62377  0.28513  0.53010  Biso   1.000  C
  H77      1.0000 0.96054  0.27796  0.70050  Biso   1.000  H
  H78      1.0000 0.00313  0.13559  0.71352  Biso   1.000  H
  O40      1.0000 0.04426  0.23878  0.64988  Biso   1.000  O
  C51      1.0000 0.00241  0.71507  0.65218  Biso   1.000  C
  O41      1.0000 0.05504  0.89318  0.73222  Biso   1.000  O
  H79      1.0000 0.05352  0.89779  0.63849  Biso   1.000  H
  C52      1.0000 0.53379  0.22946  0.47861  Biso   1.000  C
  C53      1.0000 0.61413  0.31330  0.59798  Biso   1.000  C
  H80      1.0000 0.63973  0.36672  0.51201  Biso   1.000  H
  H81      1.0000 0.09145  0.26784  0.67991  Biso   1.000  H
  C54      1.0000 0.94570  0.66058  0.69289  Biso   1.000  C
  O42      1.0000 0.96056  0.68778  0.58097  Biso   1.000  O
  H82      1.0000 0.06547  0.67531  0.66939  Biso   1.000  H
  C55      1.0000 0.00106  0.84988  0.77272  Biso   1.000  C
  C56      1.0000 0.45011  0.31733  0.47248  Biso   1.000  C
  H83      1.0000 0.52258  0.14188  0.49352  Biso   1.000  H
  O43      1.0000 0.54358  0.21944  0.41318  Biso   1.000  O
  O44      1.0000 0.53412  0.39794  0.58618  Biso   1.000  O
  H84      1.0000 0.60351  0.23083  0.61821  Biso   1.000  H
  C57      1.0000 0.69776  0.37938  0.64610  Biso   1.000  C
  C58      1.0000 0.99135  0.69956  0.76710  Biso   1.000  C
  H85      1.0000 0.88176  0.69720  0.67480  Biso   1.000  H
  O45      1.0000 0.94010  0.52086  0.68558  Biso   1.000  O
  H86      1.0000 0.93262  0.75317  0.56090  Biso   1.000  H
  H87      1.0000 0.93812  0.89003  0.75520  Biso   1.000  H
  C59      1.0000 0.05341  0.89818  0.84408  Biso   1.000  C
  C60      1.0000 0.44762  0.34482  0.54440  Biso   1.000  C
  H88      1.0000 0.45858  0.40098  0.45230  Biso   1.000  H
  O46      1.0000 0.36292  0.26078  0.43008  Biso   1.000  O
  H89      1.0000 0.59269  0.18036  0.41742  Biso   1.000  H
  H90      1.0000 0.73281  0.30820  0.67480  Biso   1.000  H
  H91      1.0000 0.73366  0.40334  0.61780  Biso   1.000  H
  O47      1.0000 0.93421  0.65420  0.80230  Biso   1.000  O
  H92      1.0000 0.05404  0.65920  0.78651  Biso   1.000  H
  H93      1.0000 0.93615  0.48787  0.72021  Biso   1.000  H
  H94      1.0000 0.05731  0.99323  0.84290  Biso   1.000  H
  H95      1.0000 0.01693  0.87599  0.87227  Biso   1.000  H
  O48      1.0000 0.14384  0.84860  0.87478  Biso   1.000  O
  O49      1.0000 0.42786  0.22455  0.56999  Biso   1.000  O
  H96      1.0000 0.39698  0.40756  0.54052  Biso   1.000  H
  H97      1.0000 0.33892  0.22131  0.45378  Biso   1.000  H
  C61      1.0000 0.97683  0.57977  0.86318  Biso   1.000  C
  H98      1.0000 0.18222  0.90201  0.87120  Biso   1.000  H
  C62      1.0000 0.35465  0.22258  0.59870  Biso   1.000  C
  C63      1.0000 0.92513  0.45184  0.85598  Biso   1.000  C
  O50      1.0000 0.97531  0.64978  0.92029  Biso   1.000  O
  H99      1.0000 0.04266  0.56171  0.86870  Biso   1.000  H
  C64      1.0000 0.29655  0.10280  0.57152  Biso   1.000  C
  C65      1.0000 0.39714  0.21659  0.67639  Biso   1.000  C
  H100     1.0000 0.31527  0.30133  0.58429  Biso   1.000  H
  C66      1.0000 0.82540  0.47059  0.85511  Biso   1.000  C
  H101     1.0000 0.95910  0.39931  0.89649  Biso   1.000  H
  O51      1.0000 0.92606  0.37968  0.79821  Biso   1.000  O
  C67      1.0000 0.88031  0.67707  0.91952  Biso   1.000  C
  C68      1.0000 0.22147  0.08542  0.60391  Biso   1.000  C
  H102     1.0000 0.33864  0.02651  0.58409  Biso   1.000  H
  O52      1.0000 0.25293  0.10447  0.49889  Biso   1.000  O
  O53      1.0000 0.31954  0.21286  0.70142  Biso   1.000  O
  C69      1.0000 0.46015  0.32302  0.71388  Biso   1.000  C
  H103     1.0000 0.43184  0.13373  0.68921  Biso   1.000  H
  C70      1.0000 0.83103  0.54963  0.91799  Biso   1.000  C
  H104     1.0000 0.78942  0.52135  0.81440  Biso   1.000  H
  O54      1.0000 0.78192  0.34924  0.85159  Biso   1.000  O
  H105     1.0000 0.93035  0.43063  0.76920  Biso   1.000  H
  C71      1.0000 0.88904  0.76406  0.98082  Biso   1.000  C
  H106     1.0000 0.84568  0.72577  0.87769  Biso   1.000  H
  C72      1.0000 0.26505  0.09720  0.68139  Biso   1.000  C
  O55      1.0000 0.17364  0.96377  0.58480  Biso   1.000  O
  H107     1.0000 0.17492  0.15601  0.58700  Biso   1.000  H
  H108     1.0000 0.28546  0.14747  0.48270  Biso   1.000  H
  H109     1.0000 0.47661  0.30565  0.76230  Biso   1.000  H
  H110     1.0000 0.51790  0.31635  0.70428  Biso   1.000  H
  O56      1.0000 0.42915  0.45557  0.70228  Biso   1.000  O
  O57      1.0000 0.73654  0.57202  0.91411  Biso   1.000  O
  H111     1.0000 0.86514  0.49907  0.95931  Biso   1.000  H
  H112     1.0000 0.74752  0.35130  0.87411  Biso   1.000  H
  H113     1.0000 0.92943  0.83839  0.98169  Biso   1.000  H
  H114     1.0000 0.82723  0.79764  0.97622  Biso   1.000  H
  O58      1.0000 0.92733  0.69337  0.04283  Biso   1.000  O
  O59      1.0000 0.31901  0.98360  0.70739  Biso   1.000  O
  H115     1.0000 0.21372  0.10093  0.69942  Biso   1.000  H
  H116     1.0000 0.19935  0.90830  0.61382  Biso   1.000  H
  H117     1.0000 0.38975  0.46274  0.66372  Biso   1.000  H
  C73      1.0000 0.71253  0.54188  0.97188  Biso   1.000  C
  H118     1.0000 0.93160  0.74207  0.07501  Biso   1.000  H
  C74      1.0000 0.29445  0.90457  0.75459  Biso   1.000  C
  C75      1.0000 0.63179  0.44222  0.94930  Biso   1.000  C
  O60      1.0000 0.68417  0.65557  0.99675  Biso   1.000  O
  H119     1.0000 0.76734  0.50329  0.00774  Biso   1.000  H
  C76      1.0000 0.30552  0.76308  0.73620  Biso   1.000  C
  C77      1.0000 0.35942  0.93716  0.82881  Biso   1.000  C
  H120     1.0000 0.22852  0.92086  0.74928  Biso   1.000  H
  C78      1.0000 0.54773  0.50437  0.89552  Biso   1.000  C
  H121     1.0000 0.61450  0.41973  0.98868  Biso   1.000  H
  O61      1.0000 0.65871  0.32518  0.92391  Biso   1.000  O
  C79      1.0000 0.60643  0.72450  0.94762  Biso   1.000  C
  O62      1.0000 0.23694  0.73873  0.67056  Biso   1.000  O
  C80      1.0000 0.29375  0.67246  0.79019  Biso   1.000  C
  H122     1.0000 0.36872  0.75101  0.73441  Biso   1.000  H
  H123     1.0000 0.42552  0.93392  0.83208  Biso   1.000  H
  O63      1.0000 0.34494  0.84379  0.87411  Biso   1.000  O
  C81      1.0000 0.33963  0.06863  0.85261  Biso   1.000  C
  C82      1.0000 0.52144  0.63260  0.91978  Biso   1.000  C
  H124     1.0000 0.56330  0.52096  0.85481  Biso   1.000  H
  O64      1.0000 0.46901  0.41532  0.87769  Biso   1.000  O
  H125     1.0000 0.69450  0.34364  0.90379  Biso   1.000  H
  C83      1.0000 0.58843  0.84173  0.98541  Biso   1.000  C
  H126     1.0000 0.62501  0.75493  0.90992  Biso   1.000  H
  H127     1.0000 0.26002  0.69239  0.64860  Biso   1.000  H
  C84      1.0000 0.35980  0.71046  0.85899  Biso   1.000  C
  H128     1.0000 0.22884  0.68051  0.78932  Biso   1.000  H
  O65      1.0000 0.30995  0.53814  0.77579  Biso   1.000  O
  H129     1.0000 0.37862  0.08120  0.90032  Biso   1.000  H
  H130     1.0000 0.35432  0.13746  0.82610  Biso   1.000  H
  O66      1.0000 0.24114  0.07472  0.84439  Biso   1.000  O
  O67      1.0000 0.45325  0.69445  0.86104  Biso   1.000  O
  H131     1.0000 0.49382  0.61649  0.95482  Biso   1.000  H
  H132     1.0000 0.42293  0.44929  0.84868  Biso   1.000  H
  H133     1.0000 0.53320  0.88837  0.95579  Biso   1.000  H
  H134     1.0000 0.57528  0.81139  0.02490  Biso   1.000  H
  O68      1.0000 0.66560  0.92793  0.00692  Biso   1.000  O
  H135     1.0000 0.34972  0.65302  0.89322  Biso   1.000  H
  H136     1.0000 0.34462  0.53628  0.75352  Biso   1.000  H
  H137     1.0000 0.22446  0.00353  0.85450  Biso   1.000  H
  H138     1.0000 0.65339  0.98989  0.02740  Biso   1.000  H
