data_image0
_cell_length_a       9.649
_cell_length_b       10.959
_cell_length_c       17.261
_cell_angle_alpha    93.1
_cell_angle_beta     95
_cell_angle_gamma    97.22

_symmetry_space_group_name_H-M    "P 1"
_symmetry_int_tables_number       1

loop_
  _symmetry_equiv_pos_as_xyz
  'x, y, z'

loop_
  _atom_site_label
  _atom_site_occupancy
  _atom_site_fract_x
  _atom_site_fract_y
  _atom_site_fract_z
  _atom_site_thermal_displace_type
  _atom_site_B_iso_or_equiv
  _atom_site_type_symbol
  C1       1.0000 0.63680  0.60427  0.55385  Biso   1.000  C
  N1       1.0000 0.56058  0.68431  0.51952  Biso   1.000  N
  C2       1.0000 0.77422  0.58975  0.52389  Biso   1.000  C
  C3       1.0000 0.59480  0.53739  0.61557  Biso   1.000  C
  C4       1.0000 0.43709  0.69681  0.54692  Biso   1.000  C
  O1       1.0000 0.79161  0.64536  0.45821  Biso   1.000  O
  O2       1.0000 0.85962  0.53342  0.55624  Biso   1.000  O
  C5       1.0000 0.46652  0.55146  0.64209  Biso   1.000  C
  H1       1.0000 0.65293  0.48327  0.63912  Biso   1.000  H
  C6       1.0000 0.35113  0.78604  0.51078  Biso   1.000  C
  C7       1.0000 0.38528  0.63180  0.60712  Biso   1.000  C
  C8       1.0000 0.92755  0.65452  0.42773  Biso   1.000  C
  H2       1.0000 0.43444  0.50614  0.68388  Biso   1.000  H
  O3       1.0000 0.41757  0.85630  0.46112  Biso   1.000  O
  O4       1.0000 0.23204  0.79245  0.52547  Biso   1.000  O
  H3       1.0000 0.29625  0.64247  0.62391  Biso   1.000  H
  C9       1.0000 0.94685  0.77703  0.39148  Biso   1.000  C
  H4       1.0000 0.93028  0.58611  0.38821  Biso   1.000  H
  H5       1.0000 0.00248  0.65094  0.47022  Biso   1.000  H
  C10      1.0000 0.34015  0.94909  0.42738  Biso   1.000  C
  C11      1.0000 0.00994  0.78844  0.32171  Biso   1.000  C
  C12      1.0000 0.90163  0.87773  0.42668  Biso   1.000  C
  C13      1.0000 0.39863  0.98728  0.35336  Biso   1.000  C
  H6       1.0000 0.23991  0.91528  0.41631  Biso   1.000  H
  H7       1.0000 0.34694  0.02170  0.46491  Biso   1.000  H
  C14      1.0000 0.02465  0.90031  0.28838  Biso   1.000  C
  H8       1.0000 0.04267  0.71912  0.29729  Biso   1.000  H
  C15      1.0000 0.91748  0.99112  0.39463  Biso   1.000  C
  H9       1.0000 0.85861  0.86968  0.47389  Biso   1.000  H
  C16      1.0000 0.48738  0.92043  0.31373  Biso   1.000  C
  C17      1.0000 0.35287  0.08907  0.32032  Biso   1.000  C
  O5       1.0000 0.07999  0.92291  0.21914  Biso   1.000  O
  C18      1.0000 0.97833  0.00221  0.32539  Biso   1.000  C
  H10      1.0000 0.88679  0.06062  0.41998  Biso   1.000  H
  C19      1.0000 0.52773  0.95473  0.24204  Biso   1.000  C
  H11      1.0000 0.52040  0.85082  0.33599  Biso   1.000  H
  C20      1.0000 0.39351  0.12488  0.24904  Biso   1.000  C
  H12      1.0000 0.29266  0.13544  0.34701  Biso   1.000  H
  C21      1.0000 0.13137  0.82305  0.17881  Biso   1.000  C
  O6       1.0000 0.99409  0.10985  0.28675  Biso   1.000  O
  O7       1.0000 0.60948  0.89113  0.19577  Biso   1.000  O
  C22      1.0000 0.48174  0.05933  0.20958  Biso   1.000  C
  H13      1.0000 0.36051  0.19490  0.22718  Biso   1.000  H
  C23      1.0000 0.15839  0.86364  0.09955  Biso   1.000  C
  H14      1.0000 0.06110  0.74848  0.17461  Biso   1.000  H
  H15      1.0000 0.21911  0.80372  0.20690  Biso   1.000  H
  C24      1.0000 0.96804  0.22038  0.32888  Biso   1.000  C
  C25      1.0000 0.64953  0.77870  0.22188  Biso   1.000  C
  O8       1.0000 0.52893  0.08461  0.13877  Biso   1.000  O
  O9       1.0000 0.03865  0.90124  0.05694  Biso   1.000  O
  H16      1.0000 0.23543  0.93339  0.10508  Biso   1.000  H
  H17      1.0000 0.19039  0.79508  0.06912  Biso   1.000  H
  H18      1.0000 0.87108  0.21113  0.34427  Biso   1.000  H
  C26      1.0000 0.98888  0.32234  0.27544  Biso   1.000  C
  H19      1.0000 0.03416  0.23803  0.37650  Biso   1.000  H
  C27      1.0000 0.69639  0.71044  0.15287  Biso   1.000  C
  H20      1.0000 0.56903  0.72920  0.24210  Biso   1.000  H
  H21      1.0000 0.72701  0.79550  0.26407  Biso   1.000  H
  C28      1.0000 0.48904  0.19349  0.10497  Biso   1.000  C
  C29      1.0000 0.94463  0.80703  0.01340  Biso   1.000  C
  O10      1.0000 0.87193  0.30693  0.21751  Biso   1.000  O
  H22      1.0000 0.99463  0.40313  0.30487  Biso   1.000  H
  H23      1.0000 0.07711  0.31921  0.25061  Biso   1.000  H
  O11      1.0000 0.80263  0.78419  0.12000  Biso   1.000  O
  H24      1.0000 0.73172  0.63400  0.16960  Biso   1.000  H
  H25      1.0000 0.61553  0.68673  0.11330  Biso   1.000  H
  C30      1.0000 0.58104  0.22284  0.04138  Biso   1.000  C
  H26      1.0000 0.50099  0.26324  0.14500  Biso   1.000  H
  H27      1.0000 0.38932  0.17903  0.08352  Biso   1.000  H
  C31      1.0000 0.85762  0.72216  0.05688  Biso   1.000  C
  H28      1.0000 0.88147  0.84696  0.97727  Biso   1.000  H
  H29      1.0000 0.00006  0.75796  0.98112  Biso   1.000  H
  C32      1.0000 0.88944  0.38805  0.15649  Biso   1.000  C
  O12      1.0000 0.72507  0.25336  0.07040  Biso   1.000  O
  H30      1.0000 0.57144  0.15080  0.00321  Biso   1.000  H
  H31      1.0000 0.54966  0.29291  0.01387  Biso   1.000  H
  H32      1.0000 0.77889  0.67853  0.02121  Biso   1.000  H
  H33      1.0000 0.91412  0.65974  0.07757  Biso   1.000  H
  C33      1.0000 0.75587  0.37642  0.10479  Biso   1.000  C
  H34      1.0000 0.96643  0.36668  0.12612  Biso   1.000  H
  H35      1.0000 0.91398  0.47397  0.17869  Biso   1.000  H
  H36      1.0000 0.67845  0.39598  0.13539  Biso   1.000  H
  H37      1.0000 0.76498  0.43530  0.06341  Biso   1.000  H
  C34      1.0000 0.36319  0.39586  0.44615  Biso   1.000  C
  C35      1.0000 0.40528  0.46265  0.38443  Biso   1.000  C
  N2       1.0000 0.43949  0.31573  0.48047  Biso   1.000  N
  C36      1.0000 0.22576  0.41029  0.47610  Biso   1.000  C
  H38      1.0000 0.34716  0.51686  0.36088  Biso   1.000  H
  C37      1.0000 0.53355  0.44858  0.35791  Biso   1.000  C
  C38      1.0000 0.56288  0.30322  0.45308  Biso   1.000  C
  O13      1.0000 0.20847  0.35467  0.54179  Biso   1.000  O
  O14      1.0000 0.14046  0.46662  0.44376  Biso   1.000  O
  H39      1.0000 0.56564  0.49390  0.31612  Biso   1.000  H
  C39      1.0000 0.61470  0.36824  0.39288  Biso   1.000  C
  C40      1.0000 0.64895  0.21399  0.48922  Biso   1.000  C
  C41      1.0000 0.07253  0.34552  0.57227  Biso   1.000  C
  H40      1.0000 0.70385  0.35766  0.37609  Biso   1.000  H
  O15      1.0000 0.58251  0.14374  0.53887  Biso   1.000  O
  O16      1.0000 0.76804  0.20759  0.47453  Biso   1.000  O
  C42      1.0000 0.05313  0.22301  0.60852  Biso   1.000  C
  H41      1.0000 0.06980  0.41392  0.61178  Biso   1.000  H
  H42      1.0000 0.99749  0.34910  0.52978  Biso   1.000  H
  C43      1.0000 0.65994  0.05104  0.57262  Biso   1.000  C
  C44      1.0000 0.09844  0.12230  0.57326  Biso   1.000  C
  C45      1.0000 0.99014  0.21159  0.67828  Biso   1.000  C
  C46      1.0000 0.60145  0.01275  0.64664  Biso   1.000  C
  H43      1.0000 0.76018  0.08485  0.58369  Biso   1.000  H
  H44      1.0000 0.65314  0.97833  0.53508  Biso   1.000  H
  H45      1.0000 0.14148  0.13045  0.52611  Biso   1.000  H
  C47      1.0000 0.08260  0.00892  0.60537  Biso   1.000  C
  C48      1.0000 0.97543  0.09972  0.71162  Biso   1.000  C
  H46      1.0000 0.95741  0.28091  0.70270  Biso   1.000  H
  C49      1.0000 0.51270  0.07961  0.68627  Biso   1.000  C
  C50      1.0000 0.64710  0.91097  0.67968  Biso   1.000  C
  C51      1.0000 0.02175  0.99782  0.67461  Biso   1.000  C
  H47      1.0000 0.11329  0.93941  0.58002  Biso   1.000  H
  O17      1.0000 0.92009  0.07713  0.78086  Biso   1.000  O
  C52      1.0000 0.47235  0.04531  0.75795  Biso   1.000  C
  H48      1.0000 0.47968  0.14922  0.66400  Biso   1.000  H
  H49      1.0000 0.70743  0.86469  0.65299  Biso   1.000  H
  C53      1.0000 0.60647  0.87516  0.75096  Biso   1.000  C
  O18      1.0000 0.00599  0.89018  0.71325  Biso   1.000  O
  C54      1.0000 0.86871  0.17698  0.82119  Biso   1.000  C
  O19      1.0000 0.39060  0.10890  0.80423  Biso   1.000  O
  C55      1.0000 0.51835  0.94080  0.79042  Biso   1.000  C
  H50      1.0000 0.63947  0.80514  0.77282  Biso   1.000  H
  C56      1.0000 0.03204  0.77965  0.67111  Biso   1.000  C
  H51      1.0000 0.93899  0.25165  0.82539  Biso   1.000  H
  H52      1.0000 0.78096  0.19632  0.79310  Biso   1.000  H
  C57      1.0000 0.84169  0.13639  0.90045  Biso   1.000  C
  C58      1.0000 0.35055  0.22134  0.77812  Biso   1.000  C
  O20      1.0000 0.47115  0.91542  0.86123  Biso   1.000  O
  H53      1.0000 0.96592  0.76200  0.62350  Biso   1.000  H
  H54      1.0000 0.12900  0.78899  0.65567  Biso   1.000  H
  C59      1.0000 0.01122  0.67778  0.72456  Biso   1.000  C
  O21      1.0000 0.96132  0.09879  0.94306  Biso   1.000  O
  H55      1.0000 0.76466  0.06674  0.89492  Biso   1.000  H
  H56      1.0000 0.80970  0.20505  0.93088  Biso   1.000  H
  C60      1.0000 0.30369  0.28960  0.84712  Biso   1.000  C
  H57      1.0000 0.43095  0.27084  0.75790  Biso   1.000  H
  H58      1.0000 0.27307  0.20453  0.73592  Biso   1.000  H
  C61      1.0000 0.51094  0.80654  0.89503  Biso   1.000  C
  H59      1.0000 0.92287  0.68083  0.74939  Biso   1.000  H
  O22      1.0000 0.12815  0.69310  0.78249  Biso   1.000  O
  H60      1.0000 0.00545  0.59691  0.69513  Biso   1.000  H
  C62      1.0000 0.05545  0.19300  0.98659  Biso   1.000  C
  O23      1.0000 0.19745  0.21585  0.88000  Biso   1.000  O
  H61      1.0000 0.26836  0.36604  0.83040  Biso   1.000  H
  H62      1.0000 0.38454  0.31331  0.88670  Biso   1.000  H
  C63      1.0000 0.41894  0.77729  0.95862  Biso   1.000  C
  H63      1.0000 0.49910  0.73689  0.85499  Biso   1.000  H
  H64      1.0000 0.61066  0.82101  0.91648  Biso   1.000  H
  C64      1.0000 0.11065  0.61207  0.84351  Biso   1.000  C
  C65      1.0000 0.14245  0.27788  0.94311  Biso   1.000  C
  H65      1.0000 0.00002  0.24207  0.01888  Biso   1.000  H
  H66      1.0000 0.11859  0.15307  0.02267  Biso   1.000  H
  O24      1.0000 0.27501  0.74668  0.92959  Biso   1.000  O
  H67      1.0000 0.42853  0.84924  0.99679  Biso   1.000  H
  H68      1.0000 0.45031  0.70712  0.98607  Biso   1.000  H
  H69      1.0000 0.03365  0.63335  0.87388  Biso   1.000  H
  H70      1.0000 0.08610  0.52606  0.82131  Biso   1.000  H
  C66      1.0000 0.24410  0.62362  0.89521  Biso   1.000  C
  H71      1.0000 0.22119  0.32151  0.97878  Biso   1.000  H
  H72      1.0000 0.08596  0.34029  0.92242  Biso   1.000  H
  H73      1.0000 0.32152  0.60406  0.86461  Biso   1.000  H
  H74      1.0000 0.23500  0.56473  0.93659  Biso   1.000  H
