data_image0
_cell_length_a       18.588
_cell_length_b       7.311
_cell_length_c       23.438
_cell_angle_alpha    90
_cell_angle_beta     109.72
_cell_angle_gamma    90

_symmetry_space_group_name_H-M    "P 1"
_symmetry_int_tables_number       1

loop_
  _symmetry_equiv_pos_as_xyz
  'x, y, z'

loop_
  _atom_site_label
  _atom_site_occupancy
  _atom_site_fract_x
  _atom_site_fract_y
  _atom_site_fract_z
  _atom_site_thermal_displace_type
  _atom_site_B_iso_or_equiv
  _atom_site_type_symbol
  O1       1.0000 0.55590  0.70237  0.49693  Biso   1.000  O
  C1       1.0000 0.62222  0.68335  0.48352  Biso   1.000  C
  C2       1.0000 0.55782  0.69744  0.55862  Biso   1.000  C
  C3       1.0000 0.61234  0.63945  0.42260  Biso   1.000  C
  C4       1.0000 0.69483  0.70510  0.52444  Biso   1.000  C
  H1       1.0000 0.51321  0.62727  0.56061  Biso   1.000  H
  H2       1.0000 0.60453  0.63179  0.58341  Biso   1.000  H
  C5       1.0000 0.55707  0.88237  0.58554  Biso   1.000  C
  O2       1.0000 0.53876  0.61387  0.38471  Biso   1.000  O
  C6       1.0000 0.67644  0.62016  0.40483  Biso   1.000  C
  H3       1.0000 0.70114  0.73588  0.56519  Biso   1.000  H
  C7       1.0000 0.75974  0.68281  0.50731  Biso   1.000  C
  O3       1.0000 0.62992  0.96813  0.59923  Biso   1.000  O
  H4       1.0000 0.54412  0.87047  0.62302  Biso   1.000  H
  H5       1.0000 0.51743  0.95910  0.55662  Biso   1.000  H
  C8       1.0000 0.53115  0.54575  0.32547  Biso   1.000  C
  C9       1.0000 0.75045  0.64273  0.44780  Biso   1.000  C
  H6       1.0000 0.67043  0.59198  0.36391  Biso   1.000  H
  C10      1.0000 0.83824  0.71221  0.55372  Biso   1.000  C
  C11      1.0000 0.62876  0.16181  0.59687  Biso   1.000  C
  C12      1.0000 0.44944  0.49487  0.29211  Biso   1.000  C
  H7       1.0000 0.54784  0.64068  0.30249  Biso   1.000  H
  H8       1.0000 0.56420  0.43715  0.32919  Biso   1.000  H
  H9       1.0000 0.79395  0.63015  0.43561  Biso   1.000  H
  O4       1.0000 0.88772  0.75790  0.52045  Biso   1.000  O
  H10      1.0000 0.85612  0.59964  0.57779  Biso   1.000  H
  H11      1.0000 0.83697  0.81275  0.58173  Biso   1.000  H
  H12      1.0000 0.58454  0.20394  0.56211  Biso   1.000  H
  H13      1.0000 0.62337  0.21187  0.63453  Biso   1.000  H
  C13      1.0000 0.70142  0.22829  0.59012  Biso   1.000  C
  O5       1.0000 0.40302  0.65641  0.27571  Biso   1.000  O
  H14      1.0000 0.43011  0.41595  0.31813  Biso   1.000  H
  H15      1.0000 0.44611  0.42511  0.25508  Biso   1.000  H
  C14      1.0000 0.96071  0.71358  0.54280  Biso   1.000  C
  O6       1.0000 0.71837  0.15607  0.53931  Biso   1.000  O
  H16      1.0000 0.74423  0.19737  0.62751  Biso   1.000  H
  H17      1.0000 0.69917  0.36329  0.58672  Biso   1.000  H
  C15      1.0000 0.33742  0.62755  0.22431  Biso   1.000  C
  O7       1.0000 0.99286  0.65244  0.59243  Biso   1.000  O
  C16      1.0000 0.00134  0.75626  0.49870  Biso   1.000  C
  C17      1.0000 0.65755  0.16920  0.48333  Biso   1.000  C
  H18      1.0000 0.35273  0.60005  0.18859  Biso   1.000  H
  H19      1.0000 0.30811  0.52195  0.23129  Biso   1.000  H
  C18      1.0000 0.28830  0.79647  0.21230  Biso   1.000  C
  N1       1.0000 0.95797  0.81754  0.44404  Biso   1.000  N
  C19      1.0000 0.07915  0.72288  0.51352  Biso   1.000  C
  C20      1.0000 0.69205  0.13186  0.43470  Biso   1.000  C
  H20      1.0000 0.61736  0.07824  0.48143  Biso   1.000  H
  H21      1.0000 0.63455  0.29285  0.47821  Biso   1.000  H
  O8       1.0000 0.31953  0.94816  0.19163  Biso   1.000  O
  H22      1.0000 0.27930  0.83135  0.25019  Biso   1.000  H
  H23      1.0000 0.23822  0.76679  0.18170  Biso   1.000  H
  C21      1.0000 0.99282  0.85351  0.40406  Biso   1.000  C
  H24      1.0000 0.10783  0.67515  0.55223  Biso   1.000  H
  C22      1.0000 0.11382  0.75968  0.47173  Biso   1.000  C
  O9       1.0000 0.62978  0.11312  0.37850  Biso   1.000  O
  H25      1.0000 0.72274  0.01819  0.44399  Biso   1.000  H
  H26      1.0000 0.72574  0.23417  0.43221  Biso   1.000  H
  C23      1.0000 0.38150  0.03693  0.23700  Biso   1.000  C
  C24      1.0000 0.94451  0.92340  0.34260  Biso   1.000  C
  C25      1.0000 0.07031  0.82793  0.41562  Biso   1.000  C
  H27      1.0000 0.16705  0.73861  0.48102  Biso   1.000  H
  C26      1.0000 0.65012  0.07345  0.32855  Biso   1.000  C
  H28      1.0000 0.38713  0.98577  0.27743  Biso   1.000  H
  H29      1.0000 0.37061  0.16933  0.23759  Biso   1.000  H
  C27      1.0000 0.45529  0.00930  0.22367  Biso   1.000  C
  O10      1.0000 0.87064  0.93845  0.33603  Biso   1.000  O
  O11      1.0000 0.97222  0.96868  0.30444  Biso   1.000  O
  H30      1.0000 0.09290  0.85652  0.38589  Biso   1.000  H
  C28      1.0000 0.58893  0.05020  0.27389  Biso   1.000  C
  C29      1.0000 0.72444  0.05334  0.32937  Biso   1.000  C
  H31      1.0000 0.46151  0.87895  0.21502  Biso   1.000  H
  O12      1.0000 0.51632  0.06661  0.27620  Biso   1.000  O
  H32      1.0000 0.45473  0.08289  0.18809  Biso   1.000  H
  C30      1.0000 0.82163  0.99809  0.27711  Biso   1.000  C
  C31      1.0000 0.60445  0.00616  0.22172  Biso   1.000  C
  H33      1.0000 0.76536  0.06689  0.36662  Biso   1.000  H
  C32      1.0000 0.74105  0.01354  0.27675  Biso   1.000  C
  H34      1.0000 0.82390  0.90918  0.24588  Biso   1.000  H
  H35      1.0000 0.83913  0.11818  0.26741  Biso   1.000  H
  C33      1.0000 0.68054  0.99029  0.22304  Biso   1.000  C
  H36      1.0000 0.56350  0.98646  0.18479  Biso   1.000  H
  H37      1.0000 0.69052  0.96348  0.18669  Biso   1.000  H
  O13      1.0000 0.44418  0.29777  0.50305  Biso   1.000  O
  C34      1.0000 0.44222  0.30256  0.44141  Biso   1.000  C
  C35      1.0000 0.37782  0.31665  0.51651  Biso   1.000  C
  C36      1.0000 0.44303  0.11763  0.41449  Biso   1.000  C
  H38      1.0000 0.48683  0.37286  0.43941  Biso   1.000  H
  H39      1.0000 0.39552  0.36821  0.41662  Biso   1.000  H
  C37      1.0000 0.38776  0.36055  0.57743  Biso   1.000  C
  C38      1.0000 0.30526  0.29490  0.47558  Biso   1.000  C
  O14      1.0000 0.37012  0.03187  0.40080  Biso   1.000  O
  H40      1.0000 0.45592  0.12967  0.37700  Biso   1.000  H
  H41      1.0000 0.48261  0.04090  0.44340  Biso   1.000  H
  O15      1.0000 0.46131  0.38627  0.61527  Biso   1.000  O
  C39      1.0000 0.32366  0.37984  0.59519  Biso   1.000  C
  H42      1.0000 0.29893  0.26412  0.43479  Biso   1.000  H
  C40      1.0000 0.24035  0.31719  0.49272  Biso   1.000  C
  C41      1.0000 0.37132  0.83819  0.40311  Biso   1.000  C
  C42      1.0000 0.46894  0.45425  0.67456  Biso   1.000  C
  C43      1.0000 0.24964  0.35727  0.55223  Biso   1.000  C
  H43      1.0000 0.32966  0.40802  0.63612  Biso   1.000  H
  C44      1.0000 0.16180  0.28779  0.44630  Biso   1.000  C
  H44      1.0000 0.41555  0.79606  0.43792  Biso   1.000  H
  H45      1.0000 0.37672  0.78813  0.36549  Biso   1.000  H
  C45      1.0000 0.29862  0.77171  0.40991  Biso   1.000  C
  H46      1.0000 0.45225  0.35932  0.69753  Biso   1.000  H
  H47      1.0000 0.43582  0.56285  0.67079  Biso   1.000  H
  C46      1.0000 0.55065  0.50513  0.70791  Biso   1.000  C
  H48      1.0000 0.20614  0.36985  0.56442  Biso   1.000  H
  O16      1.0000 0.11232  0.24210  0.47957  Biso   1.000  O
  H49      1.0000 0.14391  0.40036  0.42219  Biso   1.000  H
  H50      1.0000 0.16312  0.18725  0.41829  Biso   1.000  H
  O17      1.0000 0.28172  0.84407  0.46072  Biso   1.000  O
  H51      1.0000 0.25581  0.80263  0.37252  Biso   1.000  H
  H52      1.0000 0.30093  0.63671  0.41331  Biso   1.000  H
  O18      1.0000 0.59707  0.34359  0.72432  Biso   1.000  O
  H53      1.0000 0.56993  0.58405  0.68190  Biso   1.000  H
  H54      1.0000 0.55396  0.57489  0.74490  Biso   1.000  H
  C47      1.0000 0.03933  0.28642  0.45723  Biso   1.000  C
  C48      1.0000 0.34255  0.83080  0.51669  Biso   1.000  C
  C49      1.0000 0.66267  0.37245  0.77572  Biso   1.000  C
  O19      1.0000 0.00718  0.34756  0.40760  Biso   1.000  O
  C50      1.0000 0.99875  0.24374  0.50133  Biso   1.000  C
  H55      1.0000 0.38274  0.92176  0.51860  Biso   1.000  H
  H56      1.0000 0.36555  0.70715  0.52181  Biso   1.000  H
  C51      1.0000 0.30804  0.86814  0.56532  Biso   1.000  C
  H57      1.0000 0.64737  0.39995  0.81143  Biso   1.000  H
  H58      1.0000 0.69196  0.47805  0.76869  Biso   1.000  H
  C52      1.0000 0.71174  0.20353  0.78773  Biso   1.000  C
  N2       1.0000 0.04213  0.18246  0.55599  Biso   1.000  N
  C53      1.0000 0.92095  0.27712  0.48651  Biso   1.000  C
  O20      1.0000 0.37026  0.88688  0.62153  Biso   1.000  O
  H59      1.0000 0.27733  0.98181  0.55599  Biso   1.000  H
  H60      1.0000 0.27435  0.76583  0.56782  Biso   1.000  H
  O21      1.0000 0.68056  0.05184  0.80840  Biso   1.000  O
  H61      1.0000 0.72072  0.16865  0.74979  Biso   1.000  H
  H62      1.0000 0.76188  0.23321  0.81832  Biso   1.000  H
  C54      1.0000 0.00727  0.14649  0.59596  Biso   1.000  C
  H63      1.0000 0.89221  0.32485  0.44780  Biso   1.000  H
  C55      1.0000 0.88622  0.24032  0.52830  Biso   1.000  C
  C56      1.0000 0.34992  0.92655  0.67147  Biso   1.000  C
  C57      1.0000 0.61854  0.96307  0.76303  Biso   1.000  C
  C58      1.0000 0.05553  0.07660  0.65742  Biso   1.000  C
  C59      1.0000 0.92973  0.17207  0.58441  Biso   1.000  C
  H64      1.0000 0.83304  0.26139  0.51900  Biso   1.000  H
  C60      1.0000 0.41116  0.94980  0.72613  Biso   1.000  C
  C61      1.0000 0.27566  0.94666  0.67066  Biso   1.000  C
  C62      1.0000 0.54473  0.99070  0.77631  Biso   1.000  C
  H65      1.0000 0.61296  0.01436  0.72260  Biso   1.000  H
  H66      1.0000 0.62946  0.83067  0.76239  Biso   1.000  H
  O22      1.0000 0.12940  0.06155  0.66399  Biso   1.000  O
  O23      1.0000 0.02782  0.03146  0.69559  Biso   1.000  O
  H67      1.0000 0.90712  0.14348  0.61409  Biso   1.000  H
  O24      1.0000 0.48377  0.93339  0.72382  Biso   1.000  O
  C63      1.0000 0.39564  0.99384  0.77830  Biso   1.000  C
  H68      1.0000 0.23474  0.93311  0.63340  Biso   1.000  H
  C64      1.0000 0.25904  0.98646  0.72328  Biso   1.000  C
  H69      1.0000 0.53853  0.12105  0.78501  Biso   1.000  H
  H70      1.0000 0.54536  0.91711  0.81193  Biso   1.000  H
  C65      1.0000 0.17846  0.00191  0.72292  Biso   1.000  C
  C66      1.0000 0.31955  0.00971  0.77699  Biso   1.000  C
  H71      1.0000 0.43657  0.01354  0.81520  Biso   1.000  H
  H72      1.0000 0.17613  0.09082  0.75410  Biso   1.000  H
  H73      1.0000 0.16096  0.88182  0.73262  Biso   1.000  H
  H74      1.0000 0.30957  0.03652  0.81334  Biso   1.000  H
  O25      1.0000 0.52780  0.46861  0.19557  Biso   1.000  O
  C67      1.0000 0.55551  0.42347  0.15741  Biso   1.000  C
  O26      1.0000 0.62938  0.43852  0.16398  Biso   1.000  O
  C68      1.0000 0.50720  0.35344  0.09595  Biso   1.000  C
  C69      1.0000 0.67844  0.49815  0.22290  Biso   1.000  C
  N3       1.0000 0.54211  0.31747  0.05597  Biso   1.000  N
  C70      1.0000 0.42971  0.32786  0.08439  Biso   1.000  C
  C71      1.0000 0.75902  0.51347  0.22327  Biso   1.000  C
  H75      1.0000 0.66094  0.61825  0.23260  Biso   1.000  H
  H76      1.0000 0.67611  0.40925  0.25409  Biso   1.000  H
  C72      1.0000 0.49868  0.25633  0.00131  Biso   1.000  C
  C73      1.0000 0.38620  0.25975  0.02828  Biso   1.000  C
  H77      1.0000 0.40710  0.35645  0.11408  Biso   1.000  H
  C74      1.0000 0.77558  0.55328  0.17064  Biso   1.000  C
  C75      1.0000 0.81953  0.49036  0.27697  Biso   1.000  C
  C76      1.0000 0.53943  0.21365  0.95726  Biso   1.000  C
  C77      1.0000 0.42100  0.22295  0.98654  Biso   1.000  C
  H78      1.0000 0.33302  0.23854  0.01899  Biso   1.000  H
  C78      1.0000 0.84990  0.57338  0.17146  Biso   1.000  C
  H79      1.0000 0.73472  0.56695  0.13339  Biso   1.000  H
  H80      1.0000 0.80955  0.46355  0.31332  Biso   1.000  H
  C79      1.0000 0.89562  0.50622  0.27829  Biso   1.000  C
  O27      1.0000 0.61242  0.25797  0.97960  Biso   1.000  O
  O28      1.0000 0.50729  0.15237  0.90763  Biso   1.000  O
  H81      1.0000 0.39232  0.17508  0.94783  Biso   1.000  H
  O29      1.0000 0.87024  0.61305  0.12151  Biso   1.000  O
  C80      1.0000 0.91109  0.55027  0.22612  Biso   1.000  C
  H82      1.0000 0.93652  0.48653  0.31523  Biso   1.000  H
  C81      1.0000 0.66191  0.21215  0.94634  Biso   1.000  C
  C82      1.0000 0.80802  0.63192  0.06531  Biso   1.000  C
  O30      1.0000 0.98375  0.56654  0.22381  Biso   1.000  O
  C83      1.0000 0.74041  0.18274  0.99275  Biso   1.000  C
  H83      1.0000 0.64401  0.09958  0.92222  Biso   1.000  H
  H84      1.0000 0.66317  0.31282  0.91833  Biso   1.000  H
  C84      1.0000 0.84247  0.66927  0.01668  Biso   1.000  C
  H85      1.0000 0.77733  0.51826  0.05602  Biso   1.000  H
  H86      1.0000 0.77433  0.73424  0.06780  Biso   1.000  H
  C85      1.0000 0.04471  0.50937  0.27629  Biso   1.000  C
  C86      1.0000 0.74962  0.14266  0.05221  Biso   1.000  C
  C87      1.0000 0.80531  0.20517  0.97562  Biso   1.000  C
  H87      1.0000 0.88272  0.57817  0.01858  Biso   1.000  H
  H88      1.0000 0.86553  0.79291  0.02180  Biso   1.000  H
  O31      1.0000 0.78177  0.65600  0.96075  Biso   1.000  O
  C88      1.0000 0.11852  0.53686  0.26301  Biso   1.000  C
  H89      1.0000 0.04534  0.58296  0.31192  Biso   1.000  H
  H90      1.0000 0.03851  0.37888  0.28500  Biso   1.000  H
  H91      1.0000 0.70612  0.13008  0.06441  Biso   1.000  H
  C89      1.0000 0.82358  0.12023  0.09518  Biso   1.000  C
  C90      1.0000 0.87780  0.18342  0.01650  Biso   1.000  C
  H92      1.0000 0.79899  0.23595  0.93482  Biso   1.000  H
  C91      1.0000 0.79871  0.72835  0.90990  Biso   1.000  C
  O32      1.0000 0.18049  0.44809  0.30838  Biso   1.000  O
  H93      1.0000 0.12941  0.66927  0.26243  Biso   1.000  H
  H94      1.0000 0.11289  0.48571  0.22259  Biso   1.000  H
  C92      1.0000 0.88768  0.13952  0.07741  Biso   1.000  C
  H95      1.0000 0.82959  0.09205  0.13611  Biso   1.000  H
  O33      1.0000 0.94418  0.20230  0.00308  Biso   1.000  O
  C93      1.0000 0.87137  0.66174  0.90314  Biso   1.000  C
  H96      1.0000 0.75592  0.69744  0.87255  Biso   1.000  H
  H97      1.0000 0.80098  0.86336  0.91334  Biso   1.000  H
  C94      1.0000 0.21172  0.29654  0.28772  Biso   1.000  C
  O34      1.0000 0.96131  0.11380  0.11530  Biso   1.000  O
  C95      1.0000 0.94232  0.19751  0.94144  Biso   1.000  C
  O35      1.0000 0.87022  0.46806  0.90083  Biso   1.000  O
  H98      1.0000 0.91561  0.70387  0.93795  Biso   1.000  H
  H99      1.0000 0.87677  0.71194  0.86552  Biso   1.000  H
  C96      1.0000 0.16260  0.12762  0.27571  Biso   1.000  C
  H100     1.0000 0.22072  0.33128  0.24983  Biso   1.000  H
  H101     1.0000 0.26180  0.26686  0.31831  Biso   1.000  H
  C97      1.0000 0.96892  0.04568  0.17454  Biso   1.000  C
  H102     1.0000 0.98688  0.12721  0.93945  Biso   1.000  H
  H103     1.0000 0.89562  0.13186  0.91665  Biso   1.000  H
  C98      1.0000 0.94308  0.38244  0.91452  Biso   1.000  C
  O36      1.0000 0.09705  0.15634  0.22431  Biso   1.000  O
  H104     1.0000 0.14735  0.10012  0.31142  Biso   1.000  H
  H105     1.0000 0.19191  0.02202  0.26873  Biso   1.000  H
  H106     1.0000 0.95223  0.14075  0.19752  Biso   1.000  H
  H107     1.0000 0.93582  0.93708  0.17083  Biso   1.000  H
  C99      1.0000 0.05063  0.99494  0.20790  Biso   1.000  C
  H108     1.0000 0.95597  0.37040  0.87704  Biso   1.000  H
  H109     1.0000 0.98271  0.45917  0.94344  Biso   1.000  H
  H110     1.0000 0.06991  0.91602  0.18188  Biso   1.000  H
  H111     1.0000 0.05389  0.92504  0.24488  Biso   1.000  H
  O37      1.0000 0.47230  0.53139  0.80445  Biso   1.000  O
  C100     1.0000 0.44458  0.57667  0.84262  Biso   1.000  C
  O38      1.0000 0.37066  0.56148  0.83604  Biso   1.000  O
  C101     1.0000 0.49284  0.64656  0.90408  Biso   1.000  C
  C102     1.0000 0.32165  0.50185  0.77712  Biso   1.000  C
  N4       1.0000 0.45799  0.68253  0.94405  Biso   1.000  N
  C103     1.0000 0.57039  0.67214  0.91563  Biso   1.000  C
  C104     1.0000 0.24105  0.48653  0.77672  Biso   1.000  C
  H112     1.0000 0.33915  0.38175  0.76742  Biso   1.000  H
  H113     1.0000 0.32397  0.59075  0.74589  Biso   1.000  H
  C105     1.0000 0.50134  0.74367  0.99867  Biso   1.000  C
  C106     1.0000 0.61388  0.74025  0.97170  Biso   1.000  C
  H114     1.0000 0.59297  0.64355  0.88590  Biso   1.000  H
  C107     1.0000 0.18056  0.50964  0.72305  Biso   1.000  C
  C108     1.0000 0.22444  0.44672  0.82934  Biso   1.000  C
  C109     1.0000 0.46066  0.78635  0.04277  Biso   1.000  C
  C110     1.0000 0.57909  0.77705  0.01349  Biso   1.000  C
  H115     1.0000 0.66707  0.76146  0.98104  Biso   1.000  H
  H116     1.0000 0.19054  0.53645  0.68670  Biso   1.000  H
  C111     1.0000 0.10445  0.49378  0.72169  Biso   1.000  C
  C112     1.0000 0.15019  0.42662  0.82857  Biso   1.000  C
  H117     1.0000 0.26538  0.43305  0.86664  Biso   1.000  H
  O39      1.0000 0.38767  0.74217  0.02042  Biso   1.000  O
  O40      1.0000 0.49280  0.84763  0.09240  Biso   1.000  O
  H118     1.0000 0.60777  0.82492  0.05219  Biso   1.000  H
  C113     1.0000 0.08895  0.44987  0.77391  Biso   1.000  C
  H119     1.0000 0.06352  0.51347  0.68480  Biso   1.000  H
  O41      1.0000 0.12986  0.38695  0.87851  Biso   1.000  O
  C114     1.0000 0.33818  0.78785  0.05369  Biso   1.000  C
  O42      1.0000 0.01634  0.43346  0.77622  Biso   1.000  O
  C115     1.0000 0.19207  0.36808  0.93471  Biso   1.000  C
  C116     1.0000 0.25969  0.81726  0.00728  Biso   1.000  C
  H120     1.0000 0.35608  0.90042  0.07780  Biso   1.000  H
  H121     1.0000 0.33687  0.68718  0.08170  Biso   1.000  H
  C117     1.0000 0.95536  0.49077  0.72369  Biso   1.000  C
  C118     1.0000 0.15757  0.33087  0.98335  Biso   1.000  C
  H122     1.0000 0.22276  0.48174  0.94401  Biso   1.000  H
  H123     1.0000 0.22576  0.26576  0.93222  Biso   1.000  H
  C119     1.0000 0.25047  0.85734  0.94781  Biso   1.000  C
  C120     1.0000 0.19478  0.79497  0.02441  Biso   1.000  C
  C121     1.0000 0.88157  0.46314  0.73701  Biso   1.000  C
  H124     1.0000 0.95475  0.41704  0.68811  Biso   1.000  H
  H125     1.0000 0.96158  0.62112  0.71503  Biso   1.000  H
  H126     1.0000 0.11736  0.42183  0.98140  Biso   1.000  H
  H127     1.0000 0.13457  0.20709  0.97823  Biso   1.000  H
  O43      1.0000 0.21827  0.34400  0.03928  Biso   1.000  O
  H128     1.0000 0.29397  0.86992  0.93562  Biso   1.000  H
  C122     1.0000 0.17646  0.87977  0.90485  Biso   1.000  C
  C123     1.0000 0.12230  0.81658  0.98353  Biso   1.000  C
  H129     1.0000 0.20105  0.76405  0.06520  Biso   1.000  H
  O44      1.0000 0.81955  0.55191  0.69164  Biso   1.000  O
  H130     1.0000 0.87063  0.33073  0.73760  Biso   1.000  H
  H131     1.0000 0.88713  0.51429  0.77740  Biso   1.000  H
  C124     1.0000 0.20137  0.27165  0.09008  Biso   1.000  C
  C125     1.0000 0.11236  0.86048  0.92261  Biso   1.000  C
  H132     1.0000 0.17045  0.90795  0.86392  Biso   1.000  H
  O45      1.0000 0.05592  0.79770  0.99694  Biso   1.000  O
  C126     1.0000 0.78832  0.70346  0.71231  Biso   1.000  C
  C127     1.0000 0.12867  0.33826  0.09688  Biso   1.000  C
  H133     1.0000 0.24417  0.30256  0.12748  Biso   1.000  H
  H134     1.0000 0.19906  0.13664  0.08669  Biso   1.000  H
  O46      1.0000 0.03878  0.88620  0.88472  Biso   1.000  O
  C128     1.0000 0.05777  0.80249  0.05858  Biso   1.000  C
  C129     1.0000 0.83744  0.87238  0.72432  Biso   1.000  C
  H135     1.0000 0.77937  0.66872  0.75020  Biso   1.000  H
  H136     1.0000 0.73824  0.73314  0.68172  Biso   1.000  H
  O47      1.0000 0.12987  0.53194  0.09919  Biso   1.000  O
  H137     1.0000 0.08449  0.29613  0.06207  Biso   1.000  H
  H138     1.0000 0.12327  0.28806  0.13450  Biso   1.000  H
  C130     1.0000 0.03117  0.95432  0.82548  Biso   1.000  C
  C131     1.0000 0.05696  0.61756  0.08551  Biso   1.000  C
  H139     1.0000 0.01316  0.87279  0.06058  Biso   1.000  H
  H140     1.0000 0.10447  0.86814  0.08338  Biso   1.000  H
  O48      1.0000 0.90303  0.84366  0.77567  Biso   1.000  O
  H141     1.0000 0.85275  0.89988  0.68861  Biso   1.000  H
  H142     1.0000 0.80813  0.97798  0.73130  Biso   1.000  H
  C132     1.0000 0.94946  0.00506  0.79213  Biso   1.000  C
  H143     1.0000 0.04786  0.85925  0.80250  Biso   1.000  H
  H144     1.0000 0.06428  0.06292  0.82920  Biso   1.000  H
  H145     1.0000 0.04407  0.62960  0.12299  Biso   1.000  H
  H146     1.0000 0.01738  0.54097  0.05659  Biso   1.000  H
  H147     1.0000 0.93017  0.08398  0.81810  Biso   1.000  H
  H148     1.0000 0.94613  0.07496  0.75510  Biso   1.000  H
