data_image0
_cell_length_a       7.923
_cell_length_b       7.923
_cell_length_c       13.437
_cell_angle_alpha    90
_cell_angle_beta     90
_cell_angle_gamma    120

_symmetry_space_group_name_H-M    "P 1"
_symmetry_int_tables_number       1

loop_
  _symmetry_equiv_pos_as_xyz
  'x, y, z'

loop_
  _atom_site_label
  _atom_site_occupancy
  _atom_site_fract_x
  _atom_site_fract_y
  _atom_site_fract_z
  _atom_site_thermal_displace_type
  _atom_site_B_iso_or_equiv
  _atom_site_type_symbol
  C1       1.0000 0.52178  0.51825  0.08953  Biso   1.000  C
  N1       1.0000 0.59838  0.58588  0.17712  Biso   1.000  N
  C2       1.0000 0.60752  0.60643  0.00000  Biso   1.000  C
  H1       1.0000 0.40072  0.40487  0.08864  Biso   1.000  H
  C3       1.0000 0.51348  0.49333  0.27268  Biso   1.000  C
  H2       1.0000 0.70334  0.69635  0.18189  Biso   1.000  H
  H3       1.0000 0.71778  0.72622  0.00000  Biso   1.000  H
  C4       1.0000 0.52178  0.51825  0.91047  Biso   1.000  C
  C5       1.0000 0.48995  0.63280  0.34092  Biso   1.000  C
  H4       1.0000 0.59877  0.45136  0.30498  Biso   1.000  H
  H5       1.0000 0.38472  0.37616  0.26122  Biso   1.000  H
  N2       1.0000 0.59838  0.58588  0.82288  Biso   1.000  N
  H6       1.0000 0.40072  0.40487  0.91144  Biso   1.000  H
  N3       1.0000 0.33338  0.66676  0.30729  Biso   1.000  N
  H7       1.0000 0.46062  0.57844  0.40917  Biso   1.000  H
  H8       1.0000 0.61392  0.75858  0.34323  Biso   1.000  H
  C6       1.0000 0.51348  0.49333  0.72732  Biso   1.000  C
  H9       1.0000 0.70334  0.69635  0.81811  Biso   1.000  H
  C7       1.0000 0.36721  0.85710  0.34092  Biso   1.000  C
  C8       1.0000 0.14284  0.51009  0.34092  Biso   1.000  C
  C9       1.0000 0.48995  0.63280  0.65908  Biso   1.000  C
  H10      1.0000 0.59877  0.45136  0.69502  Biso   1.000  H
  H11      1.0000 0.38472  0.37616  0.73878  Biso   1.000  H
  H12      1.0000 0.42165  0.88217  0.40917  Biso   1.000  H
  H13      1.0000 0.24138  0.85535  0.34323  Biso   1.000  H
  C10      1.0000 0.50688  0.02033  0.27268  Biso   1.000  C
  H14      1.0000 0.11773  0.53938  0.40917  Biso   1.000  H
  H15      1.0000 0.14469  0.38607  0.34323  Biso   1.000  H
  C11      1.0000 0.97983  0.48648  0.27268  Biso   1.000  C
  N4       1.0000 0.33338  0.66676  0.69271  Biso   1.000  N
  H16      1.0000 0.46062  0.57844  0.59083  Biso   1.000  H
  H17      1.0000 0.61392  0.75858  0.65677  Biso   1.000  H
  H18      1.0000 0.54859  0.14741  0.30498  Biso   1.000  H
  H19      1.0000 0.62399  0.00867  0.26122  Biso   1.000  H
  N5       1.0000 0.41404  0.01260  0.17712  Biso   1.000  N
  H20      1.0000 0.85258  0.40137  0.30498  Biso   1.000  H
  H21      1.0000 0.99136  0.61532  0.26122  Biso   1.000  H
  N6       1.0000 0.98753  0.40166  0.17712  Biso   1.000  N
  C12      1.0000 0.36721  0.85710  0.65908  Biso   1.000  C
  C13      1.0000 0.14284  0.51009  0.65908  Biso   1.000  C
  C14      1.0000 0.48172  0.00357  0.08953  Biso   1.000  C
  H22      1.0000 0.30373  0.00707  0.18189  Biso   1.000  H
  C15      1.0000 0.99645  0.47832  0.08953  Biso   1.000  C
  H23      1.0000 0.99299  0.29673  0.18189  Biso   1.000  H
  C16      1.0000 0.50688  0.02033  0.72732  Biso   1.000  C
  H24      1.0000 0.42165  0.88217  0.59083  Biso   1.000  H
  H25      1.0000 0.24138  0.85535  0.65677  Biso   1.000  H
  C17      1.0000 0.97983  0.48648  0.72732  Biso   1.000  C
  H26      1.0000 0.11773  0.53938  0.59083  Biso   1.000  H
  H27      1.0000 0.14469  0.38607  0.65677  Biso   1.000  H
  H28      1.0000 0.59523  0.99584  0.08864  Biso   1.000  H
  C18      1.0000 0.39359  0.00124  0.00000  Biso   1.000  C
  H29      1.0000 0.00405  0.59928  0.08864  Biso   1.000  H
  C19      1.0000 0.99884  0.39248  0.00000  Biso   1.000  C
  N7       1.0000 0.41404  0.01260  0.82288  Biso   1.000  N
  H30      1.0000 0.54859  0.14741  0.69502  Biso   1.000  H
  H31      1.0000 0.62399  0.00867  0.73878  Biso   1.000  H
  N8       1.0000 0.98753  0.40166  0.82288  Biso   1.000  N
  H32      1.0000 0.85258  0.40137  0.69502  Biso   1.000  H
  H33      1.0000 0.99136  0.61532  0.73878  Biso   1.000  H
  H34      1.0000 0.27380  0.99162  0.00000  Biso   1.000  H
  C20      1.0000 0.48172  0.00357  0.91047  Biso   1.000  C
  H35      1.0000 0.00842  0.28215  0.00000  Biso   1.000  H
  C21      1.0000 0.99645  0.47832  0.91047  Biso   1.000  C
  H36      1.0000 0.30373  0.00707  0.81811  Biso   1.000  H
  H37      1.0000 0.99299  0.29673  0.81811  Biso   1.000  H
  H38      1.0000 0.59523  0.99584  0.91144  Biso   1.000  H
  H39      1.0000 0.00405  0.59928  0.91144  Biso   1.000  H
  Ne1      1.0000 0.33334  0.66671  0.00000  Biso   1.000  Ne
  He1      1.0000 0.22536  0.75176  0.92416  Biso   1.000  He
  He2      1.0000 0.52808  0.81839  1.00000  Biso   1.000  He
  He3      1.0000 0.26067  0.43407  0.81969  Biso   1.000  He
  Ar1      1.0000 0.33332  0.66674  0.00000  Biso   1.000  Ar
