data_image0
_cell_length_a       8.04
_cell_length_b       8.04
_cell_length_c       33.925
_cell_angle_alpha    90
_cell_angle_beta     90
_cell_angle_gamma    120

_symmetry_space_group_name_H-M    "P 1"
_symmetry_int_tables_number       1

loop_
  _symmetry_equiv_pos_as_xyz
  'x, y, z'

loop_
  _atom_site_label
  _atom_site_occupancy
  _atom_site_fract_x
  _atom_site_fract_y
  _atom_site_fract_z
  _atom_site_thermal_displace_type
  _atom_site_B_iso_or_equiv
  _atom_site_type_symbol
  C1       1.0000 0.32225  0.48630  0.38794  Biso   1.000  C
  C2       1.0000 0.41785  0.42425  0.35800  Biso   1.000  C
  N1       1.0000 0.33334  0.66668  0.37651  Biso   1.000  N
  H1       1.0000 0.38534  0.50252  0.41391  Biso   1.000  H
  H2       1.0000 0.18595  0.38533  0.39069  Biso   1.000  H
  N2       1.0000 0.30853  0.37427  0.32147  Biso   1.000  N
  H3       1.0000 0.42399  0.31165  0.36799  Biso   1.000  H
  H4       1.0000 0.55058  0.52952  0.35319  Biso   1.000  H
  C3       1.0000 0.51365  0.83601  0.38794  Biso   1.000  C
  C4       1.0000 0.16399  0.67774  0.38794  Biso   1.000  C
  C5       1.0000 0.39340  0.38705  0.28681  Biso   1.000  C
  H5       1.0000 0.21070  0.25076  0.32401  Biso   1.000  H
  H6       1.0000 0.18495  0.33506  0.32221  Biso   1.000  H
  H7       1.0000 0.49751  0.88283  0.41391  Biso   1.000  H
  H8       1.0000 0.61470  0.80053  0.39069  Biso   1.000  H
  C6       1.0000 0.57576  0.99356  0.35800  Biso   1.000  C
  H9       1.0000 0.11717  0.61469  0.41391  Biso   1.000  H
  H10      1.0000 0.19943  0.81404  0.39069  Biso   1.000  H
  C7       1.0000 0.00642  0.58223  0.35800  Biso   1.000  C
  C8       1.0000 0.28778  0.34397  0.24999  Biso   1.000  C
  H11      1.0000 0.52587  0.42511  0.28631  Biso   1.000  H
  N3       1.0000 0.62570  0.93424  0.32147  Biso   1.000  N
  H12      1.0000 0.68826  0.11233  0.36799  Biso   1.000  H
  H13      1.0000 0.47032  0.02099  0.35319  Biso   1.000  H
  N4       1.0000 0.06572  0.69138  0.32147  Biso   1.000  N
  H14      1.0000 0.88758  0.57591  0.36799  Biso   1.000  H
  H15      1.0000 0.97892  0.44939  0.35319  Biso   1.000  H
  C9       1.0000 0.39340  0.38705  0.21318  Biso   1.000  C
  H16      1.0000 0.15205  0.28868  0.24999  Biso   1.000  H
  H17      1.0000 0.74918  0.95981  0.32401  Biso   1.000  H
  H18      1.0000 0.66490  0.84994  0.32221  Biso   1.000  H
  C10      1.0000 0.61307  0.00649  0.28681  Biso   1.000  C
  H19      1.0000 0.04019  0.78933  0.32401  Biso   1.000  H
  H20      1.0000 0.15018  0.81504  0.32221  Biso   1.000  H
  C11      1.0000 0.99362  0.60665  0.28681  Biso   1.000  C
  N5       1.0000 0.30853  0.37427  0.17851  Biso   1.000  N
  H21      1.0000 0.52587  0.42511  0.21371  Biso   1.000  H
  C12      1.0000 0.65594  0.94372  0.24999  Biso   1.000  C
  H22      1.0000 0.57492  0.10084  0.28631  Biso   1.000  H
  C13      1.0000 0.05623  0.71221  0.24999  Biso   1.000  C
  H23      1.0000 0.89911  0.47409  0.28631  Biso   1.000  H
  C14      1.0000 0.41785  0.42425  0.14199  Biso   1.000  C
  H24      1.0000 0.21070  0.25076  0.17601  Biso   1.000  H
  H25      1.0000 0.18495  0.33506  0.17780  Biso   1.000  H
  C15      1.0000 0.61307  0.00649  0.21318  Biso   1.000  C
  H26      1.0000 0.71125  0.86330  0.24999  Biso   1.000  H
  C16      1.0000 0.99362  0.60665  0.21318  Biso   1.000  C
  H27      1.0000 0.13665  0.84793  0.24999  Biso   1.000  H
  C17      1.0000 0.32225  0.48630  0.11207  Biso   1.000  C
  H28      1.0000 0.42399  0.31165  0.13200  Biso   1.000  H
  H29      1.0000 0.55058  0.52952  0.14679  Biso   1.000  H
  N6       1.0000 0.62570  0.93424  0.17851  Biso   1.000  N
  H30      1.0000 0.57492  0.10084  0.21371  Biso   1.000  H
  N7       1.0000 0.06572  0.69138  0.17851  Biso   1.000  N
  H31      1.0000 0.89911  0.47409  0.21371  Biso   1.000  H
  N8       1.0000 0.33334  0.66668  0.12348  Biso   1.000  N
  H32      1.0000 0.38534  0.50252  0.08610  Biso   1.000  H
  H33      1.0000 0.18595  0.38533  0.10930  Biso   1.000  H
  C18      1.0000 0.57576  0.99356  0.14199  Biso   1.000  C
  H34      1.0000 0.74918  0.95981  0.17601  Biso   1.000  H
  H35      1.0000 0.66490  0.84994  0.17780  Biso   1.000  H
  C19      1.0000 0.00642  0.58223  0.14199  Biso   1.000  C
  H36      1.0000 0.04019  0.78933  0.17601  Biso   1.000  H
  H37      1.0000 0.15018  0.81504  0.17780  Biso   1.000  H
  C20      1.0000 0.51365  0.83601  0.11207  Biso   1.000  C
  C21      1.0000 0.16399  0.67774  0.11207  Biso   1.000  C
  H38      1.0000 0.68826  0.11233  0.13200  Biso   1.000  H
  H39      1.0000 0.47032  0.02099  0.14679  Biso   1.000  H
  H40      1.0000 0.88758  0.57591  0.13200  Biso   1.000  H
  H41      1.0000 0.97892  0.44939  0.14679  Biso   1.000  H
  H42      1.0000 0.49751  0.88283  0.08610  Biso   1.000  H
  H43      1.0000 0.61470  0.80053  0.10930  Biso   1.000  H
  H44      1.0000 0.11717  0.61469  0.08610  Biso   1.000  H
  H45      1.0000 0.19943  0.81404  0.10930  Biso   1.000  H
  C22      1.0000 0.51375  0.67774  0.61206  Biso   1.000  C
  N9       1.0000 0.33334  0.66668  0.62349  Biso   1.000  N
  H46      1.0000 0.49752  0.61469  0.58609  Biso   1.000  H
  H47      1.0000 0.61460  0.81404  0.60931  Biso   1.000  H
  C23      1.0000 0.57582  0.58223  0.64200  Biso   1.000  C
  C24      1.0000 0.16404  0.48630  0.61206  Biso   1.000  C
  C25      1.0000 0.32236  0.83601  0.61206  Biso   1.000  C
  H48      1.0000 0.68821  0.57591  0.63201  Biso   1.000  H
  H49      1.0000 0.47034  0.44939  0.64681  Biso   1.000  H
  N10      1.0000 0.62567  0.69138  0.67853  Biso   1.000  N
  H50      1.0000 0.11718  0.50252  0.58609  Biso   1.000  H
  H51      1.0000 0.19938  0.38533  0.60931  Biso   1.000  H
  C26      1.0000 0.00640  0.42425  0.64200  Biso   1.000  C
  H52      1.0000 0.38532  0.88283  0.58609  Biso   1.000  H
  H53      1.0000 0.18584  0.80053  0.60931  Biso   1.000  H
  C27      1.0000 0.41780  0.99356  0.64200  Biso   1.000  C
  H54      1.0000 0.74914  0.78933  0.67599  Biso   1.000  H
  C28      1.0000 0.61303  0.60665  0.71319  Biso   1.000  C
  H55      1.0000 0.66486  0.81504  0.67779  Biso   1.000  H
  N11      1.0000 0.06574  0.37427  0.67853  Biso   1.000  N
  H56      1.0000 0.88767  0.31165  0.63201  Biso   1.000  H
  H57      1.0000 0.97894  0.52952  0.64681  Biso   1.000  H
  N12      1.0000 0.30854  0.93424  0.67853  Biso   1.000  N
  H58      1.0000 0.42395  0.11233  0.63201  Biso   1.000  H
  H59      1.0000 0.55055  0.02099  0.64681  Biso   1.000  H
  H60      1.0000 0.57485  0.47409  0.71369  Biso   1.000  H
  C29      1.0000 0.65598  0.71221  0.75001  Biso   1.000  C
  H61      1.0000 0.04006  0.25076  0.67599  Biso   1.000  H
  H62      1.0000 0.15012  0.33506  0.67779  Biso   1.000  H
  C30      1.0000 0.99365  0.38705  0.71319  Biso   1.000  C
  H63      1.0000 0.21063  0.95981  0.67599  Biso   1.000  H
  H64      1.0000 0.18504  0.84994  0.67779  Biso   1.000  H
  C31      1.0000 0.39342  0.00649  0.71319  Biso   1.000  C
  C32      1.0000 0.61303  0.60665  0.78682  Biso   1.000  C
  H65      1.0000 0.71128  0.84793  0.75001  Biso   1.000  H
  C33      1.0000 0.05619  0.34397  0.75001  Biso   1.000  C
  H66      1.0000 0.89912  0.42511  0.71369  Biso   1.000  H
  C34      1.0000 0.28778  0.94372  0.75001  Biso   1.000  C
  H67      1.0000 0.52592  0.10084  0.71369  Biso   1.000  H
  N13      1.0000 0.62567  0.69138  0.82149  Biso   1.000  N
  H68      1.0000 0.57485  0.47409  0.78629  Biso   1.000  H
  H69      1.0000 0.13663  0.28868  0.75001  Biso   1.000  H
  C35      1.0000 0.99365  0.38705  0.78682  Biso   1.000  C
  H70      1.0000 0.15205  0.86330  0.75001  Biso   1.000  H
  C36      1.0000 0.39342  0.00649  0.78682  Biso   1.000  C
  C37      1.0000 0.57582  0.58223  0.85801  Biso   1.000  C
  H71      1.0000 0.74914  0.78933  0.82399  Biso   1.000  H
  H72      1.0000 0.66486  0.81504  0.82220  Biso   1.000  H
  N14      1.0000 0.06574  0.37427  0.82149  Biso   1.000  N
  H73      1.0000 0.89912  0.42511  0.78629  Biso   1.000  H
  N15      1.0000 0.30854  0.93424  0.82149  Biso   1.000  N
  H74      1.0000 0.52592  0.10084  0.78629  Biso   1.000  H
  C38      1.0000 0.51375  0.67774  0.88793  Biso   1.000  C
  H75      1.0000 0.68821  0.57591  0.86800  Biso   1.000  H
  H76      1.0000 0.47034  0.44939  0.85321  Biso   1.000  H
  C39      1.0000 0.00640  0.42425  0.85801  Biso   1.000  C
  H77      1.0000 0.04006  0.25076  0.82399  Biso   1.000  H
  H78      1.0000 0.15012  0.33506  0.82220  Biso   1.000  H
  C40      1.0000 0.41780  0.99356  0.85801  Biso   1.000  C
  H79      1.0000 0.21063  0.95981  0.82399  Biso   1.000  H
  H80      1.0000 0.18504  0.84994  0.82220  Biso   1.000  H
  N16      1.0000 0.33334  0.66668  0.87652  Biso   1.000  N
  H81      1.0000 0.49752  0.61469  0.91390  Biso   1.000  H
  H82      1.0000 0.61460  0.81404  0.89070  Biso   1.000  H
  C41      1.0000 0.16404  0.48630  0.88793  Biso   1.000  C
  H83      1.0000 0.88767  0.31165  0.86800  Biso   1.000  H
  H84      1.0000 0.97894  0.52952  0.85321  Biso   1.000  H
  C42      1.0000 0.32236  0.83601  0.88793  Biso   1.000  C
  H85      1.0000 0.42395  0.11233  0.86800  Biso   1.000  H
  H86      1.0000 0.55055  0.02099  0.85321  Biso   1.000  H
  H87      1.0000 0.11718  0.50252  0.91390  Biso   1.000  H
  H88      1.0000 0.19938  0.38533  0.89070  Biso   1.000  H
  H89      1.0000 0.38532  0.88283  0.91390  Biso   1.000  H
  H90      1.0000 0.18584  0.80053  0.89070  Biso   1.000  H
  Ne1      1.0000 0.33333  0.66667  0.25000  Biso   1.000  Ne
  He1      1.0000 0.55147  0.63802  0.24999  Biso   1.000  He
  He2      1.0000 0.15731  0.51547  0.25407  Biso   1.000  He
  He3      1.0000 0.36174  0.92021  0.24999  Biso   1.000  He
  Ar1      1.0000 0.33330  0.66661  0.25000  Biso   1.000  Ar
  Ne2      1.0000 0.33334  0.66667  0.75000  Biso   1.000  Ne
  He4      1.0000 0.08184  0.63821  0.75001  Biso   1.000  He
  He5      1.0000 0.48197  0.83972  0.75445  Biso   1.000  He
  He6      1.0000 0.35760  0.51885  0.75453  Biso   1.000  He
  Ar2      1.0000 0.33331  0.66661  0.75000  Biso   1.000  Ar
