data_image0
_cell_length_a       12.187
_cell_length_b       14.65
_cell_length_c       22.05
_cell_angle_alpha    87.84
_cell_angle_beta     87.6
_cell_angle_gamma    72.39

_symmetry_space_group_name_H-M    "P 1"
_symmetry_int_tables_number       1

loop_
  _symmetry_equiv_pos_as_xyz
  'x, y, z'

loop_
  _atom_site_label
  _atom_site_occupancy
  _atom_site_fract_x
  _atom_site_fract_y
  _atom_site_fract_z
  _atom_site_thermal_displace_type
  _atom_site_B_iso_or_equiv
  _atom_site_type_symbol
  C1       1.0000 0.65592  0.57122  0.49880  Biso   1.000  C
  C2       1.0000 0.59421  0.67057  0.47246  Biso   1.000  C
  H1       1.0000 0.60702  0.53098  0.49698  Biso   1.000  H
  H2       1.0000 0.67366  0.57652  0.54030  Biso   1.000  H
  H3       1.0000 0.72587  0.54368  0.47559  Biso   1.000  H
  C3       1.0000 0.66518  0.73946  0.47437  Biso   1.000  C
  H4       1.0000 0.57601  0.66457  0.43069  Biso   1.000  H
  H5       1.0000 0.52219  0.69692  0.49512  Biso   1.000  H
  C4       1.0000 0.59807  0.83865  0.45194  Biso   1.000  C
  H6       1.0000 0.68779  0.74269  0.51569  Biso   1.000  H
  H7       1.0000 0.73469  0.71579  0.44930  Biso   1.000  H
  O1       1.0000 0.66959  0.90026  0.45661  Biso   1.000  O
  H8       1.0000 0.57771  0.83680  0.41012  Biso   1.000  H
  H9       1.0000 0.52782  0.86270  0.47632  Biso   1.000  H
  C5       1.0000 0.62402  0.99433  0.43650  Biso   1.000  C
  C6       1.0000 0.51223  0.03248  0.41625  Biso   1.000  C
  C7       1.0000 0.69647  0.05195  0.43718  Biso   1.000  C
  C8       1.0000 0.47101  0.12650  0.39427  Biso   1.000  C
  H10      1.0000 0.46381  0.99412  0.41738  Biso   1.000  H
  C9       1.0000 0.65451  0.14684  0.41647  Biso   1.000  C
  C10      1.0000 0.82090  0.01156  0.45634  Biso   1.000  C
  C11      1.0000 0.34992  0.16280  0.37016  Biso   1.000  C
  C12      1.0000 0.54405  0.18349  0.39450  Biso   1.000  C
  H11      1.0000 0.70132  0.18648  0.41738  Biso   1.000  H
  C13      1.0000 0.89919  0.96976  0.40226  Biso   1.000  C
  H12      1.0000 0.82644  0.96207  0.48749  Biso   1.000  H
  H13      1.0000 0.84559  0.06199  0.47319  Biso   1.000  H
  C14      1.0000 0.34542  0.13217  0.30586  Biso   1.000  C
  H14      1.0000 0.29849  0.13837  0.39622  Biso   1.000  H
  H15      1.0000 0.32322  0.23215  0.37129  Biso   1.000  H
  O2       1.0000 0.49963  0.27662  0.37129  Biso   1.000  O
  C15      1.0000 0.91962  0.87439  0.38791  Biso   1.000  C
  C16      1.0000 0.94740  0.02592  0.36389  Biso   1.000  C
  C17      1.0000 0.33077  0.04373  0.29347  Biso   1.000  C
  C18      1.0000 0.36116  0.19049  0.25673  Biso   1.000  C
  C19      1.0000 0.57392  0.33599  0.36966  Biso   1.000  C
  C20      1.0000 0.98413  0.83592  0.33619  Biso   1.000  C
  H16      1.0000 0.88948  0.83530  0.41339  Biso   1.000  H
  C21      1.0000 0.01154  0.98782  0.31213  Biso   1.000  C
  O3       1.0000 0.92656  0.12095  0.37774  Biso   1.000  O
  C22      1.0000 0.33221  0.01498  0.23376  Biso   1.000  C
  O4       1.0000 0.31168  0.99030  0.34373  Biso   1.000  O
  C23      1.0000 0.36279  0.16167  0.19716  Biso   1.000  C
  H17      1.0000 0.37094  0.24963  0.26400  Biso   1.000  H
  C24      1.0000 0.51433  0.42758  0.33529  Biso   1.000  C
  H18      1.0000 0.64688  0.30359  0.34950  Biso   1.000  H
  H19      1.0000 0.58884  0.35005  0.41062  Biso   1.000  H
  C25      1.0000 0.02975  0.89305  0.29705  Biso   1.000  C
  O5       1.0000 0.00810  0.74117  0.32085  Biso   1.000  O
  H20      1.0000 0.04283  0.02660  0.28702  Biso   1.000  H
  C26      1.0000 0.97429  0.18204  0.35340  Biso   1.000  C
  C27      1.0000 0.01303  0.14946  0.39490  Biso   1.000  C
  C28      1.0000 0.34815  0.07367  0.18458  Biso   1.000  C
  H21      1.0000 0.32240  0.95592  0.22649  Biso   1.000  H
  C29      1.0000 0.31976  0.89205  0.33506  Biso   1.000  C
  O6       1.0000 0.38061  0.21589  0.14680  Biso   1.000  O
  C30      1.0000 0.58303  0.49916  0.33261  Biso   1.000  C
  H22      1.0000 0.43962  0.45707  0.35458  Biso   1.000  H
  H23      1.0000 0.50161  0.41224  0.29419  Biso   1.000  H
  C31      1.0000 0.09821  0.85260  0.23966  Biso   1.000  C
  C32      1.0000 0.95569  0.68186  0.35731  Biso   1.000  C
  C33      1.0000 0.96025  0.26320  0.40480  Biso   1.000  C
  H24      1.0000 0.93583  0.21086  0.31658  Biso   1.000  H
  H25      1.0000 0.07417  0.13649  0.36389  Biso   1.000  H
  H26      1.0000 0.05504  0.15095  0.34341  Biso   1.000  H
  H27      1.0000 0.04374  0.11653  0.43241  Biso   1.000  H
  C34      1.0000 0.34735  0.04146  0.12015  Biso   1.000  C
  C35      1.0000 0.28477  0.85100  0.39395  Biso   1.000  C
  H28      1.0000 0.39824  0.85630  0.32321  Biso   1.000  H
  H29      1.0000 0.26952  0.88750  0.30309  Biso   1.000  H
  C36      1.0000 0.37361  0.31356  0.15584  Biso   1.000  C
  C37      1.0000 0.69732  0.46470  0.29669  Biso   1.000  C
  H30      1.0000 0.59842  0.51214  0.37370  Biso   1.000  H
  H31      1.0000 0.53656  0.55879  0.31431  Biso   1.000  H
  C38      1.0000 0.02477  0.84952  0.18617  Biso   1.000  C
  H32      1.0000 0.14819  0.89112  0.22790  Biso   1.000  H
  H33      1.0000 0.14690  0.78813  0.24869  Biso   1.000  H
  H34      1.0000 0.87256  0.70623  0.35522  Biso   1.000  H
  H35      1.0000 0.97644  0.68148  0.39931  Biso   1.000  H
  C39      1.0000 0.99838  0.58188  0.33324  Biso   1.000  C
  H36      1.0000 0.95330  0.32067  0.37978  Biso   1.000  H
  H37      1.0000 0.88479  0.28053  0.42728  Biso   1.000  H
  C40      1.0000 0.04149  0.27940  0.44603  Biso   1.000  C
  C41      1.0000 0.46656  0.98884  0.09563  Biso   1.000  C
  H38      1.0000 0.29879  0.99990  0.11910  Biso   1.000  H
  H39      1.0000 0.31401  0.09704  0.09408  Biso   1.000  H
  H40      1.0000 0.20682  0.88783  0.40562  Biso   1.000  H
  H41      1.0000 0.33518  0.85628  0.42560  Biso   1.000  H
  C42      1.0000 0.29093  0.74640  0.38805  Biso   1.000  C
  C43      1.0000 0.39503  0.35677  0.09458  Biso   1.000  C
  H42      1.0000 0.43087  0.31718  0.18408  Biso   1.000  H
  H43      1.0000 0.29799  0.34818  0.17232  Biso   1.000  H
  H44      1.0000 0.73640  0.51259  0.29719  Biso   1.000  H
  H45      1.0000 0.68280  0.45387  0.25550  Biso   1.000  H
  H46      1.0000 0.74443  0.40608  0.31481  Biso   1.000  H
  C44      1.0000 0.99104  0.92777  0.14530  Biso   1.000  C
  C45      1.0000 0.99198  0.76912  0.17527  Biso   1.000  C
  H47      1.0000 0.98761  0.58490  0.28979  Biso   1.000  H
  H48      1.0000 0.95230  0.54409  0.35172  Biso   1.000  H
  C46      1.0000 0.12477  0.53168  0.34541  Biso   1.000  C
  H49      1.0000 0.11629  0.26728  0.42560  Biso   1.000  H
  H50      1.0000 0.04933  0.23528  0.48068  Biso   1.000  H
  C47      1.0000 0.00014  0.38354  0.46806  Biso   1.000  C
  C48      1.0000 0.51297  0.88971  0.10298  Biso   1.000  C
  C49      1.0000 0.53439  0.03871  0.06575  Biso   1.000  C
  C50      1.0000 0.24766  0.70521  0.44531  Biso   1.000  C
  H51      1.0000 0.24498  0.74078  0.35431  Biso   1.000  H
  H52      1.0000 0.36999  0.70910  0.37910  Biso   1.000  H
  C51      1.0000 0.31714  0.34653  0.04441  Biso   1.000  C
  H53      1.0000 0.47449  0.32666  0.08169  Biso   1.000  H
  H54      1.0000 0.38517  0.42439  0.09940  Biso   1.000  H
  C52      1.0000 0.92743  0.92311  0.09540  Biso   1.000  C
  O7       1.0000 0.02504  0.00674  0.15788  Biso   1.000  O
  C53      1.0000 0.92729  0.76487  0.12578  Biso   1.000  C
  H55      1.0000 0.01402  0.71652  0.20188  Biso   1.000  H
  C54      1.0000 0.17016  0.43421  0.31599  Biso   1.000  C
  H56      1.0000 0.13440  0.52321  0.38891  Biso   1.000  H
  H57      1.0000 0.17027  0.57220  0.33020  Biso   1.000  H
  H58      1.0000 0.92621  0.39530  0.48849  Biso   1.000  H
  H59      1.0000 0.99380  0.42707  0.43382  Biso   1.000  H
  H60      1.0000 0.05450  0.39308  0.49548  Biso   1.000  H
  O8       1.0000 0.44173  0.84401  0.13413  Biso   1.000  O
  C55      1.0000 0.62358  0.84285  0.08096  Biso   1.000  C
  C56      1.0000 0.64438  0.99234  0.04409  Biso   1.000  C
  H61      1.0000 0.50504  0.10475  0.06030  Biso   1.000  H
  H62      1.0000 0.25372  0.63921  0.43949  Biso   1.000  H
  H63      1.0000 0.16872  0.74067  0.45380  Biso   1.000  H
  H64      1.0000 0.29357  0.70963  0.47882  Biso   1.000  H
  H65      1.0000 0.33404  0.38005  0.00808  Biso   1.000  H
  H66      1.0000 0.33536  0.27938  0.03519  Biso   1.000  H
  C57      1.0000 0.18980  0.38499  0.05994  Biso   1.000  C
  C58      1.0000 0.89318  0.84254  0.08509  Biso   1.000  C
  H67      1.0000 0.90709  0.97501  0.06811  Biso   1.000  H
  C59      1.0000 0.00287  0.08371  0.11352  Biso   1.000  C
  O9       1.0000 0.89360  0.68534  0.11275  Biso   1.000  O
  H68      1.0000 0.24993  0.40591  0.32498  Biso   1.000  H
  H69      1.0000 0.16239  0.44223  0.27281  Biso   1.000  H
  H70      1.0000 0.12671  0.39317  0.33161  Biso   1.000  H
  C60      1.0000 0.47887  0.74190  0.13731  Biso   1.000  C
  H71      1.0000 0.65293  0.77669  0.08600  Biso   1.000  H
  C61      1.0000 0.69122  0.89364  0.05136  Biso   1.000  C
  O10      1.0000 0.71455  0.03972  0.01362  Biso   1.000  O
  H72      1.0000 0.14671  0.37578  0.02638  Biso   1.000  H
  H73      1.0000 0.17008  0.45198  0.06802  Biso   1.000  H
  H74      1.0000 0.17156  0.35130  0.09531  Biso   1.000  H
  C62      1.0000 0.81555  0.84305  0.03292  Biso   1.000  C
  H75      1.0000 0.92103  0.10848  0.10662  Biso   1.000  H
  H76      1.0000 0.04256  0.06130  0.07528  Biso   1.000  H
  C63      1.0000 0.04606  0.16090  0.13790  Biso   1.000  C
  C64      1.0000 0.93466  0.60155  0.15066  Biso   1.000  C
  C65      1.0000 0.38747  0.71154  0.17359  Biso   1.000  C
  H77      1.0000 0.55232  0.71860  0.15702  Biso   1.000  H
  H78      1.0000 0.48796  0.71629  0.09690  Biso   1.000  H
  C66      1.0000 0.67549  0.14225  0.01426  Biso   1.000  C
  H79      1.0000 0.82326  0.77783  0.02211  Biso   1.000  H
  H80      1.0000 0.83803  0.87567  0.99768  Biso   1.000  H
  C67      1.0000 0.97221  0.21545  0.19016  Biso   1.000  C
  H81      1.0000 0.04951  0.20609  0.10512  Biso   1.000  H
  H82      1.0000 0.12376  0.13190  0.15161  Biso   1.000  H
  C68      1.0000 0.89235  0.52401  0.12605  Biso   1.000  C
  H83      1.0000 0.90586  0.61502  0.19212  Biso   1.000  H
  H84      1.0000 0.01821  0.58122  0.15048  Biso   1.000  H
  C69      1.0000 0.41157  0.60325  0.17709  Biso   1.000  C
  H85      1.0000 0.31366  0.74051  0.15529  Biso   1.000  H
  H86      1.0000 0.38250  0.73520  0.21441  Biso   1.000  H
  C70      1.0000 0.76504  0.18080  0.98270  Biso   1.000  C
  H87      1.0000 0.60309  0.16623  0.99369  Biso   1.000  H
  H88      1.0000 0.66283  0.16344  0.05581  Biso   1.000  H
  H89      1.0000 0.95484  0.17006  0.21932  Biso   1.000  H
  H90      1.0000 0.89998  0.25620  0.17459  Biso   1.000  H
  C71      1.0000 0.03188  0.27707  0.22231  Biso   1.000  C
  C72      1.0000 0.76240  0.54772  0.12782  Biso   1.000  C
  H91      1.0000 0.92462  0.46518  0.14939  Biso   1.000  H
  H92      1.0000 0.92063  0.51271  0.08432  Biso   1.000  H
  C73      1.0000 0.32063  0.57332  0.21491  Biso   1.000  C
  H93      1.0000 0.41489  0.57959  0.13631  Biso   1.000  H
  H94      1.0000 0.48632  0.57409  0.19461  Biso   1.000  H
  C74      1.0000 0.72929  0.28914  0.98647  Biso   1.000  C
  H95      1.0000 0.77386  0.16285  0.94052  Biso   1.000  H
  H96      1.0000 0.83850  0.15308  0.00168  Biso   1.000  H
  H97      1.0000 0.98318  0.30915  0.25519  Biso   1.000  H
  H98      1.0000 0.04666  0.32379  0.19398  Biso   1.000  H
  H99      1.0000 0.10353  0.23704  0.23780  Biso   1.000  H
  C75      1.0000 0.72159  0.46632  0.10630  Biso   1.000  C
  H100     1.0000 0.73031  0.60427  0.10239  Biso   1.000  H
  H101     1.0000 0.73359  0.56262  0.16910  Biso   1.000  H
  H102     1.0000 0.33945  0.50468  0.21591  Biso   1.000  H
  H103     1.0000 0.24684  0.60077  0.19720  Biso   1.000  H
  H104     1.0000 0.31803  0.59549  0.25550  Biso   1.000  H
  C76      1.0000 0.81659  0.33336  0.95627  Biso   1.000  C
  H105     1.0000 0.65593  0.31593  0.96731  Biso   1.000  H
  H106     1.0000 0.71870  0.30629  0.02879  Biso   1.000  H
  H107     1.0000 0.63900  0.48492  0.10852  Biso   1.000  H
  H108     1.0000 0.75198  0.41041  0.13168  Biso   1.000  H
  H109     1.0000 0.74812  0.45227  0.06511  Biso   1.000  H
  H110     1.0000 0.78912  0.40160  0.95981  Biso   1.000  H
  H111     1.0000 0.82680  0.31741  0.91418  Biso   1.000  H
  H112     1.0000 0.88889  0.30870  0.97589  Biso   1.000  H
  C77      1.0000 0.34410  0.42882  0.50120  Biso   1.000  C
  C78      1.0000 0.40584  0.32941  0.52754  Biso   1.000  C
  H113     1.0000 0.39303  0.46900  0.50302  Biso   1.000  H
  H114     1.0000 0.32628  0.42353  0.45970  Biso   1.000  H
  H115     1.0000 0.27410  0.45629  0.52441  Biso   1.000  H
  C79      1.0000 0.33478  0.26052  0.52563  Biso   1.000  C
  H116     1.0000 0.42404  0.33541  0.56931  Biso   1.000  H
  H117     1.0000 0.47783  0.30313  0.50488  Biso   1.000  H
  C80      1.0000 0.40189  0.16133  0.54806  Biso   1.000  C
  H118     1.0000 0.31217  0.25729  0.48431  Biso   1.000  H
  H119     1.0000 0.26528  0.28419  0.55070  Biso   1.000  H
  O11      1.0000 0.33043  0.09979  0.54339  Biso   1.000  O
  H120     1.0000 0.42234  0.16318  0.58988  Biso   1.000  H
  H121     1.0000 0.47223  0.13728  0.52368  Biso   1.000  H
  C81      1.0000 0.37603  0.00564  0.56350  Biso   1.000  C
  C82      1.0000 0.48779  0.96757  0.58375  Biso   1.000  C
  C83      1.0000 0.30347  0.94809  0.56282  Biso   1.000  C
  H122     1.0000 0.53621  0.00593  0.58262  Biso   1.000  H
  C84      1.0000 0.52904  0.87348  0.60573  Biso   1.000  C
  C85      1.0000 0.17913  0.98849  0.54366  Biso   1.000  C
  C86      1.0000 0.34546  0.85313  0.58352  Biso   1.000  C
  C87      1.0000 0.65010  0.83725  0.62984  Biso   1.000  C
  C88      1.0000 0.45600  0.81649  0.60550  Biso   1.000  C
  H123     1.0000 0.17361  0.03791  0.51251  Biso   1.000  H
  C89      1.0000 0.10075  0.03029  0.59774  Biso   1.000  C
  H124     1.0000 0.15435  0.93806  0.52681  Biso   1.000  H
  H125     1.0000 0.29871  0.81357  0.58262  Biso   1.000  H
  H126     1.0000 0.70147  0.86160  0.60382  Biso   1.000  H
  H127     1.0000 0.67683  0.76783  0.62870  Biso   1.000  H
  C90      1.0000 0.65463  0.86781  0.69414  Biso   1.000  C
  O12      1.0000 0.50042  0.72336  0.62870  Biso   1.000  O
  C91      1.0000 0.08043  0.12559  0.61213  Biso   1.000  C
  C92      1.0000 0.05257  0.97406  0.63611  Biso   1.000  C
  C93      1.0000 0.63878  0.80956  0.74327  Biso   1.000  C
  C94      1.0000 0.66917  0.95632  0.70653  Biso   1.000  C
  C95      1.0000 0.42613  0.66399  0.63034  Biso   1.000  C
  C96      1.0000 0.01592  0.16405  0.66380  Biso   1.000  C
  H128     1.0000 0.11048  0.16468  0.58661  Biso   1.000  H
  C97      1.0000 0.98851  0.01216  0.68787  Biso   1.000  C
  O13      1.0000 0.07349  0.87903  0.62226  Biso   1.000  O
  H129     1.0000 0.62911  0.75035  0.73600  Biso   1.000  H
  C98      1.0000 0.63718  0.83831  0.80284  Biso   1.000  C
  O14      1.0000 0.68829  0.00968  0.65627  Biso   1.000  O
  C99      1.0000 0.66776  0.98499  0.76624  Biso   1.000  C
  C100     1.0000 0.48572  0.57240  0.66471  Biso   1.000  C
  H130     1.0000 0.35306  0.69646  0.65050  Biso   1.000  H
  H131     1.0000 0.41120  0.64993  0.58938  Biso   1.000  H
  O15      1.0000 0.99194  0.25881  0.67915  Biso   1.000  O
  C101     1.0000 0.97019  0.10700  0.70295  Biso   1.000  C
  H132     1.0000 0.95719  0.97345  0.71298  Biso   1.000  H
  C102     1.0000 0.98702  0.85052  0.60509  Biso   1.000  C
  C103     1.0000 0.02568  0.81793  0.64660  Biso   1.000  C
  O16      1.0000 0.61936  0.78409  0.85320  Biso   1.000  O
  C104     1.0000 0.65190  0.92631  0.81542  Biso   1.000  C
  C105     1.0000 0.68020  0.10793  0.66494  Biso   1.000  C
  H133     1.0000 0.67762  0.04413  0.77351  Biso   1.000  H
  C106     1.0000 0.41702  0.50082  0.66739  Biso   1.000  C
  H134     1.0000 0.56043  0.54291  0.64541  Biso   1.000  H
  H135     1.0000 0.49836  0.58774  0.70581  Biso   1.000  H
  C107     1.0000 0.04425  0.31819  0.64269  Biso   1.000  C
  C108     1.0000 0.90184  0.14738  0.76034  Biso   1.000  C
  H136     1.0000 0.92577  0.86356  0.63611  Biso   1.000  H
  H137     1.0000 0.95631  0.88344  0.56759  Biso   1.000  H
  H138     1.0000 0.94501  0.84903  0.65658  Biso   1.000  H
  C109     1.0000 0.03969  0.73685  0.59519  Biso   1.000  C
  H139     1.0000 0.06422  0.78912  0.68342  Biso   1.000  H
  C110     1.0000 0.62641  0.68649  0.84416  Biso   1.000  C
  C111     1.0000 0.65270  0.95851  0.87985  Biso   1.000  C
  C112     1.0000 0.71520  0.14897  0.60609  Biso   1.000  C
  H140     1.0000 0.60181  0.14368  0.67679  Biso   1.000  H
  H141     1.0000 0.73053  0.11248  0.69691  Biso   1.000  H
  C113     1.0000 0.30270  0.53535  0.70331  Biso   1.000  C
  H142     1.0000 0.40163  0.48784  0.62630  Biso   1.000  H
  H143     1.0000 0.46338  0.44126  0.68569  Biso   1.000  H
  H144     1.0000 0.12738  0.29382  0.64478  Biso   1.000  H
  H145     1.0000 0.02361  0.31849  0.60069  Biso   1.000  H
  C114     1.0000 0.00155  0.41816  0.66680  Biso   1.000  C
  H146     1.0000 0.85175  0.10893  0.77210  Biso   1.000  H
  H147     1.0000 0.85312  0.21192  0.75130  Biso   1.000  H
  C115     1.0000 0.97519  0.15046  0.81383  Biso   1.000  C
  C116     1.0000 0.95853  0.72065  0.55396  Biso   1.000  C
  H148     1.0000 0.04675  0.67931  0.62021  Biso   1.000  H
  H149     1.0000 0.11517  0.71945  0.57272  Biso   1.000  H
  C117     1.0000 0.60502  0.64321  0.90541  Biso   1.000  C
  H150     1.0000 0.56907  0.68287  0.81592  Biso   1.000  H
  H151     1.0000 0.70198  0.65180  0.82768  Biso   1.000  H
  H152     1.0000 0.70118  0.00008  0.88090  Biso   1.000  H
  C118     1.0000 0.53338  0.01121  0.90437  Biso   1.000  C
  H153     1.0000 0.68604  0.90293  0.90591  Biso   1.000  H
  H154     1.0000 0.79320  0.11222  0.59442  Biso   1.000  H
  H155     1.0000 0.66479  0.14370  0.57440  Biso   1.000  H
  C119     1.0000 0.70910  0.25365  0.61195  Biso   1.000  C
  H156     1.0000 0.26362  0.48746  0.70281  Biso   1.000  H
  H157     1.0000 0.31725  0.54611  0.74449  Biso   1.000  H
  H158     1.0000 0.25559  0.59397  0.68519  Biso   1.000  H
  H159     1.0000 0.01243  0.41508  0.71021  Biso   1.000  H
  H160     1.0000 0.04774  0.45588  0.64832  Biso   1.000  H
  C120     1.0000 0.87520  0.46830  0.65459  Biso   1.000  C
  C121     1.0000 0.00796  0.23093  0.82473  Biso   1.000  C
  C122     1.0000 0.00901  0.07221  0.85470  Biso   1.000  C
  H161     1.0000 0.88365  0.73277  0.57440  Biso   1.000  H
  H162     1.0000 0.95072  0.76470  0.51932  Biso   1.000  H
  C123     1.0000 0.99991  0.61643  0.53194  Biso   1.000  C
  C124     1.0000 0.68291  0.65344  0.95559  Biso   1.000  C
  H163     1.0000 0.52547  0.67332  0.91831  Biso   1.000  H
  H164     1.0000 0.61477  0.57566  0.90060  Biso   1.000  H
  C125     1.0000 0.48697  0.11034  0.89701  Biso   1.000  C
  C126     1.0000 0.46558  0.96127  0.93425  Biso   1.000  C
  C127     1.0000 0.75228  0.29483  0.55469  Biso   1.000  C
  H165     1.0000 0.75499  0.25919  0.64569  Biso   1.000  H
  H166     1.0000 0.62997  0.29087  0.62089  Biso   1.000  H
  C128     1.0000 0.82981  0.56577  0.68401  Biso   1.000  C
  H167     1.0000 0.86562  0.47684  0.61109  Biso   1.000  H
  H168     1.0000 0.82970  0.42778  0.66980  Biso   1.000  H
  C129     1.0000 0.07268  0.23511  0.87422  Biso   1.000  C
  H169     1.0000 0.98600  0.28353  0.79812  Biso   1.000  H
  C130     1.0000 0.07262  0.07687  0.90460  Biso   1.000  C
  O17      1.0000 0.97492  0.99324  0.84212  Biso   1.000  O
  H170     1.0000 0.94555  0.60690  0.50452  Biso   1.000  H
  H171     1.0000 0.07381  0.60475  0.51151  Biso   1.000  H
  H172     1.0000 0.00625  0.57290  0.56618  Biso   1.000  H
  H173     1.0000 0.66601  0.61993  0.99192  Biso   1.000  H
  H174     1.0000 0.66458  0.72067  0.96481  Biso   1.000  H
  C131     1.0000 0.81022  0.61506  0.94006  Biso   1.000  C
  O18      1.0000 0.55832  0.15596  0.86587  Biso   1.000  O
  C132     1.0000 0.37638  0.15713  0.91904  Biso   1.000  C
  C133     1.0000 0.35558  0.00764  0.95591  Biso   1.000  C
  H175     1.0000 0.49501  0.89523  0.93970  Biso   1.000  H
  H176     1.0000 0.74633  0.36077  0.56050  Biso   1.000  H
  H177     1.0000 0.83133  0.25931  0.54620  Biso   1.000  H
  H178     1.0000 0.70637  0.29042  0.52118  Biso   1.000  H
  H179     1.0000 0.75012  0.59407  0.67502  Biso   1.000  H
  H180     1.0000 0.83763  0.55782  0.72719  Biso   1.000  H
  H181     1.0000 0.87334  0.60681  0.66839  Biso   1.000  H
  O19      1.0000 0.10644  0.31464  0.88725  Biso   1.000  O
  C134     1.0000 0.10679  0.15744  0.91490  Biso   1.000  C
  H182     1.0000 0.09285  0.02504  0.93189  Biso   1.000  H
  C135     1.0000 0.99707  0.91634  0.88648  Biso   1.000  C
  H183     1.0000 0.85331  0.62426  0.97362  Biso   1.000  H
  H184     1.0000 0.82988  0.54800  0.93198  Biso   1.000  H
  H185     1.0000 0.82838  0.64875  0.90469  Biso   1.000  H
  C136     1.0000 0.52110  0.25808  0.86269  Biso   1.000  C
  H186     1.0000 0.34712  0.22329  0.91400  Biso   1.000  H
  C137     1.0000 0.30883  0.10634  0.94864  Biso   1.000  C
  O20      1.0000 0.28550  0.96026  0.98638  Biso   1.000  O
  C138     1.0000 0.06531  0.39842  0.84934  Biso   1.000  C
  C139     1.0000 0.18450  0.15692  0.96708  Biso   1.000  C
  H187     1.0000 0.95738  0.93875  0.92471  Biso   1.000  H
  C140     1.0000 0.95388  0.83915  0.86210  Biso   1.000  C
  H188     1.0000 0.07899  0.89156  0.89338  Biso   1.000  H
  C141     1.0000 0.61247  0.28851  0.82641  Biso   1.000  C
  H189     1.0000 0.44773  0.28138  0.84298  Biso   1.000  H
  H190     1.0000 0.51200  0.28369  0.90310  Biso   1.000  H
  C142     1.0000 0.32447  0.85773  0.98574  Biso   1.000  C
  C143     1.0000 0.10759  0.47604  0.87395  Biso   1.000  C
  H191     1.0000 0.09408  0.38503  0.80788  Biso   1.000  H
  H192     1.0000 0.98181  0.41883  0.84952  Biso   1.000  H
  H193     1.0000 0.17668  0.22222  0.97788  Biso   1.000  H
  H194     1.0000 0.16194  0.12431  0.00231  Biso   1.000  H
  H195     1.0000 0.95051  0.79396  0.89488  Biso   1.000  H
  H196     1.0000 0.87618  0.86815  0.84838  Biso   1.000  H
  C144     1.0000 0.02784  0.78453  0.80983  Biso   1.000  C
  C145     1.0000 0.58840  0.39673  0.82291  Biso   1.000  C
  H197     1.0000 0.68631  0.25947  0.84471  Biso   1.000  H
  H198     1.0000 0.61747  0.26478  0.78559  Biso   1.000  H
  H199     1.0000 0.33722  0.83653  0.94419  Biso   1.000  H
  C146     1.0000 0.23499  0.81925  0.01730  Biso   1.000  C
  H200     1.0000 0.39687  0.83374  0.00631  Biso   1.000  H
  C147     1.0000 0.23762  0.45233  0.87218  Biso   1.000  C
  H201     1.0000 0.07543  0.53480  0.85061  Biso   1.000  H
  H202     1.0000 0.07941  0.48727  0.91572  Biso   1.000  H
  C148     1.0000 0.96808  0.72291  0.77769  Biso   1.000  C
  H203     1.0000 0.04521  0.82992  0.78068  Biso   1.000  H
  H204     1.0000 0.09996  0.74385  0.82541  Biso   1.000  H
  C149     1.0000 0.67939  0.42672  0.78513  Biso   1.000  C
  H205     1.0000 0.58507  0.42039  0.86369  Biso   1.000  H
  H206     1.0000 0.51372  0.42588  0.80538  Biso   1.000  H
  H207     1.0000 0.16152  0.84697  0.99832  Biso   1.000  H
  C150     1.0000 0.27068  0.71084  0.01353  Biso   1.000  C
  H208     1.0000 0.22608  0.83720  0.05948  Biso   1.000  H
  C151     1.0000 0.27843  0.53373  0.89370  Biso   1.000  C
  H209     1.0000 0.26966  0.39571  0.89760  Biso   1.000  H
  H210     1.0000 0.26635  0.43743  0.83090  Biso   1.000  H
  H211     1.0000 0.95328  0.67626  0.80602  Biso   1.000  H
  H212     1.0000 0.89652  0.76294  0.76220  Biso   1.000  H
  H213     1.0000 0.01679  0.69083  0.74481  Biso   1.000  H
  H214     1.0000 0.66060  0.49530  0.78409  Biso   1.000  H
  H215     1.0000 0.75321  0.39921  0.80280  Biso   1.000  H
  H216     1.0000 0.68202  0.40449  0.74449  Biso   1.000  H
  H217     1.0000 0.28133  0.69376  0.97121  Biso   1.000  H
  C152     1.0000 0.18336  0.66669  0.04372  Biso   1.000  C
  H218     1.0000 0.34412  0.68405  0.03269  Biso   1.000  H
  H219     1.0000 0.36101  0.51513  0.89152  Biso   1.000  H
  H220     1.0000 0.24798  0.58957  0.86832  Biso   1.000  H
  H221     1.0000 0.25193  0.54770  0.93488  Biso   1.000  H
  H222     1.0000 0.21093  0.59837  0.04018  Biso   1.000  H
  H223     1.0000 0.17316  0.68256  0.08582  Biso   1.000  H
  H224     1.0000 0.11108  0.69128  0.02411  Biso   1.000  H
  Ne1      1.0000 0.69076  0.97975  0.24856  Biso   1.000  Ne
  He1      1.0000 0.64923  0.74437  0.28177  Biso   1.000  He
  He2      1.0000 0.66280  0.30090  0.15648  Biso   1.000  He
  Ar1      1.0000 0.68381  0.98260  0.24755  Biso   1.000  Ar
  Ne2      1.0000 0.30924  0.02025  0.75144  Biso   1.000  Ne
  He3      1.0000 0.35771  0.60457  0.85961  Biso   1.000  He
  He4      1.0000 0.35049  0.25401  0.71864  Biso   1.000  He
  Ar2      1.0000 0.31620  0.01740  0.75245  Biso   1.000  Ar
