data_image0
_cell_length_a       28.234
_cell_length_b       18.548
_cell_length_c       11.989
_cell_angle_alpha    90
_cell_angle_beta     90
_cell_angle_gamma    90

_symmetry_space_group_name_H-M    "P 1"
_symmetry_int_tables_number       1

loop_
  _symmetry_equiv_pos_as_xyz
  'x, y, z'

loop_
  _atom_site_label
  _atom_site_occupancy
  _atom_site_fract_x
  _atom_site_fract_y
  _atom_site_fract_z
  _atom_site_thermal_displace_type
  _atom_site_B_iso_or_equiv
  _atom_site_type_symbol
  C1       1.0000 0.52543  0.45730  0.56677  Biso   1.000  C
  C2       1.0000 0.47538  0.47779  0.53199  Biso   1.000  C
  H1       1.0000 0.53829  0.49369  0.61631  Biso   1.000  H
  H2       1.0000 0.52511  0.41158  0.60622  Biso   1.000  H
  O1       1.0000 0.55401  0.45159  0.46960  Biso   1.000  O
  C3       1.0000 0.45389  0.42560  0.45367  Biso   1.000  C
  H3       1.0000 0.45559  0.48108  0.59813  Biso   1.000  H
  H4       1.0000 0.47599  0.52502  0.49721  Biso   1.000  H
  C4       1.0000 0.60158  0.44161  0.48319  Biso   1.000  C
  C5       1.0000 0.39980  0.43892  0.43532  Biso   1.000  C
  H5       1.0000 0.45838  0.37718  0.48228  Biso   1.000  H
  H6       1.0000 0.47000  0.42878  0.38243  Biso   1.000  H
  C6       1.0000 0.62400  0.43449  0.58637  Biso   1.000  C
  C7       1.0000 0.62899  0.44048  0.38577  Biso   1.000  C
  N1       1.0000 0.38075  0.38387  0.36642  Biso   1.000  N
  H7       1.0000 0.38358  0.43897  0.50671  Biso   1.000  H
  H8       1.0000 0.39498  0.48550  0.40053  Biso   1.000  H
  C8       1.0000 0.67235  0.42749  0.59596  Biso   1.000  C
  H9       1.0000 0.60569  0.43460  0.65076  Biso   1.000  H
  C9       1.0000 0.60601  0.44059  0.27133  Biso   1.000  C
  C10      1.0000 0.67762  0.43347  0.39611  Biso   1.000  C
  C11      1.0000 0.37065  0.39837  0.26916  Biso   1.000  C
  C12      1.0000 0.69438  0.41870  0.71132  Biso   1.000  C
  C13      1.0000 0.69958  0.42738  0.50004  Biso   1.000  C
  H10      1.0000 0.57580  0.46517  0.27559  Biso   1.000  H
  H11      1.0000 0.62598  0.46717  0.21978  Biso   1.000  H
  C14      1.0000 0.59843  0.36581  0.22729  Biso   1.000  C
  H12      1.0000 0.69618  0.43288  0.33197  Biso   1.000  H
  C15      1.0000 0.35273  0.34510  0.18650  Biso   1.000  C
  H13      1.0000 0.37451  0.44587  0.24581  Biso   1.000  H
  C16      1.0000 0.69484  0.34101  0.74919  Biso   1.000  C
  H14      1.0000 0.72661  0.43681  0.70973  Biso   1.000  H
  H15      1.0000 0.67670  0.44727  0.76462  Biso   1.000  H
  O2       1.0000 0.74779  0.42301  0.51414  Biso   1.000  O
  C17      1.0000 0.55720  0.32758  0.25090  Biso   1.000  C
  C18      1.0000 0.63215  0.33098  0.16532  Biso   1.000  C
  C19      1.0000 0.34699  0.27119  0.21553  Biso   1.000  C
  C20      1.0000 0.34200  0.36608  0.07832  Biso   1.000  C
  C21      1.0000 0.65538  0.31038  0.80048  Biso   1.000  C
  C22      1.0000 0.73376  0.29728  0.73117  Biso   1.000  C
  C23      1.0000 0.77644  0.41859  0.41772  Biso   1.000  C
  H16      1.0000 0.53351  0.34969  0.29243  Biso   1.000  H
  C24      1.0000 0.55068  0.25830  0.21478  Biso   1.000  C
  C25      1.0000 0.62598  0.26138  0.12628  Biso   1.000  C
  O3       1.0000 0.67334  0.37077  0.14188  Biso   1.000  O
  C26      1.0000 0.33201  0.22418  0.13329  Biso   1.000  C
  O4       1.0000 0.35631  0.24978  0.32163  Biso   1.000  O
  C27      1.0000 0.32709  0.31809  0.00167  Biso   1.000  C
  H17      1.0000 0.34529  0.41428  0.05822  Biso   1.000  H
  C28      1.0000 0.65584  0.23970  0.83101  Biso   1.000  C
  O5       1.0000 0.61787  0.35691  0.81850  Biso   1.000  O
  H18      1.0000 0.76050  0.31648  0.69689  Biso   1.000  H
  C29      1.0000 0.73394  0.22590  0.76278  Biso   1.000  C
  H19      1.0000 0.76769  0.45611  0.36517  Biso   1.000  H
  H20      1.0000 0.77230  0.37217  0.38177  Biso   1.000  H
  C30      1.0000 0.82928  0.42840  0.45492  Biso   1.000  C
  C31      1.0000 0.58458  0.22320  0.15131  Biso   1.000  C
  O6       1.0000 0.51063  0.21749  0.23864  Biso   1.000  O
  H21      1.0000 0.64961  0.23992  0.08341  Biso   1.000  H
  C32      1.0000 0.71198  0.33308  0.09842  Biso   1.000  C
  C33      1.0000 0.32170  0.24757  0.03136  Biso   1.000  C
  H22      1.0000 0.32900  0.17538  0.14964  Biso   1.000  H
  H23      1.0000 0.35670  0.28499  0.36283  Biso   1.000  H
  H24      1.0000 0.32050  0.33292  0.92919  Biso   1.000  H
  C34      1.0000 0.69452  0.19560  0.81241  Biso   1.000  C
  H25      1.0000 0.62921  0.22040  0.86546  Biso   1.000  H
  C35      1.0000 0.57551  0.32861  0.85879  Biso   1.000  C
  O7       1.0000 0.77155  0.17970  0.74518  Biso   1.000  O
  H26      1.0000 0.84940  0.42711  0.38927  Biso   1.000  H
  H27      1.0000 0.83290  0.47542  0.48920  Biso   1.000  H
  C36      1.0000 0.84551  0.37298  0.53374  Biso   1.000  C
  C37      1.0000 0.57728  0.14740  0.11060  Biso   1.000  C
  C38      1.0000 0.47648  0.24682  0.31237  Biso   1.000  C
  H28      1.0000 0.71910  0.29270  0.14563  Biso   1.000  H
  H29      1.0000 0.73900  0.36451  0.09500  Biso   1.000  H
  H30      1.0000 0.70451  0.31631  0.02477  Biso   1.000  H
  H31      1.0000 0.31041  0.21501  0.97881  Biso   1.000  H
  C39      1.0000 0.69349  0.11538  0.84160  Biso   1.000  C
  H32      1.0000 0.56060  0.30030  0.80173  Biso   1.000  H
  H33      1.0000 0.55479  0.36737  0.87997  Biso   1.000  H
  H34      1.0000 0.58178  0.29879  0.92260  Biso   1.000  H
  C40      1.0000 0.81161  0.20649  0.68379  Biso   1.000  C
  H35      1.0000 0.83729  0.32580  0.50471  Biso   1.000  H
  H36      1.0000 0.82900  0.37929  0.60414  Biso   1.000  H
  C41      1.0000 0.89938  0.37600  0.55468  Biso   1.000  C
  H37      1.0000 0.59549  0.13991  0.04304  Biso   1.000  H
  H38      1.0000 0.54410  0.14018  0.09267  Biso   1.000  H
  C42      1.0000 0.59244  0.09252  0.19827  Biso   1.000  C
  H39      1.0000 0.49200  0.26348  0.37893  Biso   1.000  H
  H40      1.0000 0.45378  0.21032  0.33147  Biso   1.000  H
  H41      1.0000 0.46069  0.28639  0.27692  Biso   1.000  H
  C43      1.0000 0.67897  0.06950  0.74493  Biso   1.000  C
  H42      1.0000 0.72480  0.10071  0.86629  Biso   1.000  H
  H43      1.0000 0.67171  0.10772  0.90283  Biso   1.000  H
  H44      1.0000 0.80251  0.21528  0.60789  Biso   1.000  H
  H45      1.0000 0.83658  0.17139  0.68546  Biso   1.000  H
  H46      1.0000 0.82248  0.25059  0.71691  Biso   1.000  H
  H47      1.0000 0.91620  0.37379  0.48419  Biso   1.000  H
  H48      1.0000 0.90749  0.42107  0.59096  Biso   1.000  H
  N2       1.0000 0.91351  0.31658  0.62399  Biso   1.000  N
  C44      1.0000 0.56021  0.06303  0.27192  Biso   1.000  C
  C45      1.0000 0.63973  0.07111  0.20677  Biso   1.000  C
  C46      1.0000 0.63179  0.04928  0.72733  Biso   1.000  C
  C47      1.0000 0.71162  0.04750  0.66586  Biso   1.000  C
  C48      1.0000 0.92888  0.32947  0.72033  Biso   1.000  C
  H49      1.0000 0.52841  0.07510  0.26549  Biso   1.000  H
  C49      1.0000 0.57406  0.01612  0.35449  Biso   1.000  C
  C50      1.0000 0.65315  0.02210  0.28801  Biso   1.000  C
  O8       1.0000 0.67050  0.10222  0.13154  Biso   1.000  O
  C51      1.0000 0.61940  0.00809  0.63892  Biso   1.000  C
  O9       1.0000 0.59967  0.07278  0.80707  Biso   1.000  O
  H50      1.0000 0.74339  0.05931  0.67612  Biso   1.000  H
  C52      1.0000 0.69887  0.00879  0.57286  Biso   1.000  C
  H51      1.0000 0.93299  0.37729  0.74193  Biso   1.000  H
  C53      1.0000 0.94064  0.27232  0.79990  Biso   1.000  C
  C54      1.0000 0.62113  0.99488  0.36400  Biso   1.000  C
  O10      1.0000 0.54275  0.98771  0.43081  Biso   1.000  O
  H52      1.0000 0.68460  0.00722  0.29127  Biso   1.000  H
  C55      1.0000 0.71949  0.09440  0.14822  Biso   1.000  C
  C56      1.0000 0.65230  0.98550  0.55759  Biso   1.000  C
  H53      1.0000 0.58791  0.99412  0.63150  Biso   1.000  H
  C57      1.0000 0.55511  0.09618  0.76962  Biso   1.000  C
  O11      1.0000 0.73075  0.98701  0.49228  Biso   1.000  O
  C58      1.0000 0.95459  0.28801  0.90783  Biso   1.000  C
  C59      1.0000 0.93671  0.19867  0.77037  Biso   1.000  C
  C60      1.0000 0.63760  0.94490  0.45567  Biso   1.000  C
  C61      1.0000 0.50351  0.02771  0.46084  Biso   1.000  C
  H54      1.0000 0.72788  0.11322  0.22020  Biso   1.000  H
  H55      1.0000 0.73631  0.12039  0.09142  Biso   1.000  H
  H56      1.0000 0.72781  0.04432  0.14438  Biso   1.000  H
  H57      1.0000 0.55809  0.11592  0.69580  Biso   1.000  H
  H58      1.0000 0.54310  0.13257  0.81908  Biso   1.000  H
  H59      1.0000 0.53351  0.05612  0.76812  Biso   1.000  H
  C62      1.0000 0.77669  0.01871  0.49662  Biso   1.000  C
  H60      1.0000 0.95828  0.33610  0.92760  Biso   1.000  H
  C63      1.0000 0.96299  0.23798  0.98482  Biso   1.000  C
  C64      1.0000 0.94468  0.14740  0.84978  Biso   1.000  C
  O12      1.0000 0.92438  0.18061  0.66661  Biso   1.000  O
  H61      1.0000 0.61210  0.91201  0.47477  Biso   1.000  H
  H62      1.0000 0.66409  0.91649  0.42889  Biso   1.000  H
  H63      1.0000 0.51289  0.07650  0.47602  Biso   1.000  H
  H64      1.0000 0.48941  0.00722  0.52632  Biso   1.000  H
  H65      1.0000 0.48091  0.02728  0.40087  Biso   1.000  H
  H66      1.0000 0.77421  0.06950  0.48253  Biso   1.000  H
  H67      1.0000 0.79018  0.01100  0.56911  Biso   1.000  H
  H68      1.0000 0.79649  0.99693  0.44099  Biso   1.000  H
  C65      1.0000 0.95789  0.16789  0.95588  Biso   1.000  C
  H69      1.0000 0.97220  0.25081  0.05664  Biso   1.000  H
  H70      1.0000 0.94138  0.09882  0.83226  Biso   1.000  H
  H71      1.0000 0.92148  0.21711  0.62866  Biso   1.000  H
  H72      1.0000 0.96331  0.13252  0.00926  Biso   1.000  H
  C66      1.0000 0.39399  0.55941  0.77129  Biso   1.000  C
  C67      1.0000 0.40157  0.63419  0.72733  Biso   1.000  C
  H73      1.0000 0.42420  0.53477  0.77563  Biso   1.000  H
  H74      1.0000 0.37398  0.53278  0.71983  Biso   1.000  H
  C68      1.0000 0.37101  0.55947  0.88581  Biso   1.000  C
  C69      1.0000 0.36785  0.66897  0.66528  Biso   1.000  C
  C70      1.0000 0.44280  0.67236  0.75094  Biso   1.000  C
  C71      1.0000 0.39842  0.55839  0.98323  Biso   1.000  C
  C72      1.0000 0.32234  0.56648  0.89607  Biso   1.000  C
  O13      1.0000 0.32666  0.62918  0.64192  Biso   1.000  O
  C73      1.0000 0.37398  0.73857  0.62632  Biso   1.000  C
  H75      1.0000 0.46649  0.65031  0.79239  Biso   1.000  H
  C74      1.0000 0.44932  0.74170  0.71482  Biso   1.000  C
  O14      1.0000 0.44595  0.54841  0.96964  Biso   1.000  O
  C75      1.0000 0.37600  0.56551  0.08641  Biso   1.000  C
  H76      1.0000 0.30378  0.56707  0.83201  Biso   1.000  H
  C76      1.0000 0.30038  0.57257  0.00000  Biso   1.000  C
  C77      1.0000 0.28799  0.66686  0.59838  Biso   1.000  C
  C78      1.0000 0.41542  0.77680  0.65126  Biso   1.000  C
  H77      1.0000 0.35039  0.76008  0.58337  Biso   1.000  H
  O15      1.0000 0.48934  0.78251  0.73859  Biso   1.000  O
  C79      1.0000 0.47457  0.54270  0.06681  Biso   1.000  C
  C80      1.0000 0.32765  0.57251  0.09600  Biso   1.000  C
  H78      1.0000 0.39431  0.56540  0.15080  Biso   1.000  H
  O16      1.0000 0.25221  0.57699  0.01410  Biso   1.000  O
  H79      1.0000 0.28090  0.70730  0.64559  Biso   1.000  H
  H80      1.0000 0.26100  0.63549  0.59496  Biso   1.000  H
  H81      1.0000 0.29549  0.68369  0.52481  Biso   1.000  H
  C81      1.0000 0.42268  0.85260  0.61056  Biso   1.000  C
  C82      1.0000 0.52348  0.75318  0.81241  Biso   1.000  C
  H82      1.0000 0.46171  0.50631  0.11627  Biso   1.000  H
  H83      1.0000 0.47489  0.58837  0.10618  Biso   1.000  H
  C83      1.0000 0.52458  0.52221  0.03203  Biso   1.000  C
  C84      1.0000 0.30562  0.58130  0.21128  Biso   1.000  C
  C85      1.0000 0.22352  0.58141  0.91767  Biso   1.000  C
  H84      1.0000 0.40451  0.86009  0.54300  Biso   1.000  H
  H85      1.0000 0.45590  0.85977  0.59271  Biso   1.000  H
  C86      1.0000 0.40756  0.90748  0.69831  Biso   1.000  C
  H86      1.0000 0.50800  0.73647  0.87889  Biso   1.000  H
  H87      1.0000 0.54619  0.78968  0.83151  Biso   1.000  H
  H88      1.0000 0.53928  0.71361  0.77688  Biso   1.000  H
  H89      1.0000 0.52401  0.47498  0.99716  Biso   1.000  H
  C87      1.0000 0.54608  0.57440  0.95371  Biso   1.000  C
  H90      1.0000 0.54438  0.51887  0.09809  Biso   1.000  H
  C88      1.0000 0.30516  0.65899  0.24923  Biso   1.000  C
  H91      1.0000 0.27339  0.56319  0.20969  Biso   1.000  H
  H92      1.0000 0.32330  0.55267  0.26458  Biso   1.000  H
  H93      1.0000 0.23231  0.54389  0.86521  Biso   1.000  H
  H94      1.0000 0.22770  0.62778  0.88181  Biso   1.000  H
  C89      1.0000 0.17072  0.57160  0.95488  Biso   1.000  C
  C90      1.0000 0.43979  0.93697  0.77187  Biso   1.000  C
  C91      1.0000 0.36027  0.92889  0.70681  Biso   1.000  C
  H95      1.0000 0.54158  0.62282  0.98232  Biso   1.000  H
  H96      1.0000 0.53000  0.57117  0.88239  Biso   1.000  H
  C92      1.0000 0.60020  0.56108  0.93527  Biso   1.000  C
  C93      1.0000 0.34458  0.68956  0.30053  Biso   1.000  C
  C94      1.0000 0.26624  0.70266  0.23121  Biso   1.000  C
  H97      1.0000 0.15060  0.57289  0.88932  Biso   1.000  H
  H98      1.0000 0.16710  0.52458  0.98924  Biso   1.000  H
  C95      1.0000 0.15449  0.62697  0.03370  Biso   1.000  C
  H99      1.0000 0.47159  0.92490  0.76554  Biso   1.000  H
  C96      1.0000 0.42594  0.98388  0.85453  Biso   1.000  C
  C97      1.0000 0.34685  0.97790  0.78797  Biso   1.000  C
  O17      1.0000 0.32950  0.89778  0.63150  Biso   1.000  O
  H100     1.0000 0.60498  0.51450  0.90049  Biso   1.000  H
  N3       1.0000 0.61925  0.61608  0.86638  Biso   1.000  N
  H101     1.0000 0.61638  0.56098  0.00667  Biso   1.000  H
  C98      1.0000 0.34416  0.76030  0.33097  Biso   1.000  C
  O18      1.0000 0.38213  0.64309  0.31846  Biso   1.000  O
  H102     1.0000 0.23950  0.68347  0.19693  Biso   1.000  H
  C99      1.0000 0.26606  0.77410  0.26282  Biso   1.000  C
  H103     1.0000 0.16271  0.67420  0.00467  Biso   1.000  H
  H104     1.0000 0.17100  0.62071  0.10410  Biso   1.000  H
  C100     1.0000 0.10059  0.62400  0.05472  Biso   1.000  C
  C101     1.0000 0.37887  0.00507  0.86396  Biso   1.000  C
  O19      1.0000 0.45725  0.01229  0.93077  Biso   1.000  O
  H105     1.0000 0.31540  0.99278  0.79131  Biso   1.000  H
  C102     1.0000 0.28051  0.90560  0.64818  Biso   1.000  C
  C103     1.0000 0.62931  0.60157  0.76921  Biso   1.000  C
  C104     1.0000 0.30548  0.80440  0.31237  Biso   1.000  C
  H106     1.0000 0.37079  0.77960  0.36550  Biso   1.000  H
  C105     1.0000 0.42449  0.67139  0.35883  Biso   1.000  C
  O20      1.0000 0.22841  0.82030  0.24522  Biso   1.000  O
  H107     1.0000 0.08380  0.62621  0.98424  Biso   1.000  H
  H108     1.0000 0.09251  0.57888  0.09100  Biso   1.000  H
  N4       1.0000 0.08649  0.68336  0.12403  Biso   1.000  N
  C106     1.0000 0.36240  0.05510  0.95571  Biso   1.000  C
  C107     1.0000 0.49649  0.97229  0.96080  Biso   1.000  C
  H109     1.0000 0.27208  0.88678  0.72016  Biso   1.000  H
  H110     1.0000 0.26369  0.87961  0.59138  Biso   1.000  H
  H111     1.0000 0.27219  0.95568  0.64442  Biso   1.000  H
  H112     1.0000 0.62549  0.55408  0.74577  Biso   1.000  H
  C108     1.0000 0.64723  0.65490  0.68646  Biso   1.000  C
  C109     1.0000 0.30651  0.88457  0.34156  Biso   1.000  C
  H113     1.0000 0.43940  0.69970  0.30169  Biso   1.000  H
  H114     1.0000 0.44521  0.63257  0.38002  Biso   1.000  H
  H115     1.0000 0.41818  0.70121  0.42264  Biso   1.000  H
  C110     1.0000 0.18839  0.79351  0.18384  Biso   1.000  C
  C111     1.0000 0.07108  0.67048  0.22029  Biso   1.000  C
  H116     1.0000 0.38790  0.08799  0.97481  Biso   1.000  H
  H117     1.0000 0.33591  0.08346  0.92893  Biso   1.000  H
  C112     1.0000 0.34770  0.01450  0.05764  Biso   1.000  C
  H118     1.0000 0.48711  0.92350  0.97598  Biso   1.000  H
  H119     1.0000 0.51909  0.97267  0.90091  Biso   1.000  H
  H120     1.0000 0.51059  0.99278  0.02627  Biso   1.000  H
  C113     1.0000 0.65800  0.63387  0.57828  Biso   1.000  C
  C114     1.0000 0.65301  0.72881  0.71549  Biso   1.000  C
  C115     1.0000 0.32103  0.93050  0.24489  Biso   1.000  C
  H121     1.0000 0.27520  0.89929  0.36634  Biso   1.000  H
  H122     1.0000 0.32829  0.89228  0.40279  Biso   1.000  H
  H123     1.0000 0.19749  0.78467  0.10793  Biso   1.000  H
  H124     1.0000 0.16338  0.82861  0.18550  Biso   1.000  H
  H125     1.0000 0.17748  0.74941  0.21687  Biso   1.000  H
  H126     1.0000 0.06701  0.62271  0.24189  Biso   1.000  H
  C116     1.0000 0.05936  0.72768  0.29994  Biso   1.000  C
  C117     1.0000 0.38060  0.99186  0.13888  Biso   1.000  C
  C118     1.0000 0.30109  0.99116  0.07290  Biso   1.000  C
  H127     1.0000 0.65471  0.58567  0.55818  Biso   1.000  H
  C119     1.0000 0.67291  0.68191  0.50171  Biso   1.000  C
  C120     1.0000 0.66799  0.77577  0.63333  Biso   1.000  C
  O21      1.0000 0.64369  0.75016  0.82159  Biso   1.000  O
  C121     1.0000 0.36821  0.95067  0.22729  Biso   1.000  C
  C122     1.0000 0.28834  0.95250  0.16590  Biso   1.000  C
  C123     1.0000 0.04541  0.71199  0.40779  Biso   1.000  C
  C124     1.0000 0.06329  0.80127  0.27041  Biso   1.000  C
  H128     1.0000 0.41209  0.00588  0.13154  Biso   1.000  H
  O22      1.0000 0.26925  0.01299  0.99233  Biso   1.000  O
  H129     1.0000 0.67950  0.66708  0.42923  Biso   1.000  H
  C125     1.0000 0.67830  0.75237  0.53140  Biso   1.000  C
  H130     1.0000 0.67100  0.82456  0.64960  Biso   1.000  H
  H131     1.0000 0.64330  0.71501  0.86279  Biso   1.000  H
  O23      1.0000 0.40033  0.92716  0.30711  Biso   1.000  O
  H132     1.0000 0.25661  0.94069  0.17608  Biso   1.000  H
  H133     1.0000 0.04169  0.66390  0.42756  Biso   1.000  H
  C126     1.0000 0.03701  0.76197  0.48478  Biso   1.000  C
  C127     1.0000 0.05529  0.85260  0.34982  Biso   1.000  C
  O24      1.0000 0.07558  0.81939  0.16657  Biso   1.000  O
  C128     1.0000 0.22331  0.98129  0.99658  Biso   1.000  C
  H134     1.0000 0.68959  0.78499  0.47877  Biso   1.000  H
  C129     1.0000 0.44489  0.90376  0.26958  Biso   1.000  C
  H135     1.0000 0.02780  0.74919  0.55659  Biso   1.000  H
  C130     1.0000 0.04211  0.83211  0.45592  Biso   1.000  C
  H136     1.0000 0.05862  0.90118  0.33230  Biso   1.000  H
  H137     1.0000 0.07849  0.78289  0.12870  Biso   1.000  H
  H138     1.0000 0.22579  0.93050  0.98248  Biso   1.000  H
  H139     1.0000 0.20978  0.98900  0.06906  Biso   1.000  H
  H140     1.0000 0.20351  0.00307  0.94103  Biso   1.000  H
  H141     1.0000 0.44191  0.88408  0.19576  Biso   1.000  H
  H142     1.0000 0.45690  0.86737  0.31913  Biso   1.000  H
  H143     1.0000 0.46649  0.94388  0.26808  Biso   1.000  H
  H144     1.0000 0.03669  0.86748  0.50930  Biso   1.000  H
  C131     1.0000 0.44471  0.35260  0.84978  Biso   1.000  C
  C132     1.0000 0.43671  0.30127  0.77037  Biso   1.000  C
  C133     1.0000 0.45789  0.33211  0.95588  Biso   1.000  C
  H145     1.0000 0.44138  0.40118  0.83226  Biso   1.000  H
  C134     1.0000 0.44064  0.22768  0.79990  Biso   1.000  C
  O25      1.0000 0.42438  0.31939  0.66661  Biso   1.000  O
  C135     1.0000 0.46299  0.26197  0.98482  Biso   1.000  C
  H146     1.0000 0.46331  0.36748  0.00926  Biso   1.000  H
  C136     1.0000 0.42888  0.17048  0.72033  Biso   1.000  C
  C137     1.0000 0.45459  0.21199  0.90783  Biso   1.000  C
  H147     1.0000 0.42151  0.28289  0.62866  Biso   1.000  H
  H148     1.0000 0.47220  0.24919  0.05664  Biso   1.000  H
  N5       1.0000 0.41351  0.18342  0.62399  Biso   1.000  N
  H149     1.0000 0.43299  0.12271  0.74193  Biso   1.000  H
  H150     1.0000 0.45831  0.16390  0.92760  Biso   1.000  H
  C138     1.0000 0.39941  0.12400  0.55468  Biso   1.000  C
  C139     1.0000 0.34551  0.12702  0.53374  Biso   1.000  C
  H151     1.0000 0.41620  0.12621  0.48419  Biso   1.000  H
  H152     1.0000 0.40749  0.07888  0.59096  Biso   1.000  H
  C140     1.0000 0.32928  0.07160  0.45492  Biso   1.000  C
  H153     1.0000 0.33729  0.17420  0.50471  Biso   1.000  H
  H154     1.0000 0.32900  0.12071  0.60414  Biso   1.000  H
  C141     1.0000 0.27648  0.08141  0.41772  Biso   1.000  C
  H155     1.0000 0.34940  0.07289  0.38927  Biso   1.000  H
  H156     1.0000 0.33290  0.02458  0.48920  Biso   1.000  H
  O26      1.0000 0.24779  0.07699  0.51414  Biso   1.000  O
  H157     1.0000 0.26769  0.04389  0.36517  Biso   1.000  H
  H158     1.0000 0.27230  0.12778  0.38177  Biso   1.000  H
  C142     1.0000 0.19958  0.07262  0.50004  Biso   1.000  C
  C143     1.0000 0.17762  0.06648  0.39611  Biso   1.000  C
  C144     1.0000 0.17235  0.07251  0.59596  Biso   1.000  C
  C145     1.0000 0.12899  0.05952  0.38577  Biso   1.000  C
  H159     1.0000 0.19618  0.06712  0.33197  Biso   1.000  H
  C146     1.0000 0.12400  0.06551  0.58637  Biso   1.000  C
  C147     1.0000 0.19438  0.08130  0.71132  Biso   1.000  C
  C148     1.0000 0.10601  0.05941  0.27133  Biso   1.000  C
  C149     1.0000 0.10158  0.05839  0.48319  Biso   1.000  C
  H160     1.0000 0.10569  0.06540  0.65076  Biso   1.000  H
  C150     1.0000 0.19484  0.15899  0.74919  Biso   1.000  C
  H161     1.0000 0.22661  0.06319  0.70973  Biso   1.000  H
  H162     1.0000 0.17670  0.05267  0.76462  Biso   1.000  H
  C151     1.0000 0.09843  0.13419  0.22729  Biso   1.000  C
  H163     1.0000 0.07580  0.03477  0.27559  Biso   1.000  H
  H164     1.0000 0.12598  0.03278  0.21978  Biso   1.000  H
  O27      1.0000 0.05401  0.04841  0.46960  Biso   1.000  O
  C152     1.0000 0.15542  0.18962  0.80048  Biso   1.000  C
  C153     1.0000 0.23376  0.20272  0.73117  Biso   1.000  C
  C154     1.0000 0.13215  0.16902  0.16532  Biso   1.000  C
  C155     1.0000 0.05720  0.17242  0.25090  Biso   1.000  C
  C156     1.0000 0.02543  0.04270  0.56677  Biso   1.000  C
  C157     1.0000 0.15584  0.26030  0.83101  Biso   1.000  C
  O28      1.0000 0.11787  0.14309  0.81850  Biso   1.000  O
  H165     1.0000 0.26050  0.18352  0.69689  Biso   1.000  H
  C158     1.0000 0.23394  0.27410  0.76278  Biso   1.000  C
  O29      1.0000 0.17334  0.12918  0.14188  Biso   1.000  O
  C159     1.0000 0.12598  0.23857  0.12628  Biso   1.000  C
  H166     1.0000 0.03351  0.15031  0.29243  Biso   1.000  H
  C160     1.0000 0.05068  0.24170  0.21478  Biso   1.000  C
  H167     1.0000 0.03829  0.00631  0.61631  Biso   1.000  H
  H168     1.0000 0.02511  0.08842  0.60622  Biso   1.000  H
  C161     1.0000 0.97538  0.02221  0.53199  Biso   1.000  C
  C162     1.0000 0.19452  0.30440  0.81241  Biso   1.000  C
  H169     1.0000 0.12921  0.27960  0.86546  Biso   1.000  H
  C163     1.0000 0.07551  0.17139  0.85879  Biso   1.000  C
  O30      1.0000 0.27155  0.32030  0.74518  Biso   1.000  O
  C164     1.0000 0.21201  0.16692  0.09842  Biso   1.000  C
  C165     1.0000 0.08458  0.27680  0.15131  Biso   1.000  C
  H170     1.0000 0.14961  0.26008  0.08341  Biso   1.000  H
  O31      1.0000 0.01063  0.28251  0.23864  Biso   1.000  O
  H171     1.0000 0.97599  0.97498  0.49721  Biso   1.000  H
  H172     1.0000 0.95559  0.01892  0.59813  Biso   1.000  H
  C166     1.0000 0.95389  0.07440  0.45367  Biso   1.000  C
  C167     1.0000 0.19349  0.38457  0.84160  Biso   1.000  C
  H173     1.0000 0.06060  0.19970  0.80173  Biso   1.000  H
  H174     1.0000 0.05479  0.13257  0.87997  Biso   1.000  H
  H175     1.0000 0.08182  0.20121  0.92260  Biso   1.000  H
  C168     1.0000 0.31161  0.29351  0.68379  Biso   1.000  C
  H176     1.0000 0.21910  0.20730  0.14563  Biso   1.000  H
  H177     1.0000 0.23900  0.13549  0.09500  Biso   1.000  H
  H178     1.0000 0.20451  0.18369  0.02477  Biso   1.000  H
  C169     1.0000 0.07728  0.35260  0.11060  Biso   1.000  C
  C170     1.0000 0.97652  0.25318  0.31237  Biso   1.000  C
  H179     1.0000 0.95838  0.12282  0.48228  Biso   1.000  H
  H180     1.0000 0.97000  0.07122  0.38243  Biso   1.000  H
  C171     1.0000 0.89980  0.06108  0.43532  Biso   1.000  C
  C172     1.0000 0.17897  0.43050  0.74493  Biso   1.000  C
  H181     1.0000 0.22480  0.39929  0.86629  Biso   1.000  H
  H182     1.0000 0.17171  0.39228  0.90283  Biso   1.000  H
  H183     1.0000 0.30251  0.28472  0.60789  Biso   1.000  H
  H184     1.0000 0.33658  0.32861  0.68546  Biso   1.000  H
  H185     1.0000 0.32248  0.24941  0.71691  Biso   1.000  H
  H186     1.0000 0.09549  0.36009  0.04304  Biso   1.000  H
  H187     1.0000 0.04410  0.35977  0.09267  Biso   1.000  H
  C173     1.0000 0.09244  0.40748  0.19827  Biso   1.000  C
  H188     1.0000 0.99200  0.23652  0.37893  Biso   1.000  H
  H189     1.0000 0.95381  0.28968  0.33147  Biso   1.000  H
  H190     1.0000 0.96069  0.21361  0.27692  Biso   1.000  H
  H191     1.0000 0.88362  0.06098  0.50671  Biso   1.000  H
  H192     1.0000 0.89498  0.01450  0.40053  Biso   1.000  H
  N6       1.0000 0.88075  0.11608  0.36642  Biso   1.000  N
  C174     1.0000 0.13179  0.45067  0.72733  Biso   1.000  C
  C175     1.0000 0.21162  0.45250  0.66586  Biso   1.000  C
  C176     1.0000 0.06021  0.43697  0.27192  Biso   1.000  C
  C177     1.0000 0.13973  0.42889  0.20677  Biso   1.000  C
  C178     1.0000 0.87069  0.10157  0.26916  Biso   1.000  C
  C179     1.0000 0.11940  0.49191  0.63892  Biso   1.000  C
  O32      1.0000 0.09967  0.42722  0.80707  Biso   1.000  O
  C180     1.0000 0.19887  0.49121  0.57286  Biso   1.000  C
  H193     1.0000 0.24339  0.44069  0.67612  Biso   1.000  H
  H194     1.0000 0.02841  0.42490  0.26549  Biso   1.000  H
  C181     1.0000 0.07406  0.48388  0.35449  Biso   1.000  C
  C182     1.0000 0.15315  0.47790  0.28801  Biso   1.000  C
  O33      1.0000 0.17050  0.39778  0.13154  Biso   1.000  O
  H195     1.0000 0.87451  0.05408  0.24581  Biso   1.000  H
  C183     1.0000 0.85277  0.15490  0.18650  Biso   1.000  C
  C184     1.0000 0.15230  0.51450  0.55759  Biso   1.000  C
  H196     1.0000 0.08791  0.50588  0.63150  Biso   1.000  H
  C185     1.0000 0.05511  0.40382  0.76962  Biso   1.000  C
  O34      1.0000 0.23075  0.51299  0.49228  Biso   1.000  O
  C186     1.0000 0.12113  0.50507  0.36400  Biso   1.000  C
  O35      1.0000 0.04275  0.51229  0.43081  Biso   1.000  O
  H197     1.0000 0.18460  0.49278  0.29127  Biso   1.000  H
  C187     1.0000 0.21949  0.40560  0.14822  Biso   1.000  C
  C188     1.0000 0.84200  0.13392  0.07832  Biso   1.000  C
  C189     1.0000 0.84699  0.22881  0.21553  Biso   1.000  C
  C190     1.0000 0.13760  0.55510  0.45567  Biso   1.000  C
  H198     1.0000 0.05809  0.38408  0.69580  Biso   1.000  H
  H199     1.0000 0.04310  0.36737  0.81908  Biso   1.000  H
  H200     1.0000 0.03351  0.44388  0.76812  Biso   1.000  H
  C191     1.0000 0.27669  0.48129  0.49662  Biso   1.000  C
  C192     1.0000 0.00351  0.47229  0.46084  Biso   1.000  C
  H201     1.0000 0.22788  0.38678  0.22020  Biso   1.000  H
  H202     1.0000 0.23631  0.37961  0.09142  Biso   1.000  H
  H203     1.0000 0.22781  0.45568  0.14438  Biso   1.000  H
  H204     1.0000 0.84529  0.08572  0.05822  Biso   1.000  H
  C193     1.0000 0.82709  0.18191  0.00167  Biso   1.000  C
  C194     1.0000 0.83201  0.27577  0.13329  Biso   1.000  C
  O36      1.0000 0.85631  0.25022  0.32163  Biso   1.000  O
  H205     1.0000 0.11210  0.58799  0.47477  Biso   1.000  H
  H206     1.0000 0.16409  0.58351  0.42889  Biso   1.000  H
  H207     1.0000 0.27421  0.43050  0.48253  Biso   1.000  H
  H208     1.0000 0.29649  0.50307  0.44099  Biso   1.000  H
  H209     1.0000 0.29018  0.48900  0.56911  Biso   1.000  H
  H210     1.0000 0.01289  0.42350  0.47602  Biso   1.000  H
  H211     1.0000 0.98941  0.49278  0.52632  Biso   1.000  H
  H212     1.0000 0.98091  0.47267  0.40087  Biso   1.000  H
  H213     1.0000 0.82050  0.16708  0.92919  Biso   1.000  H
  C195     1.0000 0.82170  0.25237  0.03136  Biso   1.000  C
  H214     1.0000 0.82900  0.32462  0.14964  Biso   1.000  H
  H215     1.0000 0.85670  0.21501  0.36283  Biso   1.000  H
  H216     1.0000 0.81041  0.28499  0.97881  Biso   1.000  H
  O37      1.0000 0.57558  0.68061  0.16657  Biso   1.000  O
  C196     1.0000 0.56329  0.69867  0.27041  Biso   1.000  C
  H217     1.0000 0.57849  0.71711  0.12870  Biso   1.000  H
  C197     1.0000 0.55936  0.77227  0.29994  Biso   1.000  C
  C198     1.0000 0.55529  0.64740  0.34982  Biso   1.000  C
  C199     1.0000 0.57108  0.82947  0.22029  Biso   1.000  C
  C200     1.0000 0.54541  0.78801  0.40779  Biso   1.000  C
  C201     1.0000 0.54211  0.66789  0.45592  Biso   1.000  C
  H218     1.0000 0.55858  0.59877  0.33230  Biso   1.000  H
  N7       1.0000 0.58649  0.81658  0.12403  Biso   1.000  N
  H219     1.0000 0.56701  0.87729  0.24189  Biso   1.000  H
  H220     1.0000 0.54169  0.83610  0.42756  Biso   1.000  H
  C202     1.0000 0.53701  0.73798  0.48478  Biso   1.000  C
  H221     1.0000 0.53669  0.63247  0.50930  Biso   1.000  H
  C203     1.0000 0.60059  0.87600  0.05472  Biso   1.000  C
  H222     1.0000 0.52780  0.75081  0.55659  Biso   1.000  H
  C204     1.0000 0.65449  0.87298  0.03370  Biso   1.000  C
  H223     1.0000 0.58380  0.87379  0.98424  Biso   1.000  H
  H224     1.0000 0.59251  0.92107  0.09100  Biso   1.000  H
  C205     1.0000 0.67068  0.92840  0.95488  Biso   1.000  C
  H225     1.0000 0.66271  0.82580  0.00467  Biso   1.000  H
  H226     1.0000 0.67100  0.87929  0.10410  Biso   1.000  H
  C206     1.0000 0.72352  0.91859  0.91767  Biso   1.000  C
  H227     1.0000 0.65060  0.92711  0.88932  Biso   1.000  H
  H228     1.0000 0.66710  0.97536  0.98924  Biso   1.000  H
  O38      1.0000 0.75221  0.92301  0.01410  Biso   1.000  O
  H229     1.0000 0.73231  0.95606  0.86521  Biso   1.000  H
  H230     1.0000 0.72770  0.87217  0.88181  Biso   1.000  H
  C207     1.0000 0.80038  0.92738  0.00000  Biso   1.000  C
  C208     1.0000 0.82762  0.92749  0.09600  Biso   1.000  C
  C209     1.0000 0.82234  0.93347  0.89607  Biso   1.000  C
  C210     1.0000 0.80559  0.91870  0.21128  Biso   1.000  C
  C211     1.0000 0.87600  0.93449  0.08641  Biso   1.000  C
  C212     1.0000 0.87101  0.94048  0.88581  Biso   1.000  C
  H231     1.0000 0.80378  0.93288  0.83201  Biso   1.000  H
  C213     1.0000 0.80516  0.84101  0.24923  Biso   1.000  C
  H232     1.0000 0.77339  0.93676  0.20969  Biso   1.000  H
  H233     1.0000 0.82330  0.94727  0.26458  Biso   1.000  H
  C214     1.0000 0.89842  0.94161  0.98323  Biso   1.000  C
  H234     1.0000 0.89428  0.93460  0.15080  Biso   1.000  H
  C215     1.0000 0.89399  0.94059  0.77129  Biso   1.000  C
  C216     1.0000 0.84458  0.81038  0.30053  Biso   1.000  C
  C217     1.0000 0.76624  0.79728  0.23121  Biso   1.000  C
  O39      1.0000 0.94595  0.95159  0.96964  Biso   1.000  O
  C218     1.0000 0.90157  0.86581  0.72733  Biso   1.000  C
  H235     1.0000 0.92420  0.96517  0.77563  Biso   1.000  H
  H236     1.0000 0.87398  0.96717  0.71983  Biso   1.000  H
  C219     1.0000 0.84416  0.73970  0.33097  Biso   1.000  C
  O40      1.0000 0.88213  0.85691  0.31846  Biso   1.000  O
  C220     1.0000 0.76606  0.72590  0.26282  Biso   1.000  C
  H237     1.0000 0.73950  0.81648  0.19693  Biso   1.000  H
  C221     1.0000 0.97457  0.95730  0.06681  Biso   1.000  C
  C222     1.0000 0.94280  0.82758  0.75094  Biso   1.000  C
  C223     1.0000 0.86782  0.83098  0.66528  Biso   1.000  C
  C224     1.0000 0.80548  0.69560  0.31237  Biso   1.000  C
  H238     1.0000 0.87079  0.72040  0.36550  Biso   1.000  H
  C225     1.0000 0.92449  0.82861  0.35883  Biso   1.000  C
  O41      1.0000 0.72841  0.67970  0.24522  Biso   1.000  O
  H239     1.0000 0.96168  0.99369  0.11627  Biso   1.000  H
  H240     1.0000 0.97489  0.91158  0.10618  Biso   1.000  H
  C226     1.0000 0.02458  0.97779  0.03203  Biso   1.000  C
  C227     1.0000 0.94932  0.75830  0.71482  Biso   1.000  C
  H241     1.0000 0.96649  0.84969  0.79239  Biso   1.000  H
  C228     1.0000 0.87398  0.76138  0.62632  Biso   1.000  C
  O42      1.0000 0.82666  0.87077  0.64192  Biso   1.000  O
  C229     1.0000 0.80651  0.61538  0.34156  Biso   1.000  C
  H242     1.0000 0.93940  0.80030  0.30169  Biso   1.000  H
  H243     1.0000 0.94521  0.86737  0.38002  Biso   1.000  H
  H244     1.0000 0.91818  0.79879  0.42264  Biso   1.000  H
  C230     1.0000 0.68839  0.70649  0.18384  Biso   1.000  C
  C231     1.0000 0.04608  0.92560  0.95371  Biso   1.000  C
  H245     1.0000 0.04438  0.98108  0.09809  Biso   1.000  H
  H246     1.0000 0.02398  0.02496  0.99716  Biso   1.000  H
  C232     1.0000 0.91542  0.72320  0.65126  Biso   1.000  C
  O43      1.0000 0.98934  0.71749  0.73859  Biso   1.000  O
  H247     1.0000 0.85039  0.73986  0.58337  Biso   1.000  H
  C233     1.0000 0.78799  0.83308  0.59838  Biso   1.000  C
  C234     1.0000 0.82103  0.56950  0.24489  Biso   1.000  C
  H248     1.0000 0.77520  0.60071  0.36634  Biso   1.000  H
  H249     1.0000 0.82829  0.60767  0.40279  Biso   1.000  H
  H250     1.0000 0.69749  0.71528  0.10793  Biso   1.000  H
  H251     1.0000 0.66338  0.67139  0.18550  Biso   1.000  H
  H252     1.0000 0.67748  0.75059  0.21687  Biso   1.000  H
  H253     1.0000 0.04158  0.87718  0.98232  Biso   1.000  H
  H254     1.0000 0.03000  0.92878  0.88239  Biso   1.000  H
  C235     1.0000 0.10020  0.93886  0.93527  Biso   1.000  C
  C236     1.0000 0.92268  0.64740  0.61056  Biso   1.000  C
  C237     1.0000 0.02348  0.74677  0.81241  Biso   1.000  C
  H255     1.0000 0.78090  0.79270  0.64559  Biso   1.000  H
  H256     1.0000 0.76100  0.86446  0.59496  Biso   1.000  H
  H257     1.0000 0.79549  0.81626  0.52481  Biso   1.000  H
  C238     1.0000 0.78834  0.54750  0.16590  Biso   1.000  C
  C239     1.0000 0.86821  0.54928  0.22729  Biso   1.000  C
  H258     1.0000 0.10498  0.98550  0.90049  Biso   1.000  H
  N8       1.0000 0.11925  0.88387  0.86638  Biso   1.000  N
  H259     1.0000 0.11638  0.93897  0.00667  Biso   1.000  H
  C240     1.0000 0.90756  0.59252  0.69831  Biso   1.000  C
  H260     1.0000 0.90448  0.63991  0.54300  Biso   1.000  H
  H261     1.0000 0.95590  0.64018  0.59271  Biso   1.000  H
  H262     1.0000 0.00800  0.76348  0.87889  Biso   1.000  H
  H263     1.0000 0.04619  0.71027  0.83151  Biso   1.000  H
  H264     1.0000 0.03928  0.78639  0.77688  Biso   1.000  H
  C241     1.0000 0.80109  0.50879  0.07290  Biso   1.000  C
  H265     1.0000 0.75661  0.55931  0.17608  Biso   1.000  H
  C242     1.0000 0.88060  0.50809  0.13888  Biso   1.000  C
  O44      1.0000 0.90033  0.57278  0.30711  Biso   1.000  O
  C243     1.0000 0.12931  0.89837  0.76921  Biso   1.000  C
  C244     1.0000 0.93979  0.56297  0.77187  Biso   1.000  C
  C245     1.0000 0.86027  0.57111  0.70681  Biso   1.000  C
  O45      1.0000 0.76925  0.48701  0.99233  Biso   1.000  O
  C246     1.0000 0.84770  0.48550  0.05764  Biso   1.000  C
  H266     1.0000 0.91209  0.49407  0.13154  Biso   1.000  H
  C247     1.0000 0.94489  0.59618  0.26958  Biso   1.000  C
  H267     1.0000 0.12549  0.94587  0.74577  Biso   1.000  H
  C248     1.0000 0.14723  0.84510  0.68646  Biso   1.000  C
  C249     1.0000 0.92594  0.51607  0.85453  Biso   1.000  C
  H268     1.0000 0.97159  0.57510  0.76554  Biso   1.000  H
  C250     1.0000 0.84685  0.52210  0.78797  Biso   1.000  C
  O46      1.0000 0.82950  0.60217  0.63150  Biso   1.000  O
  C251     1.0000 0.72331  0.51871  0.99658  Biso   1.000  C
  C252     1.0000 0.86240  0.44490  0.95571  Biso   1.000  C
  H269     1.0000 0.94188  0.61592  0.19576  Biso   1.000  H
  H270     1.0000 0.95690  0.63257  0.31913  Biso   1.000  H
  H271     1.0000 0.96649  0.55607  0.26808  Biso   1.000  H
  C253     1.0000 0.15800  0.86608  0.57828  Biso   1.000  C
  C254     1.0000 0.15301  0.77119  0.71549  Biso   1.000  C
  C255     1.0000 0.87887  0.49488  0.86396  Biso   1.000  C
  O47      1.0000 0.95725  0.48771  0.93077  Biso   1.000  O
  H272     1.0000 0.81540  0.50717  0.79131  Biso   1.000  H
  C256     1.0000 0.78048  0.59440  0.64818  Biso   1.000  C
  H273     1.0000 0.72579  0.56950  0.98248  Biso   1.000  H
  H274     1.0000 0.70348  0.49687  0.94103  Biso   1.000  H
  H275     1.0000 0.70978  0.51100  0.06906  Biso   1.000  H
  H276     1.0000 0.88790  0.41201  0.97481  Biso   1.000  H
  H277     1.0000 0.83591  0.41649  0.92893  Biso   1.000  H
  H278     1.0000 0.15471  0.91428  0.55818  Biso   1.000  H
  C257     1.0000 0.17288  0.81809  0.50171  Biso   1.000  C
  C258     1.0000 0.16799  0.72418  0.63333  Biso   1.000  C
  O48      1.0000 0.14369  0.74978  0.82159  Biso   1.000  O
  C259     1.0000 0.99649  0.52771  0.96080  Biso   1.000  C
  H279     1.0000 0.77208  0.61317  0.72016  Biso   1.000  H
  H280     1.0000 0.76369  0.62039  0.59138  Biso   1.000  H
  H281     1.0000 0.77219  0.54432  0.64442  Biso   1.000  H
  H282     1.0000 0.17950  0.83287  0.42923  Biso   1.000  H
  C260     1.0000 0.17830  0.74757  0.53140  Biso   1.000  C
  H283     1.0000 0.17100  0.67538  0.64960  Biso   1.000  H
  H284     1.0000 0.14330  0.78499  0.86279  Biso   1.000  H
  H285     1.0000 0.98711  0.57650  0.97598  Biso   1.000  H
  H286     1.0000 0.01909  0.52728  0.90091  Biso   1.000  H
  H287     1.0000 0.01059  0.50717  0.02627  Biso   1.000  H
  H288     1.0000 0.18959  0.71501  0.47877  Biso   1.000  H
