data_image0
_cell_length_a       26.882
_cell_length_b       13.263
_cell_length_c       25.65
_cell_angle_alpha    90
_cell_angle_beta     110.94
_cell_angle_gamma    90

_symmetry_space_group_name_H-M    "P 1"
_symmetry_int_tables_number       1

loop_
  _symmetry_equiv_pos_as_xyz
  'x, y, z'

loop_
  _atom_site_label
  _atom_site_occupancy
  _atom_site_fract_x
  _atom_site_fract_y
  _atom_site_fract_z
  _atom_site_thermal_displace_type
  _atom_site_B_iso_or_equiv
  _atom_site_type_symbol
  C1       1.0000 0.58120  0.62836  0.60540  Biso   1.000  C
  N1       1.0000 0.62513  0.59436  0.59121  Biso   1.000  N
  N2       1.0000 0.59731  0.68001  0.65921  Biso   1.000  N
  H1       1.0000 0.55919  0.67496  0.57589  Biso   1.000  H
  H2       1.0000 0.55870  0.56978  0.60620  Biso   1.000  H
  C2       1.0000 0.63820  0.63598  0.54851  Biso   1.000  C
  C3       1.0000 0.65520  0.50305  0.61308  Biso   1.000  C
  C4       1.0000 0.58731  0.77976  0.66259  Biso   1.000  C
  C5       1.0000 0.60700  0.62656  0.71172  Biso   1.000  C
  O1       1.0000 0.61610  0.70912  0.52079  Biso   1.000  O
  N3       1.0000 0.67851  0.58101  0.54279  Biso   1.000  N
  N4       1.0000 0.69263  0.51127  0.66981  Biso   1.000  N
  C6       1.0000 0.69161  0.49242  0.57781  Biso   1.000  C
  H3       1.0000 0.63122  0.44341  0.60832  Biso   1.000  H
  O2       1.0000 0.57433  0.84114  0.62452  Biso   1.000  O
  N5       1.0000 0.59532  0.80216  0.71761  Biso   1.000  N
  N6       1.0000 0.65993  0.58727  0.73689  Biso   1.000  N
  H4       1.0000 0.57931  0.57408  0.70830  Biso   1.000  H
  C7       1.0000 0.60590  0.71319  0.75322  Biso   1.000  C
  C8       1.0000 0.69421  0.59248  0.49349  Biso   1.000  C
  C9       1.0000 0.74431  0.50275  0.67311  Biso   1.000  C
  C10      1.0000 0.67781  0.49589  0.71832  Biso   1.000  C
  N7       1.0000 0.74392  0.49167  0.61939  Biso   1.000  N
  H5       1.0000 0.68390  0.42886  0.55531  Biso   1.000  H
  C11      1.0000 0.58001  0.89776  0.73522  Biso   1.000  C
  C12      1.0000 0.68993  0.63296  0.78682  Biso   1.000  C
  N8       1.0000 0.65809  0.70964  0.79479  Biso   1.000  N
  H6       1.0000 0.57761  0.70210  0.76941  Biso   1.000  H
  N9       1.0000 0.74751  0.63138  0.50689  Biso   1.000  N
  H7       1.0000 0.66883  0.63847  0.46661  Biso   1.000  H
  H8       1.0000 0.69170  0.52597  0.47521  Biso   1.000  H
  O3       1.0000 0.78343  0.50290  0.71552  Biso   1.000  O
  H9       1.0000 0.70880  0.46867  0.74921  Biso   1.000  H
  H10      1.0000 0.64900  0.44500  0.70922  Biso   1.000  H
  C13      1.0000 0.79131  0.46535  0.60891  Biso   1.000  C
  N10      1.0000 0.62584  0.95567  0.77012  Biso   1.000  N
  H11      1.0000 0.55990  0.93795  0.70179  Biso   1.000  H
  H12      1.0000 0.55621  0.88464  0.75630  Biso   1.000  H
  O4       1.0000 0.73362  0.60997  0.81742  Biso   1.000  O
  C14      1.0000 0.67180  0.75850  0.84839  Biso   1.000  C
  C15      1.0000 0.75709  0.73151  0.49679  Biso   1.000  C
  C16      1.0000 0.79502  0.57325  0.52730  Biso   1.000  C
  N11      1.0000 0.81363  0.55070  0.58720  Biso   1.000  N
  H13      1.0000 0.81860  0.44100  0.64402  Biso   1.000  H
  H14      1.0000 0.78311  0.40949  0.58148  Biso   1.000  H
  C17      1.0000 0.64854  0.94549  0.82981  Biso   1.000  C
  C18      1.0000 0.63961  0.04501  0.75192  Biso   1.000  C
  N12      1.0000 0.68631  0.86300  0.84852  Biso   1.000  N
  H15      1.0000 0.70191  0.72171  0.87582  Biso   1.000  H
  H16      1.0000 0.64103  0.75345  0.86091  Biso   1.000  H
  O5       1.0000 0.72342  0.79695  0.47921  Biso   1.000  O
  N13      1.0000 0.81163  0.74297  0.51131  Biso   1.000  N
  C19      1.0000 0.83950  0.64819  0.52442  Biso   1.000  C
  H17      1.0000 0.79290  0.51127  0.50438  Biso   1.000  H
  C20      1.0000 0.86373  0.58441  0.61392  Biso   1.000  C
  H18      1.0000 0.62051  0.94247  0.84701  Biso   1.000  H
  C21      1.0000 0.68411  0.04147  0.84839  Biso   1.000  C
  O6       1.0000 0.62192  0.07562  0.70321  Biso   1.000  O
  N14      1.0000 0.67603  0.09289  0.79621  Biso   1.000  N
  C22      1.0000 0.73902  0.89625  0.87490  Biso   1.000  C
  C23      1.0000 0.83231  0.82877  0.48982  Biso   1.000  C
  N15      1.0000 0.87990  0.64156  0.57931  Biso   1.000  N
  H19      1.0000 0.85372  0.62776  0.49478  Biso   1.000  H
  O7       1.0000 0.89092  0.56375  0.66322  Biso   1.000  O
  N16      1.0000 0.73712  0.99894  0.87490  Biso   1.000  N
  H20      1.0000 0.67332  0.08407  0.87469  Biso   1.000  H
  C24      1.0000 0.68861  0.19988  0.79329  Biso   1.000  C
  O8       1.0000 0.77771  0.84385  0.89489  Biso   1.000  O
  N17      1.0000 0.86792  0.88969  0.53402  Biso   1.000  N
  H21      1.0000 0.80223  0.87084  0.46652  Biso   1.000  H
  H22      1.0000 0.85161  0.80389  0.46590  Biso   1.000  H
  C25      1.0000 0.93231  0.68416  0.59380  Biso   1.000  C
  C26      1.0000 0.78403  0.06002  0.90140  Biso   1.000  C
  N18      1.0000 0.74103  0.21579  0.79200  Biso   1.000  N
  H23      1.0000 0.68581  0.23532  0.82610  Biso   1.000  H
  H24      1.0000 0.66209  0.22989  0.75939  Biso   1.000  H
  C27      1.0000 0.85463  0.98718  0.54141  Biso   1.000  C
  C28      1.0000 0.92461  0.86986  0.56412  Biso   1.000  C
  N19      1.0000 0.93509  0.79168  0.60599  Biso   1.000  N
  H25      1.0000 0.95669  0.64819  0.62690  Biso   1.000  H
  H26      1.0000 0.94511  0.67247  0.56262  Biso   1.000  H
  N20      1.0000 0.80482  0.10767  0.86212  Biso   1.000  N
  H27      1.0000 0.77522  0.11310  0.92390  Biso   1.000  H
  H28      1.0000 0.81221  0.01712  0.92733  Biso   1.000  H
  C29      1.0000 0.75111  0.23969  0.74412  Biso   1.000  C
  C30      1.0000 0.78871  0.20893  0.84150  Biso   1.000  C
  O9       1.0000 0.81001  0.02398  0.52041  Biso   1.000  O
  N21      1.0000 0.90001  0.03378  0.57718  Biso   1.000  N
  C31      1.0000 0.94450  0.96690  0.59889  Biso   1.000  C
  H29      1.0000 0.94401  0.85750  0.53790  Biso   1.000  H
  C32      1.0000 0.95392  0.82870  0.65979  Biso   1.000  C
  C33      1.0000 0.85552  0.08460  0.86429  Biso   1.000  C
  O10      1.0000 0.71802  0.25379  0.69791  Biso   1.000  O
  N22      1.0000 0.80542  0.24700  0.75939  Biso   1.000  N
  H30      1.0000 0.78703  0.25469  0.87181  Biso   1.000  H
  C34      1.0000 0.83362  0.24112  0.81950  Biso   1.000  C
  C35      1.0000 0.89952  0.13888  0.59221  Biso   1.000  C
  N23      1.0000 0.95550  0.93365  0.65570  Biso   1.000  N
  H31      1.0000 0.97702  0.99457  0.59380  Biso   1.000  H
  O11      1.0000 0.96611  0.77969  0.70250  Biso   1.000  O
  O12      1.0000 0.88137  0.00980  0.88621  Biso   1.000  O
  N24      1.0000 0.87121  0.15916  0.83712  Biso   1.000  N
  C36      1.0000 0.82840  0.29390  0.72249  Biso   1.000  C
  H32      1.0000 0.85001  0.30709  0.83549  Biso   1.000  H
  N25      1.0000 0.89389  0.15419  0.64619  Biso   1.000  N
  H33      1.0000 0.93312  0.17093  0.59301  Biso   1.000  H
  H34      1.0000 0.86969  0.17319  0.56299  Biso   1.000  H
  C37      1.0000 0.98891  0.99171  0.70392  Biso   1.000  C
  C38      1.0000 0.92471  0.16361  0.83712  Biso   1.000  C
  N26      1.0000 0.86262  0.22506  0.70600  Biso   1.000  N
  H35      1.0000 0.79951  0.31818  0.68860  Biso   1.000  H
  H36      1.0000 0.84962  0.35316  0.74140  Biso   1.000  H
  C39      1.0000 0.85152  0.19897  0.65140  Biso   1.000  C
  C40      1.0000 0.94110  0.15932  0.69811  Biso   1.000  C
  N27      1.0000 0.95850  0.06183  0.72450  Biso   1.000  N
  H37      1.0000 0.00842  0.94458  0.73431  Biso   1.000  H
  H38      1.0000 0.01553  0.03001  0.69340  Biso   1.000  H
  N28      1.0000 0.92961  0.14001  0.78452  Biso   1.000  N
  H39      1.0000 0.94722  0.11596  0.86551  Biso   1.000  H
  H40      1.0000 0.93890  0.23230  0.84831  Biso   1.000  H
  C41      1.0000 0.91843  0.21277  0.73940  Biso   1.000  C
  O13      1.0000 0.80819  0.21488  0.61358  Biso   1.000  O
  H41      1.0000 0.97102  0.19807  0.69302  Biso   1.000  H
  C42      1.0000 0.95430  0.05391  0.77609  Biso   1.000  C
  H42      1.0000 0.93632  0.27897  0.75271  Biso   1.000  H
  O14      1.0000 0.96879  0.98424  0.80898  Biso   1.000  O
  C43      1.0000 0.41880  0.37156  0.39460  Biso   1.000  C
  N29      1.0000 0.40269  0.31999  0.34079  Biso   1.000  N
  N30      1.0000 0.37491  0.40556  0.40879  Biso   1.000  N
  H43      1.0000 0.44081  0.32496  0.42411  Biso   1.000  H
  H44      1.0000 0.44130  0.43022  0.39381  Biso   1.000  H
  C44      1.0000 0.39302  0.37337  0.28832  Biso   1.000  C
  C45      1.0000 0.41269  0.22016  0.33741  Biso   1.000  C
  C46      1.0000 0.34480  0.49687  0.38692  Biso   1.000  C
  C47      1.0000 0.36180  0.36402  0.45150  Biso   1.000  C
  N31      1.0000 0.34011  0.41265  0.26311  Biso   1.000  N
  C48      1.0000 0.39410  0.28681  0.24679  Biso   1.000  C
  H45      1.0000 0.42069  0.42592  0.29170  Biso   1.000  H
  N32      1.0000 0.40468  0.19777  0.28239  Biso   1.000  N
  O15      1.0000 0.42573  0.15879  0.37552  Biso   1.000  O
  N33      1.0000 0.30741  0.48865  0.33019  Biso   1.000  N
  C49      1.0000 0.30839  0.50758  0.42219  Biso   1.000  C
  H46      1.0000 0.36883  0.55659  0.39172  Biso   1.000  H
  N34      1.0000 0.32153  0.41899  0.45721  Biso   1.000  N
  O16      1.0000 0.38390  0.29088  0.47921  Biso   1.000  O
  C50      1.0000 0.31011  0.36696  0.21318  Biso   1.000  C
  C51      1.0000 0.32219  0.50411  0.28168  Biso   1.000  C
  N35      1.0000 0.34191  0.29028  0.20521  Biso   1.000  N
  H47      1.0000 0.42240  0.29790  0.23059  Biso   1.000  H
  C52      1.0000 0.42001  0.10216  0.26482  Biso   1.000  C
  C53      1.0000 0.25570  0.49717  0.32689  Biso   1.000  C
  N36      1.0000 0.25612  0.50826  0.38062  Biso   1.000  N
  H48      1.0000 0.31610  0.57106  0.44469  Biso   1.000  H
  C54      1.0000 0.30583  0.40752  0.50651  Biso   1.000  C
  O17      1.0000 0.26641  0.38996  0.18259  Biso   1.000  O
  H49      1.0000 0.29120  0.53125  0.25079  Biso   1.000  H
  H50      1.0000 0.35100  0.55500  0.29078  Biso   1.000  H
  C55      1.0000 0.32821  0.24150  0.15161  Biso   1.000  C
  N37      1.0000 0.37422  0.04433  0.22992  Biso   1.000  N
  H51      1.0000 0.44010  0.06198  0.29821  Biso   1.000  H
  H52      1.0000 0.44379  0.11528  0.24370  Biso   1.000  H
  O18      1.0000 0.21662  0.49710  0.28452  Biso   1.000  O
  C56      1.0000 0.20870  0.53457  0.39109  Biso   1.000  C
  N38      1.0000 0.25253  0.36862  0.49311  Biso   1.000  N
  H53      1.0000 0.33121  0.36146  0.53340  Biso   1.000  H
  H54      1.0000 0.30830  0.47395  0.52480  Biso   1.000  H
  N39      1.0000 0.31369  0.13700  0.15149  Biso   1.000  N
  H55      1.0000 0.29810  0.27829  0.12419  Biso   1.000  H
  H56      1.0000 0.35901  0.24648  0.13909  Biso   1.000  H
  C57      1.0000 0.35150  0.05451  0.17019  Biso   1.000  C
  C58      1.0000 0.36041  0.95499  0.24812  Biso   1.000  C
  N40      1.0000 0.18641  0.44930  0.41280  Biso   1.000  N
  H57      1.0000 0.18140  0.55900  0.35599  Biso   1.000  H
  H58      1.0000 0.21690  0.59051  0.41852  Biso   1.000  H
  C59      1.0000 0.20502  0.42668  0.47270  Biso   1.000  C
  C60      1.0000 0.24291  0.26849  0.50322  Biso   1.000  C
  C61      1.0000 0.26099  0.10367  0.12510  Biso   1.000  C
  H59      1.0000 0.37949  0.05753  0.15299  Biso   1.000  H
  C62      1.0000 0.31589  0.95846  0.15161  Biso   1.000  C
  N41      1.0000 0.32401  0.90711  0.20379  Biso   1.000  N
  O19      1.0000 0.37809  0.92438  0.29679  Biso   1.000  O
  C63      1.0000 0.13631  0.41559  0.38608  Biso   1.000  C
  C64      1.0000 0.16052  0.35181  0.47562  Biso   1.000  C
  H60      1.0000 0.20710  0.48865  0.49562  Biso   1.000  H
  N42      1.0000 0.18841  0.25696  0.48869  Biso   1.000  N
  O20      1.0000 0.27662  0.20297  0.52079  Biso   1.000  O
  O21      1.0000 0.22229  0.15607  0.10511  Biso   1.000  O
  N43      1.0000 0.26292  0.00098  0.12510  Biso   1.000  N
  H61      1.0000 0.32672  0.91586  0.12531  Biso   1.000  H
  C65      1.0000 0.31140  0.80005  0.20671  Biso   1.000  C
  O22      1.0000 0.10912  0.43618  0.33678  Biso   1.000  O
  N44      1.0000 0.12010  0.35837  0.42069  Biso   1.000  N
  H62      1.0000 0.14632  0.37216  0.50522  Biso   1.000  H
  C66      1.0000 0.16769  0.17123  0.51019  Biso   1.000  C
  C67      1.0000 0.21601  0.93998  0.09860  Biso   1.000  C
  N45      1.0000 0.25901  0.78421  0.20801  Biso   1.000  N
  H63      1.0000 0.31419  0.76468  0.17390  Biso   1.000  H
  H64      1.0000 0.33791  0.77011  0.24061  Biso   1.000  H
  C68      1.0000 0.06769  0.31577  0.40620  Biso   1.000  C
  N46      1.0000 0.13210  0.11031  0.46602  Biso   1.000  N
  H65      1.0000 0.19782  0.12908  0.53352  Biso   1.000  H
  H66      1.0000 0.14840  0.19611  0.53411  Biso   1.000  H
  N47      1.0000 0.19520  0.89226  0.13792  Biso   1.000  N
  H67      1.0000 0.22478  0.88690  0.07610  Biso   1.000  H
  H68      1.0000 0.18781  0.98288  0.07272  Biso   1.000  H
  C69      1.0000 0.21129  0.79107  0.15850  Biso   1.000  C
  C70      1.0000 0.24889  0.76031  0.25589  Biso   1.000  C
  N48      1.0000 0.06491  0.20832  0.39401  Biso   1.000  N
  H69      1.0000 0.04331  0.35181  0.37310  Biso   1.000  H
  H70      1.0000 0.05489  0.32753  0.43739  Biso   1.000  H
  C71      1.0000 0.07539  0.13006  0.43588  Biso   1.000  C
  C72      1.0000 0.14541  0.01282  0.45859  Biso   1.000  C
  C73      1.0000 0.14452  0.91540  0.13571  Biso   1.000  C
  H71      1.0000 0.21301  0.74531  0.12819  Biso   1.000  H
  C74      1.0000 0.16642  0.75888  0.18050  Biso   1.000  C
  N49      1.0000 0.19462  0.75300  0.24061  Biso   1.000  N
  O23      1.0000 0.28199  0.74621  0.30210  Biso   1.000  O
  C75      1.0000 0.04612  0.17130  0.34021  Biso   1.000  C
  C76      1.0000 0.05550  0.03310  0.40111  Biso   1.000  C
  H72      1.0000 0.05599  0.14250  0.46210  Biso   1.000  H
  N50      1.0000 0.10003  0.96615  0.42282  Biso   1.000  N
  O24      1.0000 0.18999  0.97595  0.47959  Biso   1.000  O
  O25      1.0000 0.11863  0.99020  0.11379  Biso   1.000  O
  N51      1.0000 0.12879  0.84076  0.16288  Biso   1.000  N
  H73      1.0000 0.14999  0.69291  0.16451  Biso   1.000  H
  C77      1.0000 0.17160  0.70610  0.27751  Biso   1.000  C
  O26      1.0000 0.03390  0.22031  0.29750  Biso   1.000  O
  N52      1.0000 0.04450  0.06627  0.34430  Biso   1.000  N
  H74      1.0000 0.02302  0.00543  0.40620  Biso   1.000  H
  C78      1.0000 0.10048  0.86104  0.40779  Biso   1.000  C
  C79      1.0000 0.07530  0.83639  0.16288  Biso   1.000  C
  N53      1.0000 0.13742  0.77486  0.29400  Biso   1.000  N
  H75      1.0000 0.20049  0.68175  0.31140  Biso   1.000  H
  H76      1.0000 0.15042  0.64676  0.25860  Biso   1.000  H
  C80      1.0000 0.01109  0.00829  0.29609  Biso   1.000  C
  N54      1.0000 0.10611  0.84581  0.35382  Biso   1.000  N
  H77      1.0000 0.06692  0.82907  0.40700  Biso   1.000  H
  H78      1.0000 0.13031  0.82681  0.43701  Biso   1.000  H
  N55      1.0000 0.07041  0.85999  0.21552  Biso   1.000  N
  H79      1.0000 0.05278  0.88396  0.13450  Biso   1.000  H
  H80      1.0000 0.06110  0.76770  0.15170  Biso   1.000  H
  C81      1.0000 0.08161  0.78715  0.26060  Biso   1.000  C
  C82      1.0000 0.14849  0.80095  0.34860  Biso   1.000  C
  N56      1.0000 0.04150  0.93817  0.27551  Biso   1.000  N
  H81      1.0000 0.98451  0.96999  0.30660  Biso   1.000  H
  H82      1.0000 0.99162  0.05542  0.26570  Biso   1.000  H
  C83      1.0000 0.05890  0.84068  0.30189  Biso   1.000  C
  C84      1.0000 0.04570  0.94609  0.22391  Biso   1.000  C
  H83      1.0000 0.06368  0.72095  0.24729  Biso   1.000  H
  O27      1.0000 0.19181  0.78504  0.38642  Biso   1.000  O
  H84      1.0000 0.02900  0.80185  0.30702  Biso   1.000  H
  O28      1.0000 0.03121  0.01568  0.19102  Biso   1.000  O
  C85      1.0000 0.64852  0.55447  0.32981  Biso   1.000  C
  N57      1.0000 0.62582  0.54430  0.27012  Biso   1.000  N
  N58      1.0000 0.68633  0.63696  0.34851  Biso   1.000  N
  H85      1.0000 0.62049  0.55749  0.34701  Biso   1.000  H
  C86      1.0000 0.68409  0.45849  0.34839  Biso   1.000  C
  C87      1.0000 0.58001  0.60220  0.23518  Biso   1.000  C
  C88      1.0000 0.63962  0.45495  0.25192  Biso   1.000  C
  C89      1.0000 0.67181  0.74146  0.34839  Biso   1.000  C
  C90      1.0000 0.73900  0.60371  0.37490  Biso   1.000  C
  N59      1.0000 0.67601  0.40707  0.29621  Biso   1.000  N
  N60      1.0000 0.73710  0.50102  0.37490  Biso   1.000  N
  H86      1.0000 0.67330  0.41589  0.37469  Biso   1.000  H
  N61      1.0000 0.59530  0.69781  0.21761  Biso   1.000  N
  H87      1.0000 0.55988  0.56201  0.20179  Biso   1.000  H
  H88      1.0000 0.55619  0.61525  0.25630  Biso   1.000  H
  O29      1.0000 0.62190  0.42441  0.20321  Biso   1.000  O
  N62      1.0000 0.65811  0.79024  0.29479  Biso   1.000  N
  H89      1.0000 0.70192  0.77826  0.37581  Biso   1.000  H
  H90      1.0000 0.64101  0.74651  0.36091  Biso   1.000  H
  O30      1.0000 0.77769  0.65611  0.39489  Biso   1.000  O
  C91      1.0000 0.68859  0.30008  0.29329  Biso   1.000  C
  C92      1.0000 0.78401  0.44002  0.40140  Biso   1.000  C
  C93      1.0000 0.58729  0.72020  0.16259  Biso   1.000  C
  C94      1.0000 0.60592  0.78678  0.25321  Biso   1.000  C
  C95      1.0000 0.68991  0.86700  0.28682  Biso   1.000  C
  N63      1.0000 0.74101  0.28417  0.29199  Biso   1.000  N
  H91      1.0000 0.68579  0.26472  0.32610  Biso   1.000  H
  H92      1.0000 0.66211  0.27007  0.25939  Biso   1.000  H
  N64      1.0000 0.80480  0.39229  0.36212  Biso   1.000  N
  H93      1.0000 0.77520  0.38687  0.42390  Biso   1.000  H
  H94      1.0000 0.81221  0.48292  0.42728  Biso   1.000  H
  O31      1.0000 0.57431  0.65875  0.12452  Biso   1.000  O
  N65      1.0000 0.59729  0.81995  0.15921  Biso   1.000  N
  C96      1.0000 0.60702  0.87341  0.21172  Biso   1.000  C
  H95      1.0000 0.57762  0.79786  0.26941  Biso   1.000  H
  N66      1.0000 0.65991  0.91269  0.23689  Biso   1.000  N
  O32      1.0000 0.73360  0.88999  0.31742  Biso   1.000  O
  C97      1.0000 0.75109  0.26027  0.24411  Biso   1.000  C
  C98      1.0000 0.78869  0.29111  0.34150  Biso   1.000  C
  C99      1.0000 0.85550  0.41537  0.36429  Biso   1.000  C
  C100     1.0000 0.58122  0.87160  0.10540  Biso   1.000  C
  H96      1.0000 0.57929  0.92588  0.20830  Biso   1.000  H
  C101     1.0000 0.67783  0.00407  0.21832  Biso   1.000  C
  O33      1.0000 0.71800  0.24617  0.19790  Biso   1.000  O
  N67      1.0000 0.80540  0.25296  0.25939  Biso   1.000  N
  H97      1.0000 0.78701  0.24527  0.37181  Biso   1.000  H
  C102     1.0000 0.83360  0.25892  0.31950  Biso   1.000  C
  N68      1.0000 0.87123  0.34080  0.33712  Biso   1.000  N
  O34      1.0000 0.88135  0.49016  0.38621  Biso   1.000  O
  N69      1.0000 0.62511  0.90560  0.09121  Biso   1.000  N
  H98      1.0000 0.55921  0.82500  0.07589  Biso   1.000  H
  H99      1.0000 0.55868  0.93018  0.10619  Biso   1.000  H
  N70      1.0000 0.69261  0.98869  0.16981  Biso   1.000  N
  H100     1.0000 0.70882  0.03129  0.24921  Biso   1.000  H
  H101     1.0000 0.64902  0.05496  0.20922  Biso   1.000  H
  C103     1.0000 0.82838  0.20606  0.22249  Biso   1.000  C
  H102     1.0000 0.84999  0.19287  0.33549  Biso   1.000  H
  C104     1.0000 0.92472  0.33642  0.33712  Biso   1.000  C
  C105     1.0000 0.63822  0.86398  0.04851  Biso   1.000  C
  C106     1.0000 0.65518  0.99683  0.11308  Biso   1.000  C
  C107     1.0000 0.74432  0.99713  0.17311  Biso   1.000  C
  N71      1.0000 0.86260  0.27490  0.20600  Biso   1.000  N
  H103     1.0000 0.79949  0.18178  0.18860  Biso   1.000  H
  H104     1.0000 0.84960  0.14680  0.24140  Biso   1.000  H
  N72      1.0000 0.92963  0.36002  0.28452  Biso   1.000  N
  H105     1.0000 0.94720  0.38400  0.36550  Biso   1.000  H
  H106     1.0000 0.93892  0.26766  0.34831  Biso   1.000  H
  O35      1.0000 0.61608  0.79085  0.02079  Biso   1.000  O
  N73      1.0000 0.67849  0.91895  0.04279  Biso   1.000  N
  C108     1.0000 0.69159  0.00762  0.07781  Biso   1.000  C
  H107     1.0000 0.63119  0.05662  0.10828  Biso   1.000  H
  N74      1.0000 0.74390  0.00829  0.11939  Biso   1.000  N
  O36      1.0000 0.78341  0.99706  0.21552  Biso   1.000  O
  C109     1.0000 0.85150  0.30099  0.15140  Biso   1.000  C
  C110     1.0000 0.91841  0.28719  0.23940  Biso   1.000  C
  C111     1.0000 0.95432  0.44605  0.27609  Biso   1.000  C
  C112     1.0000 0.69419  0.90749  0.99349  Biso   1.000  C
  H108     1.0000 0.68392  0.07110  0.05531  Biso   1.000  H
  C113     1.0000 0.79129  0.03461  0.10891  Biso   1.000  C
  O37      1.0000 0.80821  0.28508  0.11358  Biso   1.000  O
  N75      1.0000 0.89391  0.34577  0.14618  Biso   1.000  N
  H109     1.0000 0.93630  0.22099  0.25271  Biso   1.000  H
  C114     1.0000 0.94112  0.34072  0.19811  Biso   1.000  C
  N76      1.0000 0.95848  0.43821  0.22450  Biso   1.000  N
  O38      1.0000 0.96881  0.51572  0.30898  Biso   1.000  O
  N77      1.0000 0.74749  0.86858  0.00689  Biso   1.000  N
  H110     1.0000 0.66881  0.86149  0.96661  Biso   1.000  H
  H111     1.0000 0.69172  0.97399  0.97520  Biso   1.000  H
  N78      1.0000 0.81361  0.94926  0.08720  Biso   1.000  N
  H112     1.0000 0.81862  0.05896  0.14401  Biso   1.000  H
  H113     1.0000 0.78309  0.09048  0.08148  Biso   1.000  H
  C115     1.0000 0.89950  0.36108  0.09221  Biso   1.000  C
  H114     1.0000 0.97100  0.30189  0.19302  Biso   1.000  H
  C116     1.0000 0.98893  0.50826  0.20392  Biso   1.000  C
  C117     1.0000 0.79500  0.92664  0.02730  Biso   1.000  C
  C118     1.0000 0.75711  0.76845  0.99679  Biso   1.000  C
  C119     1.0000 0.86371  0.91555  0.11392  Biso   1.000  C
  N79      1.0000 0.89999  0.46618  0.07718  Biso   1.000  N
  H115     1.0000 0.93310  0.32911  0.09300  Biso   1.000  H
  H116     1.0000 0.86971  0.32677  0.06299  Biso   1.000  H
  N80      1.0000 0.95552  0.56631  0.15570  Biso   1.000  N
  H117     1.0000 0.01551  0.46995  0.19340  Biso   1.000  H
  H118     1.0000 0.00840  0.55538  0.23431  Biso   1.000  H
  C120     1.0000 0.83952  0.85177  0.02442  Biso   1.000  C
  H119     1.0000 0.79288  0.98869  0.00438  Biso   1.000  H
  N81      1.0000 0.81161  0.75699  0.01131  Biso   1.000  N
  O39      1.0000 0.72340  0.70301  0.97921  Biso   1.000  O
  N82      1.0000 0.87992  0.85840  0.07931  Biso   1.000  N
  O40      1.0000 0.89090  0.93614  0.16322  Biso   1.000  O
  C121     1.0000 0.85461  0.51278  0.04141  Biso   1.000  C
  C122     1.0000 0.94448  0.53306  0.09889  Biso   1.000  C
  C123     1.0000 0.95390  0.67127  0.15979  Biso   1.000  C
  H120     1.0000 0.85371  0.87220  0.99482  Biso   1.000  H
  C124     1.0000 0.83233  0.67119  0.98981  Biso   1.000  C
  C125     1.0000 0.93229  0.81580  0.09380  Biso   1.000  C
  N83      1.0000 0.86790  0.61027  0.03402  Biso   1.000  N
  O41      1.0000 0.80999  0.47599  0.02041  Biso   1.000  O
  C126     1.0000 0.92463  0.63010  0.06412  Biso   1.000  C
  H121     1.0000 0.97700  0.50539  0.09380  Biso   1.000  H
  N84      1.0000 0.93511  0.70829  0.10599  Biso   1.000  N
  O42      1.0000 0.96609  0.72027  0.20250  Biso   1.000  O
  H122     1.0000 0.80221  0.62912  0.96652  Biso   1.000  H
  H123     1.0000 0.85162  0.69607  0.96590  Biso   1.000  H
  H124     1.0000 0.95671  0.85177  0.12690  Biso   1.000  H
  H125     1.0000 0.94509  0.82749  0.06261  Biso   1.000  H
  H126     1.0000 0.94399  0.64246  0.03790  Biso   1.000  H
  C127     1.0000 0.35152  0.44545  0.67019  Biso   1.000  C
  N85      1.0000 0.31371  0.36296  0.65149  Biso   1.000  N
  C128     1.0000 0.31591  0.54151  0.65161  Biso   1.000  C
  N86      1.0000 0.37424  0.45570  0.72992  Biso   1.000  N
  H127     1.0000 0.37951  0.44251  0.65299  Biso   1.000  H
  C129     1.0000 0.26101  0.39629  0.62511  Biso   1.000  C
  C130     1.0000 0.32823  0.25846  0.65161  Biso   1.000  C
  N87      1.0000 0.26290  0.49898  0.62511  Biso   1.000  N
  N88      1.0000 0.32400  0.59285  0.70379  Biso   1.000  N
  H128     1.0000 0.32670  0.58411  0.62531  Biso   1.000  H
  C131     1.0000 0.42003  0.39780  0.76482  Biso   1.000  C
  C132     1.0000 0.36043  0.54497  0.74812  Biso   1.000  C
  O43      1.0000 0.22231  0.34389  0.60511  Biso   1.000  O
  N89      1.0000 0.34193  0.20968  0.70521  Biso   1.000  N
  H129     1.0000 0.29812  0.22167  0.62419  Biso   1.000  H
  H130     1.0000 0.35900  0.25349  0.63909  Biso   1.000  H
  C133     1.0000 0.21600  0.55998  0.59860  Biso   1.000  C
  C134     1.0000 0.31142  0.69984  0.70671  Biso   1.000  C
  N90      1.0000 0.40470  0.30219  0.78239  Biso   1.000  N
  H131     1.0000 0.44012  0.43799  0.79822  Biso   1.000  H
  H132     1.0000 0.44381  0.38468  0.74370  Biso   1.000  H
  O44      1.0000 0.37811  0.57559  0.79680  Biso   1.000  O
  C135     1.0000 0.31009  0.13300  0.71318  Biso   1.000  C
  C136     1.0000 0.39412  0.21322  0.74679  Biso   1.000  C
  N91      1.0000 0.19522  0.60771  0.63792  Biso   1.000  N
  H133     1.0000 0.22480  0.61306  0.57610  Biso   1.000  H
  H134     1.0000 0.18783  0.51708  0.57272  Biso   1.000  H
  N92      1.0000 0.25900  0.71575  0.70801  Biso   1.000  N
  H135     1.0000 0.31421  0.73528  0.67390  Biso   1.000  H
  H136     1.0000 0.33793  0.72985  0.74061  Biso   1.000  H
  C137     1.0000 0.41271  0.27980  0.83741  Biso   1.000  C
  O45      1.0000 0.26640  0.11001  0.68259  Biso   1.000  O
  N93      1.0000 0.34013  0.08731  0.76311  Biso   1.000  N
  C138     1.0000 0.39304  0.12659  0.78832  Biso   1.000  C
  H137     1.0000 0.42242  0.20207  0.73059  Biso   1.000  H
  C139     1.0000 0.14450  0.58456  0.63571  Biso   1.000  C
  C140     1.0000 0.21131  0.70889  0.65850  Biso   1.000  C
  C141     1.0000 0.24891  0.73965  0.75589  Biso   1.000  C
  N94      1.0000 0.40271  0.17997  0.84079  Biso   1.000  N
  O46      1.0000 0.42571  0.34117  0.87552  Biso   1.000  O
  C142     1.0000 0.32221  0.99585  0.78168  Biso   1.000  C
  H138     1.0000 0.42071  0.07412  0.79170  Biso   1.000  H
  O47      1.0000 0.11865  0.50976  0.61379  Biso   1.000  O
  N95      1.0000 0.12882  0.65920  0.66293  Biso   1.000  N
  H139     1.0000 0.21299  0.75466  0.62819  Biso   1.000  H
  C143     1.0000 0.16640  0.74108  0.68050  Biso   1.000  C
  N96      1.0000 0.19460  0.74697  0.74061  Biso   1.000  N
  O48      1.0000 0.28201  0.75375  0.80210  Biso   1.000  O
  C144     1.0000 0.41882  0.12840  0.89460  Biso   1.000  C
  N97      1.0000 0.30740  0.01131  0.83019  Biso   1.000  N
  H140     1.0000 0.29122  0.96863  0.75079  Biso   1.000  H
  H141     1.0000 0.35102  0.94496  0.79078  Biso   1.000  H
  C145     1.0000 0.07533  0.66358  0.66293  Biso   1.000  C
  H142     1.0000 0.15001  0.80706  0.66451  Biso   1.000  H
  C146     1.0000 0.17162  0.79386  0.77751  Biso   1.000  C
  N98      1.0000 0.37490  0.09440  0.90879  Biso   1.000  N
  H143     1.0000 0.44083  0.17500  0.92411  Biso   1.000  H
  H144     1.0000 0.44132  0.06982  0.89381  Biso   1.000  H
  C147     1.0000 0.25572  0.00279  0.82689  Biso   1.000  C
  C148     1.0000 0.34482  0.00309  0.88692  Biso   1.000  C
  N99      1.0000 0.07043  0.63998  0.71552  Biso   1.000  N
  H145     1.0000 0.05280  0.61600  0.63450  Biso   1.000  H
  H146     1.0000 0.06112  0.73226  0.65170  Biso   1.000  H
  N100     1.0000 0.13740  0.72510  0.79400  Biso   1.000  N
  H147     1.0000 0.20051  0.81814  0.81141  Biso   1.000  H
  H148     1.0000 0.15040  0.85320  0.75860  Biso   1.000  H
  C149     1.0000 0.36182  0.13602  0.95150  Biso   1.000  C
  O49      1.0000 0.21660  0.00287  0.78452  Biso   1.000  O
  N101     1.0000 0.25611  0.99171  0.88062  Biso   1.000  N
  C150     1.0000 0.30841  0.99238  0.92219  Biso   1.000  C
  H149     1.0000 0.36881  0.94338  0.89172  Biso   1.000  H
  C151     1.0000 0.04572  0.55387  0.72391  Biso   1.000  C
  C152     1.0000 0.08160  0.71281  0.76060  Biso   1.000  C
  C153     1.0000 0.14851  0.69901  0.84860  Biso   1.000  C
  N102     1.0000 0.32151  0.08098  0.95722  Biso   1.000  N
  O50      1.0000 0.38392  0.20908  0.97921  Biso   1.000  O
  C154     1.0000 0.20872  0.96539  0.89109  Biso   1.000  C
  H150     1.0000 0.31612  0.92890  0.94469  Biso   1.000  H
  O51      1.0000 0.03123  0.48428  0.69102  Biso   1.000  O
  N103     1.0000 0.04152  0.56179  0.77551  Biso   1.000  N
  H151     1.0000 0.06370  0.77901  0.74729  Biso   1.000  H
  C155     1.0000 0.05892  0.65928  0.80189  Biso   1.000  C
  N104     1.0000 0.10613  0.65415  0.85382  Biso   1.000  N
  O52      1.0000 0.19183  0.71485  0.88642  Biso   1.000  O
  C156     1.0000 0.30581  0.09251  0.00651  Biso   1.000  C
  N105     1.0000 0.18640  0.05067  0.91280  Biso   1.000  N
  H152     1.0000 0.18142  0.94096  0.85599  Biso   1.000  H
  H153     1.0000 0.21692  0.90945  0.91852  Biso   1.000  H
  C157     1.0000 0.01111  0.49167  0.79609  Biso   1.000  C
  H154     1.0000 0.02902  0.69811  0.80702  Biso   1.000  H
  C158     1.0000 0.10050  0.63884  0.90779  Biso   1.000  C
  N106     1.0000 0.25251  0.13142  0.99311  Biso   1.000  N
  H155     1.0000 0.33120  0.13851  0.03340  Biso   1.000  H
  H156     1.0000 0.30829  0.02601  0.02480  Biso   1.000  H
  C159     1.0000 0.13631  0.08437  0.88613  Biso   1.000  C
  C160     1.0000 0.20500  0.07329  0.97270  Biso   1.000  C
  N107     1.0000 0.04452  0.43369  0.84430  Biso   1.000  N
  H157     1.0000 0.98453  0.52997  0.80661  Biso   1.000  H
  H158     1.0000 0.99160  0.44462  0.76570  Biso   1.000  H
  N108     1.0000 0.10001  0.53382  0.92282  Biso   1.000  N
  H159     1.0000 0.06690  0.67089  0.90700  Biso   1.000  H
  H160     1.0000 0.13033  0.67315  0.93701  Biso   1.000  H
  C161     1.0000 0.24290  0.23147  0.00322  Biso   1.000  C
  O53      1.0000 0.10910  0.06379  0.83679  Biso   1.000  O
  N109     1.0000 0.12012  0.14160  0.92069  Biso   1.000  N
  C162     1.0000 0.16054  0.14823  0.97562  Biso   1.000  C
  H161     1.0000 0.20712  0.01131  0.99562  Biso   1.000  H
  C163     1.0000 0.04610  0.32866  0.84021  Biso   1.000  C
  C164     1.0000 0.05552  0.46686  0.90111  Biso   1.000  C
  C165     1.0000 0.14543  0.48722  0.95859  Biso   1.000  C
  N110     1.0000 0.18843  0.24301  0.98869  Biso   1.000  N
  O54      1.0000 0.27660  0.29699  0.02079  Biso   1.000  O
  C166     1.0000 0.06771  0.18420  0.90620  Biso   1.000  C
  H162     1.0000 0.14630  0.12780  0.00522  Biso   1.000  H
  O55      1.0000 0.03392  0.27973  0.79751  Biso   1.000  O
  N111     1.0000 0.06493  0.29171  0.89402  Biso   1.000  N
  H163     1.0000 0.02300  0.49461  0.90620  Biso   1.000  H
  C167     1.0000 0.07543  0.36990  0.93593  Biso   1.000  C
  N112     1.0000 0.13212  0.38966  0.96602  Biso   1.000  N
  O56      1.0000 0.19001  0.52401  0.97959  Biso   1.000  O
  C168     1.0000 0.16771  0.32881  0.01019  Biso   1.000  C
  H164     1.0000 0.04333  0.14823  0.87310  Biso   1.000  H
  H165     1.0000 0.05491  0.17251  0.93739  Biso   1.000  H
  H166     1.0000 0.05601  0.35746  0.96210  Biso   1.000  H
  H167     1.0000 0.19780  0.37088  0.03352  Biso   1.000  H
  H168     1.0000 0.14842  0.30393  0.03411  Biso   1.000  H
  Ne1      1.0000 0.22311  0.12843  0.31100  Biso   1.000  Ne
  He1      1.0000 0.30804  0.00416  0.41173  Biso   1.000  He
  He2      1.0000 0.13574  0.24677  0.20640  Biso   1.000  He
  Ar1      1.0000 0.22290  0.12607  0.31090  Biso   1.000  Ar
  Ne2      1.0000 0.22312  0.37153  0.81101  Biso   1.000  Ne
  He3      1.0000 0.30345  0.48907  0.90637  Biso   1.000  He
  He4      1.0000 0.14358  0.26525  0.71603  Biso   1.000  He
  Ar2      1.0000 0.22291  0.37389  0.81090  Biso   1.000  Ar
  Ne3      1.0000 0.77690  0.62843  0.18900  Biso   1.000  Ne
  He5      1.0000 0.85673  0.73512  0.28435  Biso   1.000  He
  He6      1.0000 0.69771  0.51248  0.09503  Biso   1.000  He
  Ar3      1.0000 0.77585  0.62468  0.19073  Biso   1.000  Ar
  Ne4      1.0000 0.77691  0.87153  0.68900  Biso   1.000  Ne
  He7      1.0000 0.86491  0.75223  0.79445  Biso   1.000  He
  He8      1.0000 0.69077  0.99752  0.58683  Biso   1.000  He
  Ar4      1.0000 0.77585  0.87524  0.69074  Biso   1.000  Ar
