data_image0
_cell_length_a       14.259
_cell_length_b       18.033
_cell_length_c       20.014
_cell_angle_alpha    65.26
_cell_angle_beta     87.57
_cell_angle_gamma    73.37

_symmetry_space_group_name_H-M    "P 1"
_symmetry_int_tables_number       1

loop_
  _symmetry_equiv_pos_as_xyz
  'x, y, z'

loop_
  _atom_site_label
  _atom_site_occupancy
  _atom_site_fract_x
  _atom_site_fract_y
  _atom_site_fract_z
  _atom_site_thermal_displace_type
  _atom_site_B_iso_or_equiv
  _atom_site_type_symbol
  N1       1.0000 0.38146  0.49939  0.47550  Biso   1.000  N
  C1       1.0000 0.43592  0.49408  0.41988  Biso   1.000  C
  C2       1.0000 0.35825  0.57645  0.47699  Biso   1.000  C
  C3       1.0000 0.46216  0.41008  0.41569  Biso   1.000  C
  N2       1.0000 0.47092  0.55457  0.37249  Biso   1.000  N
  N3       1.0000 0.38808  0.64158  0.43159  Biso   1.000  N
  C4       1.0000 0.29617  0.58736  0.53571  Biso   1.000  C
  C5       1.0000 0.50580  0.40050  0.35460  Biso   1.000  C
  C6       1.0000 0.44532  0.33959  0.47329  Biso   1.000  C
  C7       1.0000 0.44606  0.62778  0.38039  Biso   1.000  C
  C8       1.0000 0.25673  0.52473  0.58133  Biso   1.000  C
  C9       1.0000 0.27685  0.66417  0.54300  Biso   1.000  C
  C10      1.0000 0.53125  0.32269  0.35184  Biso   1.000  C
  H1       1.0000 0.51803  0.44820  0.31499  Biso   1.000  H
  C11      1.0000 0.47262  0.26048  0.47092  Biso   1.000  C
  H2       1.0000 0.41486  0.34545  0.51461  Biso   1.000  H
  C12      1.0000 0.48586  0.69675  0.33388  Biso   1.000  C
  H3       1.0000 0.26927  0.47293  0.57592  Biso   1.000  H
  C13      1.0000 0.19878  0.53685  0.63513  Biso   1.000  C
  C14      1.0000 0.21919  0.67383  0.59862  Biso   1.000  C
  H4       1.0000 0.30224  0.70858  0.51080  Biso   1.000  H
  C15      1.0000 0.51543  0.25276  0.40900  Biso   1.000  C
  H5       1.0000 0.56012  0.31706  0.30991  Biso   1.000  H
  H6       1.0000 0.46230  0.21208  0.51091  Biso   1.000  H
  C16      1.0000 0.56385  0.68144  0.29141  Biso   1.000  C
  C17      1.0000 0.45104  0.77665  0.33052  Biso   1.000  C
  C18      1.0000 0.18016  0.61234  0.64214  Biso   1.000  C
  H7       1.0000 0.17195  0.49335  0.66700  Biso   1.000  H
  H8       1.0000 0.20736  0.72453  0.60580  Biso   1.000  H
  O1       1.0000 0.54059  0.17158  0.41392  Biso   1.000  O
  H9       1.0000 0.58854  0.62626  0.29218  Biso   1.000  H
  C19      1.0000 0.60459  0.74296  0.24960  Biso   1.000  C
  C20      1.0000 0.48845  0.84355  0.28600  Biso   1.000  C
  H10      1.0000 0.39914  0.78776  0.35962  Biso   1.000  H
  O2       1.0000 0.12706  0.62164  0.70003  Biso   1.000  O
  C21      1.0000 0.57093  0.15897  0.34968  Biso   1.000  C
  C22      1.0000 0.56587  0.82464  0.24673  Biso   1.000  C
  H11      1.0000 0.65865  0.73076  0.22259  Biso   1.000  H
  H12      1.0000 0.46148  0.89959  0.28301  Biso   1.000  H
  C23      1.0000 0.03025  0.66935  0.68384  Biso   1.000  C
  C24      1.0000 0.57644  0.07020  0.36570  Biso   1.000  C
  H13      1.0000 0.63594  0.16839  0.33841  Biso   1.000  H
  H14      1.0000 0.52292  0.19947  0.30671  Biso   1.000  H
  O3       1.0000 0.61301  0.88624  0.20663  Biso   1.000  O
  N4       1.0000 0.98856  0.69153  0.61784  Biso   1.000  N
  C25      1.0000 0.98683  0.69134  0.73874  Biso   1.000  C
  O4       1.0000 0.48215  0.06036  0.37183  Biso   1.000  O
  H15      1.0000 0.60691  0.05598  0.32549  Biso   1.000  H
  H16      1.0000 0.61802  0.03057  0.41232  Biso   1.000  H
  C26      1.0000 0.56208  0.95575  0.14830  Biso   1.000  C
  C27      1.0000 0.89246  0.73744  0.60519  Biso   1.000  C
  C28      1.0000 0.89091  0.73762  0.72571  Biso   1.000  C
  H17      1.0000 0.02325  0.67453  0.78404  Biso   1.000  H
  C29      1.0000 0.48379  0.97332  0.40221  Biso   1.000  C
  N5       1.0000 0.47324  0.96151  0.12599  Biso   1.000  N
  C30      1.0000 0.60854  0.01921  0.11290  Biso   1.000  C
  N6       1.0000 0.84964  0.75746  0.53841  Biso   1.000  N
  C31      1.0000 0.84125  0.76176  0.65783  Biso   1.000  C
  H18      1.0000 0.85786  0.75337  0.76222  Biso   1.000  H
  C32      1.0000 0.38166  0.96704  0.40652  Biso   1.000  C
  H19      1.0000 0.51898  0.94286  0.45219  Biso   1.000  H
  H20      1.0000 0.51940  0.94594  0.37100  Biso   1.000  H
  C33      1.0000 0.42629  0.03219  0.06540  Biso   1.000  C
  C34      1.0000 0.56288  0.08862  0.05148  Biso   1.000  C
  H21      1.0000 0.67143  0.01319  0.13212  Biso   1.000  H
  C35      1.0000 0.75673  0.80048  0.52400  Biso   1.000  C
  C36      1.0000 0.74018  0.80713  0.63899  Biso   1.000  C
  O5       1.0000 0.33555  0.99804  0.33411  Biso   1.000  O
  H22      1.0000 0.34332  0.00115  0.43203  Biso   1.000  H
  H23      1.0000 0.38297  0.90673  0.43551  Biso   1.000  H
  N7       1.0000 0.33367  0.03454  0.04601  Biso   1.000  N
  C37      1.0000 0.46778  0.09633  0.02590  Biso   1.000  C
  H24      1.0000 0.59384  0.13169  0.02590  Biso   1.000  H
  O6       1.0000 0.70839  0.82238  0.45821  Biso   1.000  O
  C38      1.0000 0.69774  0.82666  0.57343  Biso   1.000  C
  H25      1.0000 0.70225  0.82374  0.67340  Biso   1.000  H
  C39      1.0000 0.23407  0.99737  0.33582  Biso   1.000  C
  C40      1.0000 0.28668  0.10093  0.98873  Biso   1.000  C
  C41      1.0000 0.41198  0.16674  0.96255  Biso   1.000  C
  C42      1.0000 0.76385  0.81565  0.39934  Biso   1.000  C
  H26      1.0000 0.62997  0.85722  0.56012  Biso   1.000  H
  C43      1.0000 0.19337  0.01519  0.26313  Biso   1.000  C
  H27      1.0000 0.19472  0.04087  0.35189  Biso   1.000  H
  H28      1.0000 0.23015  0.94065  0.37200  Biso   1.000  H
  O7       1.0000 0.19304  0.10635  0.96791  Biso   1.000  O
  C44      1.0000 0.32017  0.16855  0.94333  Biso   1.000  C
  H29      1.0000 0.43821  0.21216  0.93372  Biso   1.000  H
  C45      1.0000 0.77236  0.74464  0.38531  Biso   1.000  C
  C46      1.0000 0.80114  0.87866  0.35813  Biso   1.000  C
  O8       1.0000 0.17700  0.10110  0.21149  Biso   1.000  O
  H30      1.0000 0.13032  0.00136  0.26832  Biso   1.000  H
  H31      1.0000 0.23917  0.97747  0.24391  Biso   1.000  H
  C47      1.0000 0.15530  0.03995  0.01248  Biso   1.000  C
  H32      1.0000 0.28125  0.21412  0.90075  Biso   1.000  H
  C48      1.0000 0.82048  0.74156  0.32372  Biso   1.000  C
  H33      1.0000 0.74655  0.69997  0.41651  Biso   1.000  H
  C49      1.0000 0.84927  0.87527  0.29588  Biso   1.000  C
  H34      1.0000 0.79549  0.92519  0.37039  Biso   1.000  H
  C50      1.0000 0.26278  0.12221  0.17829  Biso   1.000  C
  C51      1.0000 0.11397  0.03902  0.07622  Biso   1.000  C
  C52      1.0000 0.15725  0.97662  0.98884  Biso   1.000  C
  C53      1.0000 0.85986  0.80474  0.28053  Biso   1.000  C
  H35      1.0000 0.82568  0.69487  0.31168  Biso   1.000  H
  H36      1.0000 0.87414  0.92058  0.26479  Biso   1.000  H
  C54      1.0000 0.23584  0.19640  0.10550  Biso   1.000  C
  H37      1.0000 0.30722  0.07230  0.17233  Biso   1.000  H
  H38      1.0000 0.29848  0.13538  0.21121  Biso   1.000  H
  C55      1.0000 0.07177  0.97635  0.11533  Biso   1.000  C
  H39      1.0000 0.11498  0.08120  0.09263  Biso   1.000  H
  C56      1.0000 0.11229  0.91536  0.02800  Biso   1.000  C
  H40      1.0000 0.18913  0.97615  0.94631  Biso   1.000  H
  C57      1.0000 0.91614  0.80108  0.21740  Biso   1.000  C
  O9       1.0000 0.19114  0.27180  0.11411  Biso   1.000  O
  H41      1.0000 0.29543  0.20161  0.07898  Biso   1.000  H
  H42      1.0000 0.18989  0.18759  0.07572  Biso   1.000  H
  C58      1.0000 0.06872  0.91311  0.09268  Biso   1.000  C
  H43      1.0000 0.04334  0.97559  0.15929  Biso   1.000  H
  H44      1.0000 0.11044  0.87389  0.01088  Biso   1.000  H
  N8       1.0000 0.92138  0.73489  0.20088  Biso   1.000  N
  N9       1.0000 0.96217  0.85865  0.18503  Biso   1.000  N
  C59      1.0000 0.14393  0.34028  0.04540  Biso   1.000  C
  C60      1.0000 0.01869  0.84917  0.13212  Biso   1.000  C
  C61      1.0000 0.98226  0.72880  0.14930  Biso   1.000  C
  H45      1.0000 0.07862  0.33587  0.03601  Biso   1.000  H
  H46      1.0000 0.18380  0.33683  0.00447  Biso   1.000  H
  C62      1.0000 0.13303  0.42088  0.04838  Biso   1.000  C
  N10      1.0000 0.03314  0.78356  0.11500  Biso   1.000  N
  C63      1.0000 0.99653  0.65479  0.13101  Biso   1.000  C
  O10      1.0000 0.05674  0.43817  0.09141  Biso   1.000  O
  H47      1.0000 0.19531  0.41927  0.06981  Biso   1.000  H
  H48      1.0000 0.11891  0.46723  0.99774  Biso   1.000  H
  C64      1.0000 0.07237  0.63925  0.08843  Biso   1.000  C
  C65      1.0000 0.94217  0.59836  0.15741  Biso   1.000  C
  C66      1.0000 0.04021  0.51239  0.10163  Biso   1.000  C
  C67      1.0000 0.09685  0.56721  0.07390  Biso   1.000  C
  H49      1.0000 0.10887  0.67908  0.06838  Biso   1.000  H
  C68      1.0000 0.96204  0.52909  0.14339  Biso   1.000  C
  H50      1.0000 0.88923  0.60855  0.18603  Biso   1.000  H
  H51      1.0000 0.15044  0.55626  0.04601  Biso   1.000  H
  H52      1.0000 0.92300  0.49112  0.16189  Biso   1.000  H
  N11      1.0000 0.61867  0.50056  0.52449  Biso   1.000  N
  C69      1.0000 0.64183  0.42345  0.52300  Biso   1.000  C
  C70      1.0000 0.56413  0.50588  0.58011  Biso   1.000  C
  C71      1.0000 0.70395  0.41259  0.46429  Biso   1.000  C
  N12      1.0000 0.61204  0.35838  0.56840  Biso   1.000  N
  N13      1.0000 0.52914  0.44539  0.62750  Biso   1.000  N
  C72      1.0000 0.53797  0.58988  0.58431  Biso   1.000  C
  C73      1.0000 0.72321  0.33579  0.45700  Biso   1.000  C
  C74      1.0000 0.74336  0.47514  0.41872  Biso   1.000  C
  C75      1.0000 0.55400  0.37218  0.61961  Biso   1.000  C
  C76      1.0000 0.49426  0.59945  0.64540  Biso   1.000  C
  C77      1.0000 0.55474  0.66037  0.52670  Biso   1.000  C
  C78      1.0000 0.78096  0.32604  0.40143  Biso   1.000  C
  H53      1.0000 0.69781  0.29138  0.48920  Biso   1.000  H
  H54      1.0000 0.73088  0.52694  0.42414  Biso   1.000  H
  C79      1.0000 0.80135  0.46308  0.36493  Biso   1.000  C
  C80      1.0000 0.51422  0.30315  0.66611  Biso   1.000  C
  H55      1.0000 0.48202  0.55176  0.68500  Biso   1.000  H
  C81      1.0000 0.46888  0.67724  0.64822  Biso   1.000  C
  C82      1.0000 0.52744  0.73945  0.52913  Biso   1.000  C
  H56      1.0000 0.58529  0.65445  0.48539  Biso   1.000  H
  C83      1.0000 0.81990  0.38759  0.35791  Biso   1.000  C
  H57      1.0000 0.79272  0.27537  0.39420  Biso   1.000  H
  H58      1.0000 0.82812  0.50655  0.33300  Biso   1.000  H
  C84      1.0000 0.43624  0.31843  0.70864  Biso   1.000  C
  C85      1.0000 0.54905  0.22322  0.66954  Biso   1.000  C
  H59      1.0000 0.43997  0.68281  0.69014  Biso   1.000  H
  C86      1.0000 0.48465  0.74714  0.59100  Biso   1.000  C
  H60      1.0000 0.53775  0.78788  0.48909  Biso   1.000  H
  O11      1.0000 0.87300  0.37829  0.30003  Biso   1.000  O
  H61      1.0000 0.41153  0.37364  0.70781  Biso   1.000  H
  C87      1.0000 0.39555  0.25694  0.75040  Biso   1.000  C
  C88      1.0000 0.51162  0.15635  0.71400  Biso   1.000  C
  H62      1.0000 0.60092  0.21217  0.64043  Biso   1.000  H
  O12      1.0000 0.45947  0.82835  0.58613  Biso   1.000  O
  C89      1.0000 0.96982  0.33058  0.31621  Biso   1.000  C
  H63      1.0000 0.34142  0.26914  0.77741  Biso   1.000  H
  C90      1.0000 0.43421  0.17523  0.75333  Biso   1.000  C
  H64      1.0000 0.53866  0.10034  0.71704  Biso   1.000  H
  C91      1.0000 0.42915  0.84092  0.65032  Biso   1.000  C
  N14      1.0000 0.01153  0.30834  0.38221  Biso   1.000  N
  C92      1.0000 0.01323  0.30859  0.26131  Biso   1.000  C
  O13      1.0000 0.38715  0.11363  0.79342  Biso   1.000  O
  H65      1.0000 0.36420  0.83154  0.66164  Biso   1.000  H
  H66      1.0000 0.47714  0.80046  0.69334  Biso   1.000  H
  C93      1.0000 0.42369  0.92976  0.63430  Biso   1.000  C
  C94      1.0000 0.10762  0.26245  0.39481  Biso   1.000  C
  H67      1.0000 0.97681  0.32540  0.21602  Biso   1.000  H
  C95      1.0000 0.10924  0.26228  0.27429  Biso   1.000  C
  C96      1.0000 0.43800  0.04414  0.85170  Biso   1.000  C
  O14      1.0000 0.51800  0.93951  0.62822  Biso   1.000  O
  H68      1.0000 0.39317  0.94392  0.67451  Biso   1.000  H
  H69      1.0000 0.38204  0.96936  0.58774  Biso   1.000  H
  N15      1.0000 0.15042  0.24250  0.46158  Biso   1.000  N
  C97      1.0000 0.15881  0.23816  0.34222  Biso   1.000  C
  H70      1.0000 0.14220  0.24659  0.23778  Biso   1.000  H
  N16      1.0000 0.52682  0.03845  0.87401  Biso   1.000  N
  C98      1.0000 0.39159  0.98074  0.88710  Biso   1.000  C
  C99      1.0000 0.51629  0.02658  0.59779  Biso   1.000  C
  C100     1.0000 0.24333  0.19948  0.47600  Biso   1.000  C
  C101     1.0000 0.25989  0.19277  0.36100  Biso   1.000  C
  C102     1.0000 0.57378  0.96771  0.93460  Biso   1.000  C
  H71      1.0000 0.32872  0.98668  0.86793  Biso   1.000  H
  C103     1.0000 0.43718  0.91133  0.94852  Biso   1.000  C
  H72      1.0000 0.48114  0.05709  0.54780  Biso   1.000  H
  H73      1.0000 0.48074  0.05396  0.62900  Biso   1.000  H
  C104     1.0000 0.61840  0.03289  0.59354  Biso   1.000  C
  O15      1.0000 0.29174  0.17755  0.54184  Biso   1.000  O
  C105     1.0000 0.30232  0.17327  0.42662  Biso   1.000  C
  H74      1.0000 0.29783  0.17616  0.32659  Biso   1.000  H
  N17      1.0000 0.66639  0.96539  0.95404  Biso   1.000  N
  C106     1.0000 0.53229  0.90360  0.97415  Biso   1.000  C
  H75      1.0000 0.40632  0.86818  0.97415  Biso   1.000  H
  H76      1.0000 0.65676  0.99872  0.56802  Biso   1.000  H
  O16      1.0000 0.66453  0.00186  0.66589  Biso   1.000  O
  H77      1.0000 0.61711  0.09315  0.56454  Biso   1.000  H
  C107     1.0000 0.23622  0.18428  0.60072  Biso   1.000  C
  H78      1.0000 0.37012  0.14265  0.43993  Biso   1.000  H
  C108     1.0000 0.71340  0.89894  0.01132  Biso   1.000  C
  C109     1.0000 0.58809  0.83318  0.03750  Biso   1.000  C
  C110     1.0000 0.76599  0.00256  0.66423  Biso   1.000  C
  C111     1.0000 0.22772  0.25525  0.61469  Biso   1.000  C
  C112     1.0000 0.19892  0.12127  0.64192  Biso   1.000  C
  O17      1.0000 0.80711  0.89354  0.03209  Biso   1.000  O
  C113     1.0000 0.67989  0.83138  0.05672  Biso   1.000  C
  H79      1.0000 0.56185  0.78780  0.06628  Biso   1.000  H
  H80      1.0000 0.80536  0.95903  0.64811  Biso   1.000  H
  C114     1.0000 0.80669  0.98473  0.73692  Biso   1.000  C
  H81      1.0000 0.76991  0.05931  0.62800  Biso   1.000  H
  C115     1.0000 0.17965  0.25837  0.67633  Biso   1.000  C
  H82      1.0000 0.25351  0.29996  0.58354  Biso   1.000  H
  H83      1.0000 0.20463  0.07477  0.62960  Biso   1.000  H
  C116     1.0000 0.15080  0.12463  0.70411  Biso   1.000  C
  C117     1.0000 0.84476  0.96000  0.98751  Biso   1.000  C
  H84      1.0000 0.71891  0.78575  0.09931  Biso   1.000  H
  O18      1.0000 0.82306  0.89886  0.78851  Biso   1.000  O
  H85      1.0000 0.86976  0.99851  0.73173  Biso   1.000  H
  H86      1.0000 0.76089  0.02246  0.75614  Biso   1.000  H
  C118     1.0000 0.14022  0.19513  0.71952  Biso   1.000  C
  H87      1.0000 0.17447  0.30503  0.68832  Biso   1.000  H
  H88      1.0000 0.12592  0.07937  0.73521  Biso   1.000  H
  C119     1.0000 0.88610  0.96090  0.92383  Biso   1.000  C
  C120     1.0000 0.84281  0.02331  0.01121  Biso   1.000  C
  C121     1.0000 0.73727  0.87775  0.82170  Biso   1.000  C
  C122     1.0000 0.08392  0.19887  0.78260  Biso   1.000  C
  C123     1.0000 0.92832  0.02352  0.88473  Biso   1.000  C
  H89      1.0000 0.88508  0.91873  0.90743  Biso   1.000  H
  C124     1.0000 0.88786  0.08451  0.97205  Biso   1.000  C
  H90      1.0000 0.81093  0.02380  0.05368  Biso   1.000  H
  H91      1.0000 0.69291  0.92763  0.82772  Biso   1.000  H
  H92      1.0000 0.70158  0.86455  0.78884  Biso   1.000  H
  C125     1.0000 0.76428  0.80356  0.89450  Biso   1.000  C
  N18      1.0000 0.07875  0.26507  0.79911  Biso   1.000  N
  N19      1.0000 0.03791  0.14122  0.81502  Biso   1.000  N
  C126     1.0000 0.93133  0.08685  0.90732  Biso   1.000  C
  H93      1.0000 0.95672  0.02437  0.84070  Biso   1.000  H
  H94      1.0000 0.88964  0.12601  0.98912  Biso   1.000  H
  O19      1.0000 0.80900  0.72813  0.88594  Biso   1.000  O
  H95      1.0000 0.70470  0.79834  0.92101  Biso   1.000  H
  H96      1.0000 0.81017  0.81234  0.92433  Biso   1.000  H
  C127     1.0000 0.01786  0.27115  0.85070  Biso   1.000  C
  C128     1.0000 0.98145  0.15076  0.86793  Biso   1.000  C
  C129     1.0000 0.85614  0.65962  0.95460  Biso   1.000  C
  N20      1.0000 0.96693  0.21634  0.88500  Biso   1.000  N
  C130     1.0000 0.00353  0.34514  0.86904  Biso   1.000  C
  C131     1.0000 0.86705  0.57902  0.95161  Biso   1.000  C
  H97      1.0000 0.92146  0.66401  0.96404  Biso   1.000  H
  H98      1.0000 0.81625  0.66312  0.99552  Biso   1.000  H
  C132     1.0000 0.92772  0.36062  0.91162  Biso   1.000  C
  C133     1.0000 0.05798  0.40151  0.84264  Biso   1.000  C
  O20      1.0000 0.94334  0.56170  0.90864  Biso   1.000  O
  H99      1.0000 0.80477  0.58060  0.93024  Biso   1.000  H
  H100     1.0000 0.88115  0.53269  0.00232  Biso   1.000  H
  C134     1.0000 0.90328  0.43274  0.92610  Biso   1.000  C
  H101     1.0000 0.89128  0.32082  0.93162  Biso   1.000  H
  H102     1.0000 0.11086  0.39132  0.81403  Biso   1.000  H
  C135     1.0000 0.03801  0.47087  0.85661  Biso   1.000  C
  C136     1.0000 0.95985  0.48754  0.89842  Biso   1.000  C
  H103     1.0000 0.84964  0.44361  0.95404  Biso   1.000  H
  H104     1.0000 0.07706  0.50884  0.83811  Biso   1.000  H
