data_image0
_cell_length_a       8.627
_cell_length_b       21.841
_cell_length_c       9.936
_cell_angle_alpha    90
_cell_angle_beta     110.68
_cell_angle_gamma    90

_symmetry_space_group_name_H-M    "P 1"
_symmetry_int_tables_number       1

loop_
  _symmetry_equiv_pos_as_xyz
  'x, y, z'

loop_
  _atom_site_label
  _atom_site_occupancy
  _atom_site_fract_x
  _atom_site_fract_y
  _atom_site_fract_z
  _atom_site_thermal_displace_type
  _atom_site_B_iso_or_equiv
  _atom_site_type_symbol
  C1       1.0000 0.86701  0.47539  0.72323  Biso   1.000  C
  C2       1.0000 0.71313  0.50703  0.68687  Biso   1.000  C
  H1       1.0000 0.87984  0.43322  0.71828  Biso   1.000  H
  C3       1.0000 0.99284  0.51742  0.76669  Biso   1.000  C
  C4       1.0000 0.74718  0.56742  0.71075  Biso   1.000  C
  H2       1.0000 0.60835  0.48940  0.65298  Biso   1.000  H
  N1       1.0000 0.91834  0.57360  0.75851  Biso   1.000  N
  C5       1.0000 0.17814  0.51069  0.80219  Biso   1.000  C
  C6       1.0000 0.63808  0.62209  0.69730  Biso   1.000  C
  H3       1.0000 0.96899  0.61330  0.77702  Biso   1.000  H
  C7       1.0000 0.21753  0.52031  0.66363  Biso   1.000  C
  C8       1.0000 0.27359  0.55954  0.91375  Biso   1.000  C
  C9       1.0000 0.23549  0.44783  0.86340  Biso   1.000  C
  C10      1.0000 0.55786  0.64498  0.54422  Biso   1.000  C
  C11      1.0000 0.61323  0.64777  0.81090  Biso   1.000  C
  H4       1.0000 0.33527  0.51980  0.68665  Biso   1.000  H
  H5       1.0000 0.17383  0.55909  0.62146  Biso   1.000  H
  H6       1.0000 0.16767  0.48812  0.59661  Biso   1.000  H
  H7       1.0000 0.24168  0.55698  0.99690  Biso   1.000  H
  H8       1.0000 0.24776  0.59961  0.87190  Biso   1.000  H
  H9       1.0000 0.39056  0.55240  0.94172  Biso   1.000  H
  C12      1.0000 0.28205  0.39669  0.80746  Biso   1.000  C
  N2       1.0000 0.26142  0.43464  0.00411  Biso   1.000  N
  H10      1.0000 0.51832  0.61069  0.48065  Biso   1.000  H
  H11      1.0000 0.63769  0.66741  0.51679  Biso   1.000  H
  H12      1.0000 0.46654  0.67131  0.53831  Biso   1.000  H
  C13      1.0000 0.67396  0.62355  0.95850  Biso   1.000  C
  C14      1.0000 0.50903  0.70551  0.79466  Biso   1.000  C
  H13      1.0000 0.27808  0.39188  0.71333  Biso   1.000  H
  C15      1.0000 0.33725  0.35278  0.91751  Biso   1.000  C
  C16      1.0000 0.32603  0.37645  0.04155  Biso   1.000  C
  H14      1.0000 0.24601  0.45850  0.06424  Biso   1.000  H
  N3       1.0000 0.73857  0.56536  0.99593  Biso   1.000  N
  C17      1.0000 0.66274  0.64722  0.08253  Biso   1.000  C
  H15      1.0000 0.40687  0.69562  0.80768  Biso   1.000  H
  H16      1.0000 0.56890  0.73499  0.86577  Biso   1.000  H
  H17      1.0000 0.48577  0.72240  0.70042  Biso   1.000  H
  H18      1.0000 0.37534  0.31381  0.90772  Biso   1.000  H
  C18      1.0000 0.38676  0.35223  0.18914  Biso   1.000  C
  H19      1.0000 0.75398  0.54150  0.93580  Biso   1.000  H
  C19      1.0000 0.76450  0.55217  0.13664  Biso   1.000  C
  C20      1.0000 0.71789  0.60331  0.19247  Biso   1.000  C
  H20      1.0000 0.62465  0.68619  0.09232  Biso   1.000  H
  C21      1.0000 0.36186  0.37791  0.30263  Biso   1.000  C
  C22      1.0000 0.49092  0.29449  0.20528  Biso   1.000  C
  C23      1.0000 0.82185  0.48931  0.19785  Biso   1.000  C
  H21      1.0000 0.72191  0.60812  0.28671  Biso   1.000  H
  C24      1.0000 0.44225  0.35502  0.45582  Biso   1.000  C
  C25      1.0000 0.25281  0.43258  0.28929  Biso   1.000  C
  H22      1.0000 0.59312  0.30438  0.19237  Biso   1.000  H
  H23      1.0000 0.43105  0.26501  0.13417  Biso   1.000  H
  H24      1.0000 0.51422  0.27760  0.29962  Biso   1.000  H
  C26      1.0000 0.78246  0.47969  0.33641  Biso   1.000  C
  C27      1.0000 0.72636  0.44046  0.08619  Biso   1.000  C
  C28      1.0000 0.00722  0.48258  0.23325  Biso   1.000  C
  H25      1.0000 0.48163  0.38931  0.51929  Biso   1.000  H
  H26      1.0000 0.36230  0.33259  0.48325  Biso   1.000  H
  H27      1.0000 0.53345  0.32869  0.46174  Biso   1.000  H
  N4       1.0000 0.08165  0.42640  0.24153  Biso   1.000  N
  C29      1.0000 0.28694  0.49297  0.31307  Biso   1.000  C
  H28      1.0000 0.66467  0.48020  0.31328  Biso   1.000  H
  H29      1.0000 0.82612  0.44091  0.37847  Biso   1.000  H
  H30      1.0000 0.83233  0.51188  0.40343  Biso   1.000  H
  H31      1.0000 0.75831  0.44302  0.00314  Biso   1.000  H
  H32      1.0000 0.75235  0.40039  0.12814  Biso   1.000  H
  H33      1.0000 0.60943  0.44760  0.05833  Biso   1.000  H
  C30      1.0000 0.13298  0.52461  0.27681  Biso   1.000  C
  H34      1.0000 0.03100  0.38670  0.22303  Biso   1.000  H
  H35      1.0000 0.39176  0.51060  0.34706  Biso   1.000  H
  H36      1.0000 0.12015  0.56678  0.28176  Biso   1.000  H
  N5       1.0000 0.08171  0.07358  0.74152  Biso   1.000  N
  C31      1.0000 0.00717  0.01744  0.73323  Biso   1.000  C
  C32      1.0000 0.25275  0.06744  0.78928  Biso   1.000  C
  H37      1.0000 0.03106  0.11332  0.72301  Biso   1.000  H
  C33      1.0000 0.82191  0.01067  0.69784  Biso   1.000  C
  C34      1.0000 0.13304  0.97537  0.77680  Biso   1.000  C
  C35      1.0000 0.28688  0.00705  0.81306  Biso   1.000  C
  C36      1.0000 0.36192  0.12206  0.80262  Biso   1.000  C
  C37      1.0000 0.72642  0.05957  0.58618  Biso   1.000  C
  C38      1.0000 0.78252  0.02033  0.83640  Biso   1.000  C
  C39      1.0000 0.76444  0.94785  0.63663  Biso   1.000  C
  H38      1.0000 0.12010  0.93320  0.78175  Biso   1.000  H
  H39      1.0000 0.39170  0.98938  0.84705  Biso   1.000  H
  C40      1.0000 0.44220  0.14496  0.95581  Biso   1.000  C
  C41      1.0000 0.38682  0.14775  0.68913  Biso   1.000  C
  H40      1.0000 0.75837  0.05700  0.50313  Biso   1.000  H
  H41      1.0000 0.75229  0.09958  0.62813  Biso   1.000  H
  H42      1.0000 0.60937  0.05238  0.55832  Biso   1.000  H
  H43      1.0000 0.66474  0.01978  0.81327  Biso   1.000  H
  H44      1.0000 0.82606  0.05911  0.87846  Biso   1.000  H
  H45      1.0000 0.83227  0.98810  0.90342  Biso   1.000  H
  C42      1.0000 0.71784  0.89666  0.69246  Biso   1.000  C
  N6       1.0000 0.73851  0.93462  0.49592  Biso   1.000  N
  H46      1.0000 0.36236  0.16739  0.98324  Biso   1.000  H
  H47      1.0000 0.53351  0.17128  0.96172  Biso   1.000  H
  H48      1.0000 0.48169  0.11071  0.01928  Biso   1.000  H
  C43      1.0000 0.32609  0.12357  0.54154  Biso   1.000  C
  C44      1.0000 0.49098  0.20553  0.70526  Biso   1.000  C
  H49      1.0000 0.72185  0.89190  0.78670  Biso   1.000  H
  C45      1.0000 0.66269  0.85275  0.58252  Biso   1.000  C
  C46      1.0000 0.67390  0.87643  0.45849  Biso   1.000  C
  H50      1.0000 0.75404  0.95852  0.43579  Biso   1.000  H
  C47      1.0000 0.33731  0.14725  0.41750  Biso   1.000  C
  N7       1.0000 0.26148  0.06538  0.50410  Biso   1.000  N
  H51      1.0000 0.59302  0.19560  0.69225  Biso   1.000  H
  H52      1.0000 0.43111  0.23502  0.63416  Biso   1.000  H
  H53      1.0000 0.51417  0.22238  0.79961  Biso   1.000  H
  H54      1.0000 0.62471  0.81379  0.59231  Biso   1.000  H
  C48      1.0000 0.61318  0.85225  0.31089  Biso   1.000  C
  C49      1.0000 0.28212  0.10334  0.30745  Biso   1.000  C
  H55      1.0000 0.37529  0.18621  0.40771  Biso   1.000  H
  C50      1.0000 0.23555  0.05215  0.36339  Biso   1.000  C
  H56      1.0000 0.24607  0.04148  0.56423  Biso   1.000  H
  C51      1.0000 0.63807  0.87794  0.19740  Biso   1.000  C
  C52      1.0000 0.50897  0.79447  0.29465  Biso   1.000  C
  H57      1.0000 0.27814  0.10810  0.21332  Biso   1.000  H
  C53      1.0000 0.17808  0.98933  0.30218  Biso   1.000  C
  C54      1.0000 0.55780  0.85504  0.04421  Biso   1.000  C
  C55      1.0000 0.74724  0.93256  0.21074  Biso   1.000  C
  H58      1.0000 0.40693  0.80440  0.30767  Biso   1.000  H
  H59      1.0000 0.56884  0.76498  0.36576  Biso   1.000  H
  H60      1.0000 0.48583  0.77762  0.20041  Biso   1.000  H
  C56      1.0000 0.99278  0.98256  0.26668  Biso   1.000  C
  C57      1.0000 0.21747  0.97967  0.16362  Biso   1.000  C
  C58      1.0000 0.27357  0.94043  0.41384  Biso   1.000  C
  H61      1.0000 0.51826  0.88929  0.98064  Biso   1.000  H
  H62      1.0000 0.63764  0.83261  0.01678  Biso   1.000  H
  H63      1.0000 0.46649  0.82872  0.03830  Biso   1.000  H
  C59      1.0000 0.71311  0.99295  0.18697  Biso   1.000  C
  N8       1.0000 0.91829  0.92642  0.25850  Biso   1.000  N
  C60      1.0000 0.86696  0.02463  0.22322  Biso   1.000  C
  H64      1.0000 0.33538  0.98022  0.18675  Biso   1.000  H
  H65      1.0000 0.17389  0.94089  0.12145  Biso   1.000  H
  H66      1.0000 0.16773  0.01190  0.09660  Biso   1.000  H
  H67      1.0000 0.24174  0.94300  0.49689  Biso   1.000  H
  H68      1.0000 0.24770  0.90042  0.37189  Biso   1.000  H
  H69      1.0000 0.39062  0.94762  0.44170  Biso   1.000  H
  H70      1.0000 0.60830  0.01062  0.15297  Biso   1.000  H
  H71      1.0000 0.96905  0.88668  0.27701  Biso   1.000  H
  H72      1.0000 0.87990  0.06680  0.21827  Biso   1.000  H
