data_image0
_cell_length_a       22.478
_cell_length_b       22.478
_cell_length_c       7.476
_cell_angle_alpha    90
_cell_angle_beta     90
_cell_angle_gamma    120

_symmetry_space_group_name_H-M    "P 1"
_symmetry_int_tables_number       1

loop_
  _symmetry_equiv_pos_as_xyz
  'x, y, z'

loop_
  _atom_site_label
  _atom_site_occupancy
  _atom_site_fract_x
  _atom_site_fract_y
  _atom_site_fract_z
  _atom_site_thermal_displace_type
  _atom_site_B_iso_or_equiv
  _atom_site_type_symbol
  C1       1.0000 0.51742  0.42642  0.51966  Biso   1.000  C
  C2       1.0000 0.47678  0.39391  0.66627  Biso   1.000  C
  C3       1.0000 0.57819  0.48781  0.53973  Biso   1.000  C
  H1       1.0000 0.50368  0.40588  0.40329  Biso   1.000  H
  C4       1.0000 0.40768  0.33159  0.64393  Biso   1.000  C
  C5       1.0000 0.49889  0.42468  0.82999  Biso   1.000  C
  C6       1.0000 0.60027  0.51658  0.70586  Biso   1.000  C
  H2       1.0000 0.60592  0.51062  0.43700  Biso   1.000  H
  N1       1.0000 0.40529  0.26738  0.71308  Biso   1.000  N
  H3       1.0000 0.37429  0.33822  0.70746  Biso   1.000  H
  H4       1.0000 0.39518  0.32528  0.51966  Biso   1.000  H
  C7       1.0000 0.56168  0.48540  0.84831  Biso   1.000  C
  H5       1.0000 0.46951  0.40552  0.93218  Biso   1.000  H
  C8       1.0000 0.66231  0.58701  0.72552  Biso   1.000  C
  C9       1.0000 0.34511  0.20111  0.64941  Biso   1.000  C
  H6       1.0000 0.43631  0.26651  0.71281  Biso   1.000  H
  H7       1.0000 0.40471  0.27298  0.83895  Biso   1.000  H
  H8       1.0000 0.57869  0.50420  0.96495  Biso   1.000  H
  N2       1.0000 0.72782  0.59132  0.66346  Biso   1.000  N
  H9       1.0000 0.65499  0.61988  0.66145  Biso   1.000  H
  H10      1.0000 0.66737  0.59918  0.84992  Biso   1.000  H
  C10      1.0000 0.27940  0.20040  0.69997  Biso   1.000  C
  C11      1.0000 0.34689  0.13901  0.72124  Biso   1.000  C
  H11      1.0000 0.35090  0.20389  0.51351  Biso   1.000  H
  H12      1.0000 0.72468  0.55408  0.67723  Biso   1.000  H
  H13      1.0000 0.72967  0.59148  0.55524  Biso   1.000  H
  C12      1.0000 0.79213  0.65312  0.72124  Biso   1.000  C
  H14      1.0000 0.27929  0.23861  0.64312  Biso   1.000  H
  H15      1.0000 0.27861  0.20630  0.82705  Biso   1.000  H
  C13      1.0000 0.21529  0.13341  0.64205  Biso   1.000  C
  N3       1.0000 0.40871  0.13649  0.66346  Biso   1.000  N
  H16      1.0000 0.34827  0.14178  0.84938  Biso   1.000  H
  C14      1.0000 0.28162  0.07192  0.66667  Biso   1.000  C
  H17      1.0000 0.79350  0.65168  0.84938  Biso   1.000  H
  C15      1.0000 0.85602  0.65492  0.64941  Biso   1.000  C
  C16      1.0000 0.79029  0.71841  0.66667  Biso   1.000  C
  H18      1.0000 0.21190  0.13027  0.51404  Biso   1.000  H
  H19      1.0000 0.17539  0.13341  0.68780  Biso   1.000  H
  C17      1.0000 0.21673  0.07212  0.71362  Biso   1.000  C
  H20      1.0000 0.44592  0.17060  0.67723  Biso   1.000  H
  H21      1.0000 0.40849  0.13819  0.55524  Biso   1.000  H
  C18      1.0000 0.41300  0.07531  0.72552  Biso   1.000  C
  H22      1.0000 0.28169  0.03380  0.72432  Biso   1.000  H
  H23      1.0000 0.28221  0.06570  0.53973  Biso   1.000  H
  N4       1.0000 0.86209  0.59471  0.71308  Biso   1.000  N
  H24      1.0000 0.85299  0.64911  0.51351  Biso   1.000  H
  C19      1.0000 0.92099  0.72062  0.69997  Biso   1.000  C
  C20      1.0000 0.85539  0.78329  0.71362  Biso   1.000  C
  H25      1.0000 0.75212  0.71831  0.72432  Biso   1.000  H
  H26      1.0000 0.78349  0.71780  0.53973  Biso   1.000  H
  H27      1.0000 0.17782  0.03062  0.67135  Biso   1.000  H
  H28      1.0000 0.21371  0.07259  0.84163  Biso   1.000  H
  H29      1.0000 0.38008  0.03509  0.66145  Biso   1.000  H
  H30      1.0000 0.40082  0.06822  0.84992  Biso   1.000  H
  C21      1.0000 0.48338  0.08368  0.70586  Biso   1.000  C
  H31      1.0000 0.83020  0.56369  0.71281  Biso   1.000  H
  H32      1.0000 0.86829  0.59528  0.83895  Biso   1.000  H
  C22      1.0000 0.92392  0.59230  0.64393  Biso   1.000  C
  H33      1.0000 0.95930  0.72072  0.64312  Biso   1.000  H
  H34      1.0000 0.92770  0.72139  0.82705  Biso   1.000  H
  C23      1.0000 0.91810  0.78468  0.64205  Biso   1.000  C
  H35      1.0000 0.85281  0.82218  0.67135  Biso   1.000  H
  H36      1.0000 0.85891  0.78632  0.84163  Biso   1.000  H
  C24      1.0000 0.51220  0.09041  0.53973  Biso   1.000  C
  C25      1.0000 0.51461  0.07628  0.84831  Biso   1.000  C
  H37      1.0000 0.96388  0.62569  0.70746  Biso   1.000  H
  H38      1.0000 0.93007  0.60478  0.51966  Biso   1.000  H
  C26      1.0000 0.91709  0.52321  0.66627  Biso   1.000  C
  H39      1.0000 0.91840  0.78812  0.51404  Biso   1.000  H
  H40      1.0000 0.95799  0.82460  0.68780  Biso   1.000  H
  H41      1.0000 0.48941  0.09529  0.43700  Biso   1.000  H
  C27      1.0000 0.57360  0.09098  0.51966  Biso   1.000  C
  H42      1.0000 0.49578  0.07449  0.96495  Biso   1.000  H
  C28      1.0000 0.57530  0.07418  0.82999  Biso   1.000  C
  C29      1.0000 0.92580  0.50112  0.82999  Biso   1.000  C
  C30      1.0000 0.90903  0.48262  0.51966  Biso   1.000  C
  C31      1.0000 0.60610  0.08291  0.66627  Biso   1.000  C
  H43      1.0000 0.59410  0.09781  0.40329  Biso   1.000  H
  H44      1.0000 0.59451  0.06401  0.93218  Biso   1.000  H
  C32      1.0000 0.92370  0.43829  0.84831  Biso   1.000  C
  H45      1.0000 0.93600  0.53050  0.93218  Biso   1.000  H
  C33      1.0000 0.90958  0.42180  0.53973  Biso   1.000  C
  H46      1.0000 0.90221  0.49629  0.40329  Biso   1.000  H
  C34      1.0000 0.66839  0.07608  0.64393  Biso   1.000  C
  C35      1.0000 0.91629  0.39971  0.70586  Biso   1.000  C
  H47      1.0000 0.92548  0.42129  0.96495  Biso   1.000  H
  H48      1.0000 0.90473  0.39411  0.43700  Biso   1.000  H
  N5       1.0000 0.73261  0.13788  0.71308  Biso   1.000  N
  H49      1.0000 0.66180  0.03611  0.70746  Biso   1.000  H
  H50      1.0000 0.67469  0.06991  0.51966  Biso   1.000  H
  C36      1.0000 0.92470  0.33771  0.72552  Biso   1.000  C
  H51      1.0000 0.73348  0.16978  0.71281  Biso   1.000  H
  H52      1.0000 0.72699  0.13171  0.83895  Biso   1.000  H
  C37      1.0000 0.79888  0.14399  0.64941  Biso   1.000  C
  N6       1.0000 0.86348  0.27221  0.66346  Biso   1.000  N
  H53      1.0000 0.96492  0.34500  0.66145  Biso   1.000  H
  H54      1.0000 0.93182  0.33262  0.84992  Biso   1.000  H
  C38      1.0000 0.86100  0.20790  0.72124  Biso   1.000  C
  H55      1.0000 0.79613  0.14702  0.51351  Biso   1.000  H
  C39      1.0000 0.79962  0.07901  0.69997  Biso   1.000  C
  H56      1.0000 0.82939  0.27529  0.67723  Biso   1.000  H
  H57      1.0000 0.86182  0.27031  0.55524  Biso   1.000  H
  H58      1.0000 0.85821  0.20651  0.84938  Biso   1.000  H
  C40      1.0000 0.92810  0.20969  0.66667  Biso   1.000  C
  H59      1.0000 0.76138  0.04069  0.64312  Biso   1.000  H
  H60      1.0000 0.79368  0.07228  0.82705  Biso   1.000  H
  C41      1.0000 0.86659  0.08188  0.64205  Biso   1.000  C
  C42      1.0000 0.92790  0.14461  0.71362  Biso   1.000  C
  H61      1.0000 0.96620  0.24791  0.72432  Biso   1.000  H
  H62      1.0000 0.93431  0.21653  0.53973  Biso   1.000  H
  H63      1.0000 0.86969  0.08158  0.51404  Biso   1.000  H
  H64      1.0000 0.86659  0.04202  0.68780  Biso   1.000  H
  H65      1.0000 0.96940  0.14718  0.67135  Biso   1.000  H
  H66      1.0000 0.92739  0.14111  0.84163  Biso   1.000  H
  C43      1.0000 0.42642  0.51740  0.48034  Biso   1.000  C
  C44      1.0000 0.39389  0.47682  0.33373  Biso   1.000  C
  C45      1.0000 0.48779  0.57822  0.46027  Biso   1.000  C
  H67      1.0000 0.40590  0.50369  0.59671  Biso   1.000  H
  C46      1.0000 0.33161  0.40767  0.35607  Biso   1.000  C
  C47      1.0000 0.42469  0.49891  0.17001  Biso   1.000  C
  C48      1.0000 0.51659  0.60031  0.29414  Biso   1.000  C
  H68      1.0000 0.51063  0.60591  0.56300  Biso   1.000  H
  N7       1.0000 0.26739  0.40531  0.28692  Biso   1.000  N
  H69      1.0000 0.33818  0.37428  0.29254  Biso   1.000  H
  H70      1.0000 0.32528  0.39519  0.48034  Biso   1.000  H
  C49      1.0000 0.48540  0.56168  0.15169  Biso   1.000  C
  H71      1.0000 0.40551  0.46952  0.06782  Biso   1.000  H
  C50      1.0000 0.58701  0.66232  0.27448  Biso   1.000  C
  C51      1.0000 0.20111  0.34511  0.35059  Biso   1.000  C
  H72      1.0000 0.26650  0.43629  0.28719  Biso   1.000  H
  H73      1.0000 0.27299  0.40469  0.16105  Biso   1.000  H
  H74      1.0000 0.50418  0.57869  0.03505  Biso   1.000  H
  N8       1.0000 0.59128  0.72781  0.33654  Biso   1.000  N
  H75      1.0000 0.61993  0.65502  0.33855  Biso   1.000  H
  H76      1.0000 0.59921  0.66740  0.15008  Biso   1.000  H
  C52      1.0000 0.20038  0.27940  0.30003  Biso   1.000  C
  C53      1.0000 0.13902  0.34690  0.27876  Biso   1.000  C
  H77      1.0000 0.20388  0.35091  0.48649  Biso   1.000  H
  H78      1.0000 0.55408  0.72468  0.32277  Biso   1.000  H
  H79      1.0000 0.59152  0.72971  0.44476  Biso   1.000  H
  C54      1.0000 0.65309  0.79208  0.27876  Biso   1.000  C
  H80      1.0000 0.23859  0.27930  0.35688  Biso   1.000  H
  H81      1.0000 0.20629  0.27858  0.17295  Biso   1.000  H
  C55      1.0000 0.13340  0.21529  0.35795  Biso   1.000  C
  N9       1.0000 0.13651  0.40870  0.33654  Biso   1.000  N
  H82      1.0000 0.14180  0.34829  0.15062  Biso   1.000  H
  C56      1.0000 0.07189  0.28161  0.33333  Biso   1.000  C
  H83      1.0000 0.65172  0.79352  0.15062  Biso   1.000  H
  C57      1.0000 0.65488  0.85598  0.35059  Biso   1.000  C
  C58      1.0000 0.71839  0.79028  0.33333  Biso   1.000  C
  H84      1.0000 0.13029  0.21190  0.48596  Biso   1.000  H
  H85      1.0000 0.13338  0.17538  0.31220  Biso   1.000  H
  C59      1.0000 0.07208  0.21668  0.28638  Biso   1.000  C
  H86      1.0000 0.17058  0.44589  0.32277  Biso   1.000  H
  H87      1.0000 0.13818  0.40850  0.44476  Biso   1.000  H
  C60      1.0000 0.07531  0.41302  0.27448  Biso   1.000  C
  H88      1.0000 0.03382  0.28171  0.27568  Biso   1.000  H
  H89      1.0000 0.06568  0.28218  0.46027  Biso   1.000  H
  N10      1.0000 0.59472  0.86210  0.28692  Biso   1.000  N
  H90      1.0000 0.64912  0.85300  0.48649  Biso   1.000  H
  C61      1.0000 0.72063  0.92102  0.30003  Biso   1.000  C
  C62      1.0000 0.78330  0.85542  0.28638  Biso   1.000  C
  H91      1.0000 0.71830  0.75211  0.27568  Biso   1.000  H
  H92      1.0000 0.71780  0.78350  0.46027  Biso   1.000  H
  H93      1.0000 0.03062  0.17779  0.32865  Biso   1.000  H
  H94      1.0000 0.07259  0.21370  0.15837  Biso   1.000  H
  H95      1.0000 0.03509  0.38009  0.33855  Biso   1.000  H
  H96      1.0000 0.06818  0.40079  0.15008  Biso   1.000  H
  C63      1.0000 0.08368  0.48339  0.29414  Biso   1.000  C
  H97      1.0000 0.56369  0.83019  0.28719  Biso   1.000  H
  H98      1.0000 0.59529  0.86831  0.16105  Biso   1.000  H
  C64      1.0000 0.59230  0.92389  0.35607  Biso   1.000  C
  H99      1.0000 0.72068  0.95929  0.35688  Biso   1.000  H
  H100     1.0000 0.72139  0.92770  0.17295  Biso   1.000  H
  C65      1.0000 0.78470  0.91809  0.35795  Biso   1.000  C
  H101     1.0000 0.82221  0.85280  0.32865  Biso   1.000  H
  H102     1.0000 0.78629  0.85891  0.15837  Biso   1.000  H
  C66      1.0000 0.09039  0.51221  0.46027  Biso   1.000  C
  C67      1.0000 0.07627  0.51458  0.15169  Biso   1.000  C
  H103     1.0000 0.62570  0.96391  0.29254  Biso   1.000  H
  H104     1.0000 0.60479  0.93011  0.48034  Biso   1.000  H
  C68      1.0000 0.52320  0.91711  0.33373  Biso   1.000  C
  H105     1.0000 0.78810  0.91840  0.48596  Biso   1.000  H
  H106     1.0000 0.82458  0.95800  0.31220  Biso   1.000  H
  H107     1.0000 0.09531  0.48940  0.56300  Biso   1.000  H
  C69      1.0000 0.09101  0.57360  0.48034  Biso   1.000  C
  H108     1.0000 0.07450  0.49583  0.03505  Biso   1.000  H
  C70      1.0000 0.07419  0.57530  0.17001  Biso   1.000  C
  C71      1.0000 0.50111  0.92579  0.17001  Biso   1.000  C
  C72      1.0000 0.48261  0.90900  0.48034  Biso   1.000  C
  C73      1.0000 0.08289  0.60612  0.33373  Biso   1.000  C
  H109     1.0000 0.09779  0.59410  0.59671  Biso   1.000  H
  H110     1.0000 0.06400  0.59451  0.06782  Biso   1.000  H
  C74      1.0000 0.43831  0.92369  0.15169  Biso   1.000  C
  H111     1.0000 0.53051  0.93602  0.06782  Biso   1.000  H
  C75      1.0000 0.42180  0.90961  0.46027  Biso   1.000  C
  H112     1.0000 0.49631  0.90222  0.59671  Biso   1.000  H
  C76      1.0000 0.07607  0.66838  0.35607  Biso   1.000  C
  C77      1.0000 0.39969  0.91629  0.29414  Biso   1.000  C
  H113     1.0000 0.42128  0.92549  0.03505  Biso   1.000  H
  H114     1.0000 0.39411  0.90468  0.56300  Biso   1.000  H
  N11      1.0000 0.13789  0.73259  0.28692  Biso   1.000  N
  H115     1.0000 0.03608  0.66180  0.29254  Biso   1.000  H
  H116     1.0000 0.06989  0.67470  0.48034  Biso   1.000  H
  C78      1.0000 0.33770  0.92472  0.27448  Biso   1.000  C
  H117     1.0000 0.16981  0.73352  0.28719  Biso   1.000  H
  H118     1.0000 0.13171  0.72699  0.16105  Biso   1.000  H
  C79      1.0000 0.14401  0.79891  0.35059  Biso   1.000  C
  N12      1.0000 0.27221  0.86348  0.33654  Biso   1.000  N
  H119     1.0000 0.34498  0.96489  0.33855  Biso   1.000  H
  H120     1.0000 0.33262  0.93181  0.15008  Biso   1.000  H
  C80      1.0000 0.20789  0.86102  0.27876  Biso   1.000  C
  H121     1.0000 0.14700  0.79608  0.48649  Biso   1.000  H
  C81      1.0000 0.07899  0.79958  0.30003  Biso   1.000  C
  H122     1.0000 0.27533  0.82942  0.32277  Biso   1.000  H
  H123     1.0000 0.27029  0.86179  0.44476  Biso   1.000  H
  H124     1.0000 0.20648  0.85819  0.15062  Biso   1.000  H
  C82      1.0000 0.20972  0.92811  0.33333  Biso   1.000  C
  H125     1.0000 0.04068  0.76141  0.35688  Biso   1.000  H
  H126     1.0000 0.07232  0.79372  0.17295  Biso   1.000  H
  C83      1.0000 0.08190  0.86662  0.35795  Biso   1.000  C
  C84      1.0000 0.14462  0.92790  0.28638  Biso   1.000  C
  H127     1.0000 0.24790  0.96622  0.27568  Biso   1.000  H
  H128     1.0000 0.21652  0.93432  0.46027  Biso   1.000  H
  H129     1.0000 0.08161  0.86970  0.48596  Biso   1.000  H
  H130     1.0000 0.04199  0.86662  0.31220  Biso   1.000  H
  H131     1.0000 0.14722  0.96941  0.32865  Biso   1.000  H
  H132     1.0000 0.14111  0.92739  0.15837  Biso   1.000  H
