data_image0
_cell_length_a       25.52
_cell_length_b       11.02
_cell_length_c       24.85
_cell_angle_alpha    90
_cell_angle_beta     84.5
_cell_angle_gamma    90

_symmetry_space_group_name_H-M    "P 1"
_symmetry_int_tables_number       1

loop_
  _symmetry_equiv_pos_as_xyz
  'x, y, z'

loop_
  _atom_site_label
  _atom_site_occupancy
  _atom_site_fract_x
  _atom_site_fract_y
  _atom_site_fract_z
  _atom_site_thermal_displace_type
  _atom_site_B_iso_or_equiv
  _atom_site_type_symbol
  C1       1.0000 0.54698  0.25073  0.51100  Biso   1.000  C
  C2       1.0000 0.57708  0.28584  0.45760  Biso   1.000  C
  O1       1.0000 0.56131  0.12949  0.52208  Biso   1.000  O
  H1       1.0000 0.55611  0.30454  0.53959  Biso   1.000  H
  H2       1.0000 0.50941  0.25617  0.50842  Biso   1.000  H
  O2       1.0000 0.63191  0.30091  0.46548  Biso   1.000  O
  H3       1.0000 0.57318  0.22314  0.43092  Biso   1.000  H
  H4       1.0000 0.56310  0.36098  0.44450  Biso   1.000  H
  C3       1.0000 0.52890  0.07786  0.56700  Biso   1.000  C
  C4       1.0000 0.66708  0.31869  0.41952  Biso   1.000  C
  H5       1.0000 0.49279  0.06942  0.55839  Biso   1.000  H
  H6       1.0000 0.52929  0.12868  0.59889  Biso   1.000  H
  C5       1.0000 0.55218  0.95826  0.57621  Biso   1.000  C
  C6       1.0000 0.65219  0.32368  0.36700  Biso   1.000  C
  C7       1.0000 0.71928  0.33049  0.42950  Biso   1.000  C
  O3       1.0000 0.51838  0.88829  0.61341  Biso   1.000  O
  H7       1.0000 0.55799  0.91525  0.54209  Biso   1.000  H
  H8       1.0000 0.58588  0.96906  0.59049  Biso   1.000  H
  C8       1.0000 0.69130  0.33848  0.32451  Biso   1.000  C
  H9       1.0000 0.61701  0.31733  0.36061  Biso   1.000  H
  C9       1.0000 0.75899  0.34673  0.38649  Biso   1.000  C
  H10      1.0000 0.72829  0.32759  0.46480  Biso   1.000  H
  C10      1.0000 0.54631  0.78993  0.63661  Biso   1.000  C
  O4       1.0000 0.68139  0.34292  0.27078  Biso   1.000  O
  C11      1.0000 0.74349  0.35027  0.33389  Biso   1.000  C
  O5       1.0000 0.80948  0.35599  0.39680  Biso   1.000  O
  C12      1.0000 0.55398  0.67650  0.60229  Biso   1.000  C
  H11      1.0000 0.52720  0.76779  0.67090  Biso   1.000  H
  H12      1.0000 0.58058  0.81942  0.64429  Biso   1.000  H
  C13      1.0000 0.62771  0.32250  0.25862  Biso   1.000  C
  H13      1.0000 0.76889  0.36071  0.30478  Biso   1.000  H
  C14      1.0000 0.84899  0.39882  0.36429  Biso   1.000  C
  C15      1.0000 0.83589  0.39301  0.43880  Biso   1.000  C
  O6       1.0000 0.58831  0.70862  0.55438  Biso   1.000  O
  H14      1.0000 0.56990  0.61289  0.62230  Biso   1.000  H
  H15      1.0000 0.52040  0.64746  0.59218  Biso   1.000  H
  C16      1.0000 0.62868  0.32132  0.19858  Biso   1.000  C
  H16      1.0000 0.60489  0.38693  0.27382  Biso   1.000  H
  H17      1.0000 0.61471  0.24574  0.27361  Biso   1.000  H
  C17      1.0000 0.89178  0.42051  0.40678  Biso   1.000  C
  H18      1.0000 0.83978  0.47396  0.34711  Biso   1.000  H
  H19      1.0000 0.86129  0.34029  0.33668  Biso   1.000  H
  H20      1.0000 0.83799  0.32886  0.46540  Biso   1.000  H
  H21      1.0000 0.82028  0.46461  0.45618  Biso   1.000  H
  C18      1.0000 0.59799  0.60390  0.52160  Biso   1.000  C
  O7       1.0000 0.65831  0.21724  0.17800  Biso   1.000  O
  H22      1.0000 0.59310  0.31706  0.18811  Biso   1.000  H
  H23      1.0000 0.64501  0.39501  0.18358  Biso   1.000  H
  O8       1.0000 0.91989  0.30436  0.39441  Biso   1.000  O
  C19      1.0000 0.62998  0.63866  0.46892  Biso   1.000  C
  H24      1.0000 0.56478  0.56806  0.51379  Biso   1.000  H
  H25      1.0000 0.61709  0.54419  0.54072  Biso   1.000  H
  C20      1.0000 0.65208  0.19437  0.12169  Biso   1.000  C
  C21      1.0000 0.97221  0.31642  0.40650  Biso   1.000  C
  O9       1.0000 0.68261  0.66606  0.47939  Biso   1.000  O
  H26      1.0000 0.62998  0.57223  0.44329  Biso   1.000  H
  H27      1.0000 0.61429  0.70889  0.45311  Biso   1.000  H
  C22      1.0000 0.69391  0.10408  0.10050  Biso   1.000  C
  H28      1.0000 0.65598  0.26942  0.10131  Biso   1.000  H
  H29      1.0000 0.61728  0.16180  0.11801  Biso   1.000  H
  H30      1.0000 0.97341  0.32368  0.44531  Biso   1.000  H
  H31      1.0000 0.98771  0.38902  0.38952  Biso   1.000  H
  C23      1.0000 0.00240  0.20789  0.38620  Biso   1.000  C
  C24      1.0000 0.72011  0.68457  0.43698  Biso   1.000  C
  H32      1.0000 0.69350  0.09528  0.06169  Biso   1.000  H
  H33      1.0000 0.72840  0.13339  0.10762  Biso   1.000  H
  O10      1.0000 0.68400  0.98956  0.12609  Biso   1.000  O
  O11      1.0000 0.98601  0.10163  0.41361  Biso   1.000  O
  H34      1.0000 0.99848  0.19782  0.34800  Biso   1.000  H
  H35      1.0000 0.03950  0.22087  0.39000  Biso   1.000  H
  C25      1.0000 0.70901  0.68321  0.38172  Biso   1.000  C
  C26      1.0000 0.77068  0.70417  0.44980  Biso   1.000  C
  C27      1.0000 0.72340  0.90309  0.10782  Biso   1.000  C
  C28      1.0000 0.01428  0.99809  0.39659  Biso   1.000  C
  C29      1.0000 0.75099  0.70018  0.34169  Biso   1.000  C
  H36      1.0000 0.67487  0.67123  0.37250  Biso   1.000  H
  C30      1.0000 0.81148  0.71933  0.40771  Biso   1.000  C
  H37      1.0000 0.77791  0.70762  0.48570  Biso   1.000  H
  C31      1.0000 0.70739  0.78067  0.12949  Biso   1.000  C
  H38      1.0000 0.75689  0.92604  0.12019  Biso   1.000  H
  H39      1.0000 0.72741  0.90100  0.06861  Biso   1.000  H
  C32      1.0000 0.00008  0.89274  0.43160  Biso   1.000  C
  H40      1.0000 0.00741  0.97904  0.35981  Biso   1.000  H
  H41      1.0000 0.05158  0.01434  0.39659  Biso   1.000  H
  O12      1.0000 0.74461  0.70000  0.28659  Biso   1.000  O
  C33      1.0000 0.80161  0.71897  0.35390  Biso   1.000  C
  O13      1.0000 0.86328  0.73367  0.41572  Biso   1.000  O
  O14      1.0000 0.70711  0.78094  0.18750  Biso   1.000  O
  H42      1.0000 0.67259  0.76071  0.11950  Biso   1.000  H
  H43      1.0000 0.73191  0.71978  0.11401  Biso   1.000  H
  O15      1.0000 0.94978  0.86624  0.43900  Biso   1.000  O
  H44      1.0000 0.01879  0.82223  0.41628  Biso   1.000  H
  H45      1.0000 0.01260  0.90762  0.46670  Biso   1.000  H
  C34      1.0000 0.69421  0.66960  0.27070  Biso   1.000  C
  H46      1.0000 0.82869  0.73122  0.32661  Biso   1.000  H
  C35      1.0000 0.87818  0.73448  0.46928  Biso   1.000  C
  C36      1.0000 0.69781  0.66370  0.21030  Biso   1.000  C
  C37      1.0000 0.93729  0.75191  0.46492  Biso   1.000  C
  H47      1.0000 0.66858  0.73049  0.28380  Biso   1.000  H
  H48      1.0000 0.68291  0.59183  0.28598  Biso   1.000  H
  H49      1.0000 0.86859  0.65853  0.48731  Biso   1.000  H
  H50      1.0000 0.86070  0.80027  0.48990  Biso   1.000  H
  H51      1.0000 0.72630  0.60971  0.19729  Biso   1.000  H
  H52      1.0000 0.66528  0.63122  0.19898  Biso   1.000  H
  H53      1.0000 0.94959  0.75100  0.50061  Biso   1.000  H
  H54      1.0000 0.95450  0.68648  0.44389  Biso   1.000  H
  C38      1.0000 0.45299  0.74927  0.48901  Biso   1.000  C
  C39      1.0000 0.42289  0.71416  0.54242  Biso   1.000  C
  O16      1.0000 0.43871  0.87051  0.47789  Biso   1.000  O
  H55      1.0000 0.44391  0.69546  0.46039  Biso   1.000  H
  H56      1.0000 0.49060  0.74383  0.49160  Biso   1.000  H
  O17      1.0000 0.36810  0.69909  0.53449  Biso   1.000  O
  H57      1.0000 0.42678  0.77686  0.56910  Biso   1.000  H
  H58      1.0000 0.43691  0.63902  0.55552  Biso   1.000  H
  C40      1.0000 0.47111  0.92214  0.43302  Biso   1.000  C
  C41      1.0000 0.33289  0.68131  0.58050  Biso   1.000  C
  H59      1.0000 0.50718  0.93058  0.44159  Biso   1.000  H
  H60      1.0000 0.47068  0.87132  0.40108  Biso   1.000  H
  C42      1.0000 0.44779  0.04174  0.42380  Biso   1.000  C
  C43      1.0000 0.28069  0.66951  0.57051  Biso   1.000  C
  C44      1.0000 0.34778  0.67632  0.63301  Biso   1.000  C
  O18      1.0000 0.48159  0.11171  0.38661  Biso   1.000  O
  H61      1.0000 0.44198  0.08475  0.45788  Biso   1.000  H
  H62      1.0000 0.41409  0.03094  0.40949  Biso   1.000  H
  C45      1.0000 0.24098  0.65327  0.61349  Biso   1.000  C
  H63      1.0000 0.27168  0.67241  0.53522  Biso   1.000  H
  C46      1.0000 0.30870  0.66152  0.67550  Biso   1.000  C
  H64      1.0000 0.38300  0.68267  0.63940  Biso   1.000  H
  C47      1.0000 0.45370  0.21007  0.36340  Biso   1.000  C
  O19      1.0000 0.19049  0.64401  0.60322  Biso   1.000  O
  C48      1.0000 0.25649  0.64973  0.66608  Biso   1.000  C
  O20      1.0000 0.31858  0.65708  0.72919  Biso   1.000  O
  C49      1.0000 0.44600  0.32350  0.39769  Biso   1.000  C
  H65      1.0000 0.47281  0.23221  0.32908  Biso   1.000  H
  H66      1.0000 0.41939  0.18058  0.35568  Biso   1.000  H
  C50      1.0000 0.16408  0.60699  0.56122  Biso   1.000  C
  C51      1.0000 0.15098  0.60118  0.63568  Biso   1.000  C
  H67      1.0000 0.23108  0.63929  0.69519  Biso   1.000  H
  C52      1.0000 0.37230  0.67750  0.74140  Biso   1.000  C
  O21      1.0000 0.41170  0.29138  0.44559  Biso   1.000  O
  H68      1.0000 0.43011  0.38711  0.37771  Biso   1.000  H
  H69      1.0000 0.47961  0.35254  0.40779  Biso   1.000  H
  C53      1.0000 0.10820  0.57949  0.59319  Biso   1.000  C
  H70      1.0000 0.16198  0.67114  0.53461  Biso   1.000  H
  H71      1.0000 0.17969  0.53539  0.54379  Biso   1.000  H
  H72      1.0000 0.16019  0.52604  0.65291  Biso   1.000  H
  H73      1.0000 0.13868  0.65971  0.66330  Biso   1.000  H
  C54      1.0000 0.37129  0.67868  0.80140  Biso   1.000  C
  H74      1.0000 0.39508  0.61307  0.72620  Biso   1.000  H
  H75      1.0000 0.38530  0.75426  0.72640  Biso   1.000  H
  C55      1.0000 0.40198  0.39610  0.47842  Biso   1.000  C
  O22      1.0000 0.08008  0.69564  0.60560  Biso   1.000  O
  O23      1.0000 0.34170  0.78276  0.82201  Biso   1.000  O
  H76      1.0000 0.40687  0.68294  0.81191  Biso   1.000  H
  H77      1.0000 0.35500  0.60499  0.81639  Biso   1.000  H
  C56      1.0000 0.36999  0.36134  0.53110  Biso   1.000  C
  H78      1.0000 0.43519  0.43194  0.48618  Biso   1.000  H
  H79      1.0000 0.38288  0.45581  0.45930  Biso   1.000  H
  C57      1.0000 0.02780  0.68358  0.59352  Biso   1.000  C
  C58      1.0000 0.34789  0.80563  0.87829  Biso   1.000  C
  O24      1.0000 0.31740  0.33394  0.52059  Biso   1.000  O
  H80      1.0000 0.36999  0.42777  0.55669  Biso   1.000  H
  H81      1.0000 0.38567  0.29111  0.54690  Biso   1.000  H
  H82      1.0000 0.02660  0.67632  0.55471  Biso   1.000  H
  H83      1.0000 0.01230  0.61098  0.61050  Biso   1.000  H
  C59      1.0000 0.99757  0.79211  0.61381  Biso   1.000  C
  C60      1.0000 0.30610  0.89592  0.89951  Biso   1.000  C
  H84      1.0000 0.34398  0.73058  0.89870  Biso   1.000  H
  H85      1.0000 0.38269  0.83820  0.88201  Biso   1.000  H
  C61      1.0000 0.27990  0.31543  0.56299  Biso   1.000  C
  O25      1.0000 0.01400  0.89837  0.58640  Biso   1.000  O
  H86      1.0000 0.00149  0.80218  0.65202  Biso   1.000  H
  H87      1.0000 0.96051  0.77913  0.61001  Biso   1.000  H
  H88      1.0000 0.30647  0.90472  0.93828  Biso   1.000  H
  H89      1.0000 0.27157  0.86661  0.89240  Biso   1.000  H
  O26      1.0000 0.31597  0.01044  0.87388  Biso   1.000  O
  C62      1.0000 0.22929  0.29583  0.55022  Biso   1.000  C
  C63      1.0000 0.29100  0.31679  0.61830  Biso   1.000  C
  C64      1.0000 0.98569  0.00191  0.60338  Biso   1.000  C
  C65      1.0000 0.27657  0.09691  0.89220  Biso   1.000  C
  C66      1.0000 0.18849  0.28067  0.59230  Biso   1.000  C
  H90      1.0000 0.22210  0.29238  0.51432  Biso   1.000  H
  C67      1.0000 0.24899  0.29982  0.65828  Biso   1.000  C
  H91      1.0000 0.32509  0.32877  0.62752  Biso   1.000  H
  H92      1.0000 0.94839  0.98566  0.60338  Biso   1.000  H
  C68      1.0000 0.99989  0.10726  0.56841  Biso   1.000  C
  H93      1.0000 0.99260  0.02096  0.64021  Biso   1.000  H
  C69      1.0000 0.29258  0.21933  0.87049  Biso   1.000  C
  H94      1.0000 0.24309  0.07396  0.87978  Biso   1.000  H
  H95      1.0000 0.27259  0.09900  0.93141  Biso   1.000  H
  O27      1.0000 0.13669  0.26633  0.58430  Biso   1.000  O
  C70      1.0000 0.19840  0.28103  0.64611  Biso   1.000  C
  O28      1.0000 0.25540  0.30000  0.71338  Biso   1.000  O
  H96      1.0000 0.98118  0.17777  0.58369  Biso   1.000  H
  H97      1.0000 0.98737  0.09238  0.53332  Biso   1.000  H
  O29      1.0000 0.05019  0.13376  0.56101  Biso   1.000  O
  O30      1.0000 0.29290  0.21906  0.81251  Biso   1.000  O
  H98      1.0000 0.32738  0.23929  0.88051  Biso   1.000  H
  H99      1.0000 0.26809  0.28022  0.88601  Biso   1.000  H
  C71      1.0000 0.12179  0.26552  0.53069  Biso   1.000  C
  H100     1.0000 0.17128  0.26878  0.67340  Biso   1.000  H
  C72      1.0000 0.30580  0.33040  0.72931  Biso   1.000  C
  C73      1.0000 0.06268  0.24809  0.53510  Biso   1.000  C
  C74      1.0000 0.30220  0.33630  0.78971  Biso   1.000  C
  H101     1.0000 0.13138  0.34147  0.51270  Biso   1.000  H
  H102     1.0000 0.13930  0.19973  0.51012  Biso   1.000  H
  H103     1.0000 0.33139  0.26951  0.71621  Biso   1.000  H
  H104     1.0000 0.31710  0.40817  0.71399  Biso   1.000  H
  H105     1.0000 0.05037  0.24900  0.49940  Biso   1.000  H
  H106     1.0000 0.04548  0.31352  0.55608  Biso   1.000  H
  H107     1.0000 0.27367  0.39029  0.80269  Biso   1.000  H
  H108     1.0000 0.33469  0.36878  0.80099  Biso   1.000  H
  C75      1.0000 0.65209  0.30563  0.62170  Biso   1.000  C
  O31      1.0000 0.65827  0.28276  0.67801  Biso   1.000  O
  C76      1.0000 0.69388  0.39592  0.60051  Biso   1.000  C
  H109     1.0000 0.65599  0.23058  0.60132  Biso   1.000  H
  H110     1.0000 0.61728  0.33820  0.61802  Biso   1.000  H
  C77      1.0000 0.62869  0.17868  0.69859  Biso   1.000  C
  O32      1.0000 0.68400  0.51044  0.62610  Biso   1.000  O
  H111     1.0000 0.69350  0.40472  0.56170  Biso   1.000  H
  H112     1.0000 0.72840  0.36661  0.60759  Biso   1.000  H
  H113     1.0000 0.59311  0.18294  0.68812  Biso   1.000  H
  H114     1.0000 0.64498  0.10499  0.68359  Biso   1.000  H
  C78      1.0000 0.62767  0.17750  0.75858  Biso   1.000  C
  C79      1.0000 0.72341  0.59691  0.60779  Biso   1.000  C
  O33      1.0000 0.68139  0.15708  0.77079  Biso   1.000  O
  H115     1.0000 0.60490  0.11307  0.77378  Biso   1.000  H
  H116     1.0000 0.61468  0.25426  0.77358  Biso   1.000  H
  C80      1.0000 0.70739  0.71933  0.62950  Biso   1.000  C
  H117     1.0000 0.75689  0.57396  0.62020  Biso   1.000  H
  H118     1.0000 0.72738  0.59900  0.56861  Biso   1.000  H
  C81      1.0000 0.69127  0.16152  0.82452  Biso   1.000  C
  O34      1.0000 0.70707  0.71906  0.68751  Biso   1.000  O
  H119     1.0000 0.67259  0.73929  0.61951  Biso   1.000  H
  H120     1.0000 0.73188  0.78022  0.61401  Biso   1.000  H
  C82      1.0000 0.65219  0.17632  0.86701  Biso   1.000  C
  C83      1.0000 0.74349  0.14973  0.83390  Biso   1.000  C
  C84      1.0000 0.69777  0.83630  0.71031  Biso   1.000  C
  C85      1.0000 0.66708  0.18131  0.91948  Biso   1.000  C
  H121     1.0000 0.61698  0.18267  0.86058  Biso   1.000  H
  H122     1.0000 0.76889  0.13929  0.80479  Biso   1.000  H
  C86      1.0000 0.75900  0.15327  0.88650  Biso   1.000  C
  C87      1.0000 0.69417  0.83040  0.77071  Biso   1.000  C
  H123     1.0000 0.72630  0.89029  0.69729  Biso   1.000  H
  H124     1.0000 0.66529  0.86878  0.69899  Biso   1.000  H
  O35      1.0000 0.63187  0.19909  0.96549  Biso   1.000  O
  C88      1.0000 0.71928  0.16951  0.92951  Biso   1.000  C
  O36      1.0000 0.80948  0.14401  0.89680  Biso   1.000  O
  O37      1.0000 0.74457  0.80000  0.78660  Biso   1.000  O
  H125     1.0000 0.66858  0.76951  0.78381  Biso   1.000  H
  H126     1.0000 0.68287  0.90817  0.78599  Biso   1.000  H
  C89      1.0000 0.57708  0.21416  0.95761  Biso   1.000  C
  H127     1.0000 0.72829  0.17241  0.96480  Biso   1.000  H
  C90      1.0000 0.84900  0.10118  0.86430  Biso   1.000  C
  C91      1.0000 0.83589  0.10699  0.93881  Biso   1.000  C
  C92      1.0000 0.75099  0.79982  0.84170  Biso   1.000  C
  H128     1.0000 0.57319  0.27686  0.93089  Biso   1.000  H
  H129     1.0000 0.56306  0.13902  0.94451  Biso   1.000  H
  C93      1.0000 0.54702  0.24927  0.01101  Biso   1.000  C
  C94      1.0000 0.89178  0.07949  0.90679  Biso   1.000  C
  H130     1.0000 0.83979  0.02604  0.84712  Biso   1.000  H
  H131     1.0000 0.86129  0.15971  0.83669  Biso   1.000  H
  H132     1.0000 0.83799  0.17114  0.96541  Biso   1.000  H
  H133     1.0000 0.82028  0.03539  0.95619  Biso   1.000  H
  C95      1.0000 0.70897  0.81679  0.88168  Biso   1.000  C
  C96      1.0000 0.80157  0.78103  0.85391  Biso   1.000  C
  O38      1.0000 0.56131  0.37051  0.02213  Biso   1.000  O
  H134     1.0000 0.55611  0.19546  0.03964  Biso   1.000  H
  H135     1.0000 0.50941  0.24383  0.00843  Biso   1.000  H
  O39      1.0000 0.91989  0.19564  0.89442  Biso   1.000  O
  C97      1.0000 0.72007  0.81543  0.93699  Biso   1.000  C
  H136     1.0000 0.67488  0.82877  0.87251  Biso   1.000  H
  H137     1.0000 0.82869  0.76878  0.82658  Biso   1.000  H
  C98      1.0000 0.81148  0.78067  0.90772  Biso   1.000  C
  C99      1.0000 0.52890  0.42214  0.06700  Biso   1.000  C
  C100     1.0000 0.97218  0.18358  0.90651  Biso   1.000  C
  O40      1.0000 0.68257  0.83394  0.97940  Biso   1.000  O
  C101     1.0000 0.77068  0.79583  0.94981  Biso   1.000  C
  O41      1.0000 0.86329  0.76633  0.91568  Biso   1.000  O
  C102     1.0000 0.55222  0.54174  0.07622  Biso   1.000  C
  H138     1.0000 0.49279  0.43058  0.05843  Biso   1.000  H
  H139     1.0000 0.52930  0.37132  0.09890  Biso   1.000  H
  H140     1.0000 0.97337  0.17632  0.94532  Biso   1.000  H
  H141     1.0000 0.98767  0.11098  0.88949  Biso   1.000  H
  C103     1.0000 0.00240  0.29211  0.88621  Biso   1.000  C
  C104     1.0000 0.62999  0.86134  0.96889  Biso   1.000  C
  H142     1.0000 0.77787  0.79238  0.98570  Biso   1.000  H
  C105     1.0000 0.87819  0.76552  0.96929  Biso   1.000  C
  O42      1.0000 0.51842  0.61171  0.11342  Biso   1.000  O
  H143     1.0000 0.55799  0.58475  0.04210  Biso   1.000  H
  H144     1.0000 0.58592  0.53094  0.09053  Biso   1.000  H
  O43      1.0000 0.98597  0.39837  0.91358  Biso   1.000  O
  H145     1.0000 0.99848  0.30218  0.84801  Biso   1.000  H
  H146     1.0000 0.03947  0.27913  0.89001  Biso   1.000  H
  H147     1.0000 0.62999  0.92777  0.94330  Biso   1.000  H
  H148     1.0000 0.61430  0.79111  0.95312  Biso   1.000  H
  C106     1.0000 0.59799  0.89610  0.02160  Biso   1.000  C
  H149     1.0000 0.86859  0.84147  0.98728  Biso   1.000  H
  H150     1.0000 0.86067  0.69973  0.98991  Biso   1.000  H
  C107     1.0000 0.93730  0.74809  0.96488  Biso   1.000  C
  C108     1.0000 0.54631  0.71007  0.13662  Biso   1.000  C
  C109     1.0000 0.01428  0.50191  0.89660  Biso   1.000  C
  O44      1.0000 0.58831  0.79138  0.05443  Biso   1.000  O
  H151     1.0000 0.56483  0.93194  0.01380  Biso   1.000  H
  H152     1.0000 0.61709  0.95581  0.04073  Biso   1.000  H
  O45      1.0000 0.94978  0.63376  0.93901  Biso   1.000  O
  H153     1.0000 0.95450  0.81352  0.94390  Biso   1.000  H
  H154     1.0000 0.94960  0.74900  0.00062  Biso   1.000  H
  C110     1.0000 0.55402  0.82350  0.10230  Biso   1.000  C
  H155     1.0000 0.52720  0.73221  0.17090  Biso   1.000  H
  H156     1.0000 0.58062  0.68058  0.14430  Biso   1.000  H
  C111     1.0000 0.00008  0.60726  0.93161  Biso   1.000  C
  H157     1.0000 0.05159  0.48566  0.89660  Biso   1.000  H
  H158     1.0000 0.00737  0.52096  0.85981  Biso   1.000  H
  H159     1.0000 0.56990  0.88711  0.12231  Biso   1.000  H
  H160     1.0000 0.52040  0.85254  0.09223  Biso   1.000  H
  H161     1.0000 0.01879  0.67777  0.91629  Biso   1.000  H
  H162     1.0000 0.01260  0.59238  0.96670  Biso   1.000  H
  C112     1.0000 0.34788  0.69437  0.37828  Biso   1.000  C
  C113     1.0000 0.30609  0.60408  0.39951  Biso   1.000  C
  O46      1.0000 0.34170  0.71724  0.32201  Biso   1.000  O
  H163     1.0000 0.34398  0.76942  0.39870  Biso   1.000  H
  H164     1.0000 0.38269  0.66180  0.38200  Biso   1.000  H
  O47      1.0000 0.31600  0.48956  0.37391  Biso   1.000  O
  H165     1.0000 0.30651  0.59528  0.43832  Biso   1.000  H
  H166     1.0000 0.27161  0.63339  0.39239  Biso   1.000  H
  C114     1.0000 0.37128  0.82132  0.30139  Biso   1.000  C
  C115     1.0000 0.27660  0.40309  0.39219  Biso   1.000  C
  H167     1.0000 0.40690  0.81706  0.31190  Biso   1.000  H
  H168     1.0000 0.35499  0.89501  0.31639  Biso   1.000  H
  C116     1.0000 0.37230  0.82250  0.24139  Biso   1.000  C
  C117     1.0000 0.29257  0.28067  0.37052  Biso   1.000  C
  H169     1.0000 0.24308  0.42604  0.37982  Biso   1.000  H
  H170     1.0000 0.27259  0.40100  0.43140  Biso   1.000  H
  O48      1.0000 0.31858  0.84292  0.22918  Biso   1.000  O
  H171     1.0000 0.39511  0.88693  0.22619  Biso   1.000  H
  H172     1.0000 0.38530  0.74574  0.22639  Biso   1.000  H
  O49      1.0000 0.29290  0.28094  0.31251  Biso   1.000  O
  H173     1.0000 0.32738  0.26071  0.38050  Biso   1.000  H
  H174     1.0000 0.26809  0.21978  0.38600  Biso   1.000  H
  C118     1.0000 0.30870  0.83848  0.17550  Biso   1.000  C
  C119     1.0000 0.30219  0.16370  0.28970  Biso   1.000  C
  C120     1.0000 0.34781  0.82368  0.13301  Biso   1.000  C
  C121     1.0000 0.25648  0.85027  0.16612  Biso   1.000  C
  C122     1.0000 0.30579  0.16960  0.22931  Biso   1.000  C
  H175     1.0000 0.27371  0.10971  0.30268  Biso   1.000  H
  H176     1.0000 0.33468  0.13122  0.30098  Biso   1.000  H
  C123     1.0000 0.33289  0.81869  0.08049  Biso   1.000  C
  H177     1.0000 0.38299  0.81733  0.13939  Biso   1.000  H
  H178     1.0000 0.23112  0.86071  0.19518  Biso   1.000  H
  C124     1.0000 0.24102  0.84673  0.11348  Biso   1.000  C
  O50      1.0000 0.25540  0.20000  0.21342  Biso   1.000  O
  H179     1.0000 0.33139  0.23049  0.21621  Biso   1.000  H
  H180     1.0000 0.31710  0.09183  0.21398  Biso   1.000  H
  O51      1.0000 0.36810  0.80091  0.03448  Biso   1.000  O
  C125     1.0000 0.28068  0.83049  0.07051  Biso   1.000  C
  O52      1.0000 0.19048  0.85599  0.10321  Biso   1.000  O
  C126     1.0000 0.24898  0.20018  0.15831  Biso   1.000  C
  C127     1.0000 0.42288  0.78584  0.04241  Biso   1.000  C
  H181     1.0000 0.27171  0.82759  0.03521  Biso   1.000  H
  C128     1.0000 0.15101  0.89882  0.13572  Biso   1.000  C
  C129     1.0000 0.16412  0.89301  0.06121  Biso   1.000  C
  C130     1.0000 0.29100  0.18321  0.11829  Biso   1.000  C
  C131     1.0000 0.19839  0.21897  0.14611  Biso   1.000  C
  C132     1.0000 0.45299  0.75073  0.98900  Biso   1.000  C
  H182     1.0000 0.42678  0.72314  0.06909  Biso   1.000  H
  H183     1.0000 0.43690  0.86098  0.05551  Biso   1.000  H
  C133     1.0000 0.10819  0.92051  0.09319  Biso   1.000  C
  H184     1.0000 0.16018  0.97396  0.15290  Biso   1.000  H
  H185     1.0000 0.13868  0.84029  0.16329  Biso   1.000  H
  H186     1.0000 0.16201  0.82886  0.03461  Biso   1.000  H
  H187     1.0000 0.17969  0.96461  0.04378  Biso   1.000  H
  C134     1.0000 0.27990  0.18457  0.06299  Biso   1.000  C
  H188     1.0000 0.32509  0.17123  0.12751  Biso   1.000  H
  H189     1.0000 0.17128  0.23122  0.17339  Biso   1.000  H
  C135     1.0000 0.18849  0.21933  0.09230  Biso   1.000  C
  O53      1.0000 0.43866  0.62949  0.97789  Biso   1.000  O
  H190     1.0000 0.44386  0.80454  0.96038  Biso   1.000  H
  H191     1.0000 0.49056  0.75617  0.99159  Biso   1.000  H
  O54      1.0000 0.08011  0.80436  0.10560  Biso   1.000  O
  O55      1.0000 0.31739  0.16606  0.02062  Biso   1.000  O
  C136     1.0000 0.22929  0.20417  0.05021  Biso   1.000  C
  O56      1.0000 0.13669  0.23367  0.08429  Biso   1.000  O
  C137     1.0000 0.47107  0.57786  0.93297  Biso   1.000  C
  C138     1.0000 0.02779  0.81642  0.09351  Biso   1.000  C
  C139     1.0000 0.36998  0.13866  0.03109  Biso   1.000  C
  H192     1.0000 0.22210  0.20762  0.01431  Biso   1.000  H
  C140     1.0000 0.12178  0.23448  0.03068  Biso   1.000  C
  C141     1.0000 0.44779  0.45826  0.92379  Biso   1.000  C
  H193     1.0000 0.50718  0.56942  0.94158  Biso   1.000  H
  H194     1.0000 0.47067  0.62868  0.90107  Biso   1.000  H
  C142     1.0000 0.99761  0.70789  0.11380  Biso   1.000  C
  H195     1.0000 0.02660  0.82368  0.05470  Biso   1.000  H
  H196     1.0000 0.01230  0.88902  0.11049  Biso   1.000  H
  H197     1.0000 0.36998  0.07223  0.05672  Biso   1.000  H
  H198     1.0000 0.38571  0.20889  0.04690  Biso   1.000  H
  C143     1.0000 0.40198  0.10390  0.97837  Biso   1.000  C
  H199     1.0000 0.13142  0.15853  0.01269  Biso   1.000  H
  H200     1.0000 0.13930  0.30027  0.01011  Biso   1.000  H
  C144     1.0000 0.06271  0.25191  0.03509  Biso   1.000  C
  O57      1.0000 0.48159  0.38829  0.88660  Biso   1.000  O
  H201     1.0000 0.44198  0.41525  0.95787  Biso   1.000  H
  H202     1.0000 0.41409  0.46906  0.90948  Biso   1.000  H
  O58      1.0000 0.01400  0.60163  0.08639  Biso   1.000  O
  H203     1.0000 0.00149  0.69782  0.15201  Biso   1.000  H
  H204     1.0000 0.96050  0.72087  0.11000  Biso   1.000  H
  O59      1.0000 0.41166  0.20862  0.94558  Biso   1.000  O
  H205     1.0000 0.43519  0.06806  0.98617  Biso   1.000  H
  H206     1.0000 0.38287  0.04419  0.95929  Biso   1.000  H
  O60      1.0000 0.05018  0.36624  0.06101  Biso   1.000  O
  H207     1.0000 0.04551  0.18648  0.05611  Biso   1.000  H
  H208     1.0000 0.05037  0.25100  0.99939  Biso   1.000  H
  C145     1.0000 0.45366  0.28993  0.86340  Biso   1.000  C
  C146     1.0000 0.98569  0.49809  0.10341  Biso   1.000  C
  C147     1.0000 0.44599  0.17650  0.89768  Biso   1.000  C
  C148     1.0000 0.99989  0.39274  0.06840  Biso   1.000  C
  H209     1.0000 0.47277  0.26779  0.82907  Biso   1.000  H
  H210     1.0000 0.41939  0.31942  0.85567  Biso   1.000  H
  H211     1.0000 0.94838  0.51434  0.10341  Biso   1.000  H
  H212     1.0000 0.99260  0.47904  0.14020  Biso   1.000  H
  H213     1.0000 0.43007  0.11289  0.87767  Biso   1.000  H
  H214     1.0000 0.47957  0.14746  0.90778  Biso   1.000  H
  H215     1.0000 0.98122  0.32223  0.08369  Biso   1.000  H
  H216     1.0000 0.98741  0.40762  0.03331  Biso   1.000  H
