data_image0
_cell_length_a       16.407
_cell_length_b       21.188
_cell_length_c       21.546
_cell_angle_alpha    94.83
_cell_angle_beta     105.62
_cell_angle_gamma    110.72

_symmetry_space_group_name_H-M    "P 1"
_symmetry_int_tables_number       1

loop_
  _symmetry_equiv_pos_as_xyz
  'x, y, z'

loop_
  _atom_site_label
  _atom_site_occupancy
  _atom_site_fract_x
  _atom_site_fract_y
  _atom_site_fract_z
  _atom_site_thermal_displace_type
  _atom_site_B_iso_or_equiv
  _atom_site_type_symbol
  C1       1.0000 0.58569  0.58403  0.49252  Biso   1.000  C
  O1       1.0000 0.58598  0.54406  0.44796  Biso   1.000  O
  N1       1.0000 0.55460  0.63591  0.48529  Biso   1.000  N
  N2       1.0000 0.61193  0.58207  0.55807  Biso   1.000  N
  C2       1.0000 0.55507  0.67045  0.54730  Biso   1.000  C
  C3       1.0000 0.51188  0.64477  0.41988  Biso   1.000  C
  C4       1.0000 0.60791  0.63814  0.59904  Biso   1.000  C
  C5       1.0000 0.64359  0.53030  0.58109  Biso   1.000  C
  C6       1.0000 0.45773  0.65899  0.54779  Biso   1.000  C
  N3       1.0000 0.61546  0.74301  0.56520  Biso   1.000  N
  H1       1.0000 0.49953  0.60467  0.38801  Biso   1.000  H
  H2       1.0000 0.45350  0.64747  0.41782  Biso   1.000  H
  N4       1.0000 0.56803  0.70579  0.40178  Biso   1.000  N
  C7       1.0000 0.56354  0.61388  0.65107  Biso   1.000  C
  N5       1.0000 0.69864  0.69576  0.62899  Biso   1.000  N
  H3       1.0000 0.61563  0.48967  0.54622  Biso   1.000  H
  H4       1.0000 0.62244  0.51748  0.61782  Biso   1.000  H
  N6       1.0000 0.74282  0.55090  0.60169  Biso   1.000  N
  H5       1.0000 0.41991  0.61068  0.53584  Biso   1.000  H
  H6       1.0000 0.46012  0.67679  0.59102  Biso   1.000  H
  H7       1.0000 0.43200  0.68247  0.51691  Biso   1.000  H
  C8       1.0000 0.69887  0.75504  0.60887  Biso   1.000  C
  C9       1.0000 0.59442  0.79886  0.53904  Biso   1.000  C
  C10      1.0000 0.56402  0.77264  0.41555  Biso   1.000  C
  C11      1.0000 0.60249  0.69994  0.35079  Biso   1.000  C
  H8       1.0000 0.56222  0.65248  0.67694  Biso   1.000  H
  H9       1.0000 0.50181  0.58065  0.62992  Biso   1.000  H
  H10      1.0000 0.59847  0.59317  0.67905  Biso   1.000  H
  C12      1.0000 0.76877  0.69707  0.68653  Biso   1.000  C
  C13      1.0000 0.80385  0.59061  0.66577  Biso   1.000  C
  C14      1.0000 0.78653  0.52693  0.56565  Biso   1.000  C
  O2       1.0000 0.76448  0.81142  0.63022  Biso   1.000  O
  H11      1.0000 0.52901  0.78747  0.52871  Biso   1.000  H
  H12      1.0000 0.62654  0.84055  0.57273  Biso   1.000  H
  N7       1.0000 0.61989  0.81206  0.48091  Biso   1.000  N
  C15      1.0000 0.61201  0.81355  0.37070  Biso   1.000  C
  H13      1.0000 0.50038  0.76894  0.40552  Biso   1.000  H
  N8       1.0000 0.63423  0.76400  0.33589  Biso   1.000  N
  O3       1.0000 0.60299  0.64799  0.32280  Biso   1.000  O
  H14      1.0000 0.73945  0.67378  0.71643  Biso   1.000  H
  H15      1.0000 0.80615  0.74460  0.70856  Biso   1.000  H
  N9       1.0000 0.82884  0.66437  0.67251  Biso   1.000  N
  H16      1.0000 0.78145  0.57290  0.70113  Biso   1.000  H
  C16      1.0000 0.89627  0.58380  0.66823  Biso   1.000  C
  N10      1.0000 0.87896  0.55262  0.60199  Biso   1.000  N
  O4       1.0000 0.75089  0.48953  0.51145  Biso   1.000  O
  C17      1.0000 0.69093  0.86997  0.48032  Biso   1.000  C
  H17      1.0000 0.57208  0.83075  0.34071  Biso   1.000  H
  N11      1.0000 0.69198  0.86935  0.41737  Biso   1.000  N
  C18      1.0000 0.66726  0.77642  0.27982  Biso   1.000  C
  C19      1.0000 0.92263  0.70008  0.69080  Biso   1.000  C
  H18      1.0000 0.91158  0.55540  0.69946  Biso   1.000  H
  N12      1.0000 0.96182  0.65452  0.68864  Biso   1.000  N
  C20      1.0000 0.94262  0.52921  0.58286  Biso   1.000  C
  O5       1.0000 0.74521  0.91568  0.52891  Biso   1.000  O
  C21      1.0000 0.75383  0.92532  0.39829  Biso   1.000  C
  H19      1.0000 0.64587  0.73282  0.24982  Biso   1.000  H
  H20      1.0000 0.64090  0.80554  0.25661  Biso   1.000  H
  N13      1.0000 0.76487  0.80834  0.29763  Biso   1.000  N
  O6       1.0000 0.96216  0.76351  0.70821  Biso   1.000  O
  C22      1.0000 0.06042  0.67241  0.71082  Biso   1.000  C
  H21      1.0000 0.90914  0.49287  0.54391  Biso   1.000  H
  H22      1.0000 0.97021  0.50986  0.61782  Biso   1.000  H
  N14      1.0000 0.01492  0.58362  0.56914  Biso   1.000  N
  H23      1.0000 0.71852  0.93726  0.36072  Biso   1.000  H
  H24      1.0000 0.78165  0.96507  0.43405  Biso   1.000  H
  N15      1.0000 0.82591  0.91171  0.38167  Biso   1.000  N
  C23      1.0000 0.82213  0.88234  0.31636  Biso   1.000  C
  C24      1.0000 0.81618  0.76984  0.29133  Biso   1.000  C
  H25      1.0000 0.08984  0.71489  0.74342  Biso   1.000  H
  H26      1.0000 0.07268  0.63670  0.73216  Biso   1.000  H
  N16      1.0000 0.10140  0.68099  0.65928  Biso   1.000  N
  C25      1.0000 0.10474  0.62627  0.61566  Biso   1.000  C
  C26      1.0000 0.00611  0.59336  0.50629  Biso   1.000  C
  C27      1.0000 0.90301  0.91636  0.42962  Biso   1.000  C
  C28      1.0000 0.92220  0.88337  0.32880  Biso   1.000  C
  C29      1.0000 0.79198  0.92151  0.26512  Biso   1.000  C
  N17      1.0000 0.90403  0.81277  0.30313  Biso   1.000  N
  O7       1.0000 0.78351  0.70708  0.27348  Biso   1.000  O
  C30      1.0000 0.14197  0.74519  0.64728  Biso   1.000  C
  C31      1.0000 0.15784  0.66773  0.57007  Biso   1.000  C
  C32      1.0000 0.15142  0.58392  0.65451  Biso   1.000  C
  O8       1.0000 0.93774  0.56252  0.45760  Biso   1.000  O
  N18      1.0000 0.08711  0.64112  0.50471  Biso   1.000  N
  N19      1.0000 0.96085  0.90075  0.40100  Biso   1.000  N
  O9       1.0000 0.91869  0.93268  0.48922  Biso   1.000  O
  C33      1.0000 0.98144  0.93431  0.29625  Biso   1.000  C
  H27      1.0000 0.83112  0.96956  0.27923  Biso   1.000  H
  H28      1.0000 0.79631  0.90425  0.22401  Biso   1.000  H
  H29      1.0000 0.72950  0.91553  0.25971  Biso   1.000  H
  C34      1.0000 0.97199  0.78507  0.29758  Biso   1.000  C
  N20      1.0000 0.17638  0.73949  0.59648  Biso   1.000  N
  O10      1.0000 0.14981  0.79907  0.67792  Biso   1.000  O
  C35      1.0000 0.24734  0.65985  0.57101  Biso   1.000  C
  H30      1.0000 0.21036  0.61430  0.68456  Biso   1.000  H
  H31      1.0000 0.11364  0.55898  0.67866  Biso   1.000  H
  H32      1.0000 0.15932  0.55209  0.62456  Biso   1.000  H
  C36      1.0000 0.09991  0.65389  0.44255  Biso   1.000  C
  C37      1.0000 0.05645  0.92077  0.43936  Biso   1.000  C
  H33      1.0000 0.99179  0.98033  0.31464  Biso   1.000  H
  H34      1.0000 0.95007  0.92452  0.24982  Biso   1.000  H
  H35      1.0000 0.03929  0.92985  0.30392  Biso   1.000  H
  H36      1.0000 0.94149  0.74271  0.26482  Biso   1.000  H
  H37      1.0000 0.01707  0.81762  0.28233  Biso   1.000  H
  N21      1.0000 0.01921  0.77125  0.35880  Biso   1.000  N
  C38      1.0000 0.21705  0.79894  0.57160  Biso   1.000  C
  H38      1.0000 0.23402  0.61278  0.55365  Biso   1.000  H
  H39      1.0000 0.27574  0.68900  0.54455  Biso   1.000  H
  H40      1.0000 0.28834  0.67280  0.61541  Biso   1.000  H
  H41      1.0000 0.16305  0.66175  0.44565  Biso   1.000  H
  H42      1.0000 0.06010  0.61307  0.40892  Biso   1.000  H
  N22      1.0000 0.08120  0.71189  0.42209  Biso   1.000  N
  H43      1.0000 0.09474  0.94665  0.41541  Biso   1.000  H
  H44      1.0000 0.06944  0.95104  0.48022  Biso   1.000  H
  N23      1.0000 0.08090  0.86355  0.45416  Biso   1.000  N
  C39      1.0000 0.10071  0.82334  0.40651  Biso   1.000  C
  C40      1.0000 0.01319  0.70556  0.36564  Biso   1.000  C
  H45      1.0000 0.26833  0.79537  0.55955  Biso   1.000  H
  H46      1.0000 0.24152  0.83915  0.60641  Biso   1.000  H
  N24      1.0000 0.15483  0.80908  0.51524  Biso   1.000  N
  C41      1.0000 0.14721  0.78271  0.44831  Biso   1.000  C
  C42      1.0000 0.12014  0.85861  0.51706  Biso   1.000  C
  H47      1.0000 0.14135  0.85285  0.38521  Biso   1.000  H
  O11      1.0000 0.95713  0.65273  0.32812  Biso   1.000  O
  H48      1.0000 0.20733  0.78945  0.44363  Biso   1.000  H
  O12      1.0000 0.12409  0.89318  0.56717  Biso   1.000  O
  C43      1.0000 0.41449  0.41606  0.50757  Biso   1.000  C
  N25      1.0000 0.38825  0.41807  0.44196  Biso   1.000  N
  N26      1.0000 0.44558  0.36422  0.51475  Biso   1.000  N
  O13      1.0000 0.41426  0.45608  0.55207  Biso   1.000  O
  C44      1.0000 0.39227  0.36195  0.40105  Biso   1.000  C
  C45      1.0000 0.35659  0.46983  0.41895  Biso   1.000  C
  C46      1.0000 0.44519  0.32970  0.45278  Biso   1.000  C
  C47      1.0000 0.48830  0.35532  0.58020  Biso   1.000  C
  N27      1.0000 0.30157  0.30432  0.37105  Biso   1.000  N
  C48      1.0000 0.43668  0.38621  0.34897  Biso   1.000  C
  N28      1.0000 0.25740  0.44919  0.39834  Biso   1.000  N
  H49      1.0000 0.38461  0.51046  0.45381  Biso   1.000  H
  H50      1.0000 0.37780  0.48266  0.38221  Biso   1.000  H
  N29      1.0000 0.38472  0.25709  0.43488  Biso   1.000  N
  C49      1.0000 0.54249  0.34109  0.45224  Biso   1.000  C
  H51      1.0000 0.50071  0.39546  0.61202  Biso   1.000  H
  H52      1.0000 0.54668  0.35266  0.58222  Biso   1.000  H
  N30      1.0000 0.43221  0.29431  0.59830  Biso   1.000  N
  C50      1.0000 0.23149  0.30308  0.31356  Biso   1.000  C
  C51      1.0000 0.30139  0.24510  0.39121  Biso   1.000  C
  H53      1.0000 0.43796  0.34766  0.32310  Biso   1.000  H
  H54      1.0000 0.49835  0.41943  0.37011  Biso   1.000  H
  H55      1.0000 0.40177  0.40692  0.32103  Biso   1.000  H
  C52      1.0000 0.19637  0.40948  0.33426  Biso   1.000  C
  C53      1.0000 0.21373  0.47322  0.43444  Biso   1.000  C
  C54      1.0000 0.40576  0.20128  0.46099  Biso   1.000  C
  H56      1.0000 0.58029  0.38946  0.46424  Biso   1.000  H
  H57      1.0000 0.54006  0.32334  0.40901  Biso   1.000  H
  H58      1.0000 0.56818  0.31766  0.48312  Biso   1.000  H
  C55      1.0000 0.43623  0.22749  0.58448  Biso   1.000  C
  C56      1.0000 0.39773  0.30014  0.64925  Biso   1.000  C
  H59      1.0000 0.26079  0.32635  0.28361  Biso   1.000  H
  H60      1.0000 0.19406  0.25554  0.29153  Biso   1.000  H
  N31      1.0000 0.17137  0.33571  0.32753  Biso   1.000  N
  O14      1.0000 0.23570  0.18867  0.36987  Biso   1.000  O
  H61      1.0000 0.21879  0.42723  0.29890  Biso   1.000  H
  C57      1.0000 0.10400  0.41634  0.33185  Biso   1.000  C
  N32      1.0000 0.12122  0.44751  0.39805  Biso   1.000  N
  O15      1.0000 0.24935  0.51056  0.48863  Biso   1.000  O
  H62      1.0000 0.47117  0.21266  0.47132  Biso   1.000  H
  H63      1.0000 0.37367  0.15953  0.42731  Biso   1.000  H
  N33      1.0000 0.38029  0.18807  0.51912  Biso   1.000  N
  C58      1.0000 0.38817  0.18655  0.62938  Biso   1.000  C
  H64      1.0000 0.49977  0.23115  0.59451  Biso   1.000  H
  N34      1.0000 0.36595  0.23614  0.66415  Biso   1.000  N
  O16      1.0000 0.39725  0.35215  0.67723  Biso   1.000  O
  C59      1.0000 0.07758  0.30001  0.30923  Biso   1.000  C
  N35      1.0000 0.03845  0.34563  0.31144  Biso   1.000  N
  H65      1.0000 0.08868  0.44475  0.30063  Biso   1.000  H
  C60      1.0000 0.05760  0.47088  0.41718  Biso   1.000  C
  C61      1.0000 0.30931  0.13012  0.51976  Biso   1.000  C
  N36      1.0000 0.30820  0.13078  0.58266  Biso   1.000  N
  H66      1.0000 0.42810  0.16938  0.65933  Biso   1.000  H
  C62      1.0000 0.33290  0.22366  0.72021  Biso   1.000  C
  O17      1.0000 0.03811  0.23664  0.29187  Biso   1.000  O
  C63      1.0000 0.93976  0.32772  0.28922  Biso   1.000  C
  H67      1.0000 0.09111  0.50726  0.45613  Biso   1.000  H
  H68      1.0000 0.03000  0.49023  0.38221  Biso   1.000  H
  N37      1.0000 0.98526  0.41648  0.43095  Biso   1.000  N
  O18      1.0000 0.25501  0.08440  0.47113  Biso   1.000  O
  C64      1.0000 0.24641  0.07482  0.60174  Biso   1.000  C
  H69      1.0000 0.35431  0.26727  0.75026  Biso   1.000  H
  H70      1.0000 0.35934  0.19459  0.74342  Biso   1.000  H
  N38      1.0000 0.23528  0.19174  0.70241  Biso   1.000  N
  H71      1.0000 0.91034  0.28524  0.25661  Biso   1.000  H
  H72      1.0000 0.92758  0.36345  0.26792  Biso   1.000  H
  N39      1.0000 0.89882  0.31910  0.34075  Biso   1.000  N
  C65      1.0000 0.89546  0.37387  0.38442  Biso   1.000  C
  C66      1.0000 0.99407  0.40677  0.49375  Biso   1.000  C
  H73      1.0000 0.28166  0.06287  0.63931  Biso   1.000  H
  H74      1.0000 0.21861  0.03507  0.56604  Biso   1.000  H
  N40      1.0000 0.17433  0.08843  0.61836  Biso   1.000  N
  C67      1.0000 0.17813  0.11780  0.68372  Biso   1.000  C
  C68      1.0000 0.18400  0.23029  0.70870  Biso   1.000  C
  C69      1.0000 0.85827  0.25494  0.35275  Biso   1.000  C
  C70      1.0000 0.84238  0.33236  0.42996  Biso   1.000  C
  C71      1.0000 0.84878  0.41623  0.34557  Biso   1.000  C
  N41      1.0000 0.91310  0.35902  0.49537  Biso   1.000  N
  O19      1.0000 0.06252  0.43763  0.54248  Biso   1.000  O
  C72      1.0000 0.09723  0.08373  0.57047  Biso   1.000  C
  C73      1.0000 0.07800  0.11677  0.67128  Biso   1.000  C
  C74      1.0000 0.20822  0.07864  0.73497  Biso   1.000  C
  N42      1.0000 0.09613  0.18731  0.69690  Biso   1.000  N
  O20      1.0000 0.21667  0.29306  0.72656  Biso   1.000  O
  N43      1.0000 0.82378  0.26059  0.40355  Biso   1.000  N
  O21      1.0000 0.85043  0.20103  0.32217  Biso   1.000  O
  C75      1.0000 0.75290  0.34029  0.42903  Biso   1.000  C
  H75      1.0000 0.78990  0.38584  0.31553  Biso   1.000  H
  H76      1.0000 0.88656  0.44116  0.32143  Biso   1.000  H
  H77      1.0000 0.84088  0.44806  0.37552  Biso   1.000  H
  C76      1.0000 0.90031  0.34619  0.55748  Biso   1.000  C
  N44      1.0000 0.03935  0.09939  0.59909  Biso   1.000  N
  O22      1.0000 0.08155  0.06741  0.51086  Biso   1.000  O
  C77      1.0000 0.01882  0.06584  0.70384  Biso   1.000  C
  H78      1.0000 0.16909  0.03058  0.72085  Biso   1.000  H
  H79      1.0000 0.20393  0.09588  0.77603  Biso   1.000  H
  H80      1.0000 0.27075  0.08460  0.74033  Biso   1.000  H
  C78      1.0000 0.02822  0.21501  0.70246  Biso   1.000  C
  C79      1.0000 0.78319  0.20120  0.42844  Biso   1.000  C
  H81      1.0000 0.76618  0.38736  0.44644  Biso   1.000  H
  H82      1.0000 0.72446  0.31115  0.45554  Biso   1.000  H
  H83      1.0000 0.71184  0.32734  0.38462  Biso   1.000  H
  H84      1.0000 0.83721  0.33839  0.55443  Biso   1.000  H
  H85      1.0000 0.94008  0.38707  0.59112  Biso   1.000  H
  N45      1.0000 0.91906  0.28825  0.57799  Biso   1.000  N
  C80      1.0000 0.94378  0.07933  0.56073  Biso   1.000  C
  H86      1.0000 0.00839  0.01976  0.68544  Biso   1.000  H
  H87      1.0000 0.05010  0.07557  0.75026  Biso   1.000  H
  H88      1.0000 0.96091  0.07029  0.69616  Biso   1.000  H
  N46      1.0000 0.98097  0.22888  0.64123  Biso   1.000  N
  H89      1.0000 0.05875  0.25738  0.73526  Biso   1.000  H
  H90      1.0000 0.98311  0.18248  0.71775  Biso   1.000  H
  H91      1.0000 0.73187  0.20478  0.44054  Biso   1.000  H
  H92      1.0000 0.75864  0.16093  0.39362  Biso   1.000  H
  N47      1.0000 0.84541  0.19105  0.48480  Biso   1.000  N
  C81      1.0000 0.85297  0.21739  0.55178  Biso   1.000  C
  C82      1.0000 0.98701  0.29458  0.63445  Biso   1.000  C
  N48      1.0000 0.91928  0.13658  0.54588  Biso   1.000  N
  H93      1.0000 0.90550  0.05348  0.58463  Biso   1.000  H
  H94      1.0000 0.93078  0.04904  0.51981  Biso   1.000  H
  C83      1.0000 0.89947  0.17676  0.59358  Biso   1.000  C
  C84      1.0000 0.88004  0.14148  0.48303  Biso   1.000  C
  H95      1.0000 0.79293  0.21069  0.55645  Biso   1.000  H
  O23      1.0000 0.04313  0.34742  0.67197  Biso   1.000  O
  H96      1.0000 0.85890  0.14728  0.61482  Biso   1.000  H
  O24      1.0000 0.87615  0.10695  0.43286  Biso   1.000  O
  O25      1.0000 0.32327  0.25625  0.21943  Biso   1.000  O
  C85      1.0000 0.25266  0.20419  0.19317  Biso   1.000  C
  N49      1.0000 0.17538  0.20273  0.14699  Biso   1.000  N
  N50      1.0000 0.23614  0.14127  0.20743  Biso   1.000  N
  C86      1.0000 0.10245  0.13341  0.12408  Biso   1.000  C
  C87      1.0000 0.16845  0.26526  0.12914  Biso   1.000  C
  C88      1.0000 0.14540  0.08972  0.16789  Biso   1.000  C
  C89      1.0000 0.30085  0.13220  0.26340  Biso   1.000  C
  C90      1.0000 0.01176  0.13253  0.12953  Biso   1.000  C
  N51      1.0000 0.09183  0.10246  0.05769  Biso   1.000  N
  H97      1.0000 0.10563  0.26110  0.12201  Biso   1.000  H
  H98      1.0000 0.20787  0.30313  0.16602  Biso   1.000  H
  N52      1.0000 0.19294  0.28255  0.07146  Biso   1.000  N
  C91      1.0000 0.09023  0.05251  0.21009  Biso   1.000  C
  N53      1.0000 0.14983  0.03984  0.11817  Biso   1.000  N
  H99      1.0000 0.33253  0.17524  0.29531  Biso   1.000  H
  H100     1.0000 0.26666  0.09785  0.28400  Biso   1.000  H
  N54      1.0000 0.36849  0.11127  0.24697  Biso   1.000  N
  H101     1.0000 0.02085  0.15313  0.17360  Biso   1.000  H
  H102     1.0000 0.98943  0.15802  0.09929  Biso   1.000  H
  H103     1.0000 0.96759  0.08580  0.11911  Biso   1.000  H
  C92      1.0000 0.11993  0.04974  0.05582  Biso   1.000  C
  C93      1.0000 0.05382  0.12302  0.99685  Biso   1.000  C
  C94      1.0000 0.26655  0.34014  0.07421  Biso   1.000  C
  C95      1.0000 0.13031  0.25098  0.00457  Biso   1.000  C
  H104     1.0000 0.03151  0.01942  0.18211  Biso   1.000  H
  H105     1.0000 0.12313  0.02950  0.23650  Biso   1.000  H
  H106     1.0000 0.08133  0.08542  0.23822  Biso   1.000  H
  C96      1.0000 0.19089  0.99072  0.13160  Biso   1.000  C
  C97      1.0000 0.45968  0.15210  0.26954  Biso   1.000  C
  C98      1.0000 0.34896  0.04196  0.21855  Biso   1.000  C
  O26      1.0000 0.11438  0.01437  0.00551  Biso   1.000  O
  H107     1.0000 0.03061  0.08440  0.96046  Biso   1.000  H
  H108     1.0000 0.00244  0.13411  0.99995  Biso   1.000  H
  N55      1.0000 0.11957  0.18112  0.98313  Biso   1.000  N
  N56      1.0000 0.26318  0.34515  0.00993  Biso   1.000  N
  O27      1.0000 0.32380  0.38100  0.12299  Biso   1.000  O
  C99      1.0000 0.18496  0.29177  0.96233  Biso   1.000  C
  H109     1.0000 0.07115  0.25522  0.99779  Biso   1.000  H
  N57      1.0000 0.29014  0.01915  0.15009  Biso   1.000  N
  H110     1.0000 0.16623  0.95452  0.09280  Biso   1.000  H
  H111     1.0000 0.17306  0.96981  0.16681  Biso   1.000  H
  N58      1.0000 0.50486  0.11529  0.24958  Biso   1.000  N
  O28      1.0000 0.49590  0.21121  0.30181  Biso   1.000  O
  H112     1.0000 0.32634  0.00952  0.24594  Biso   1.000  H
  C100     1.0000 0.44343  0.04626  0.21451  Biso   1.000  C
  C101     1.0000 0.16004  0.17591  0.93641  Biso   1.000  C
  C102     1.0000 0.32337  0.40624  0.99366  Biso   1.000  C
  H113     1.0000 0.14826  0.31091  0.93189  Biso   1.000  H
  N59      1.0000 0.20524  0.24160  0.92766  Biso   1.000  N
  C103     1.0000 0.33775  0.01315  0.10804  Biso   1.000  C
  C104     1.0000 0.60414  0.13896  0.27087  Biso   1.000  C
  H114     1.0000 0.46144  0.01154  0.23483  Biso   1.000  H
  N60      1.0000 0.42819  0.03451  0.14439  Biso   1.000  N
  O29      1.0000 0.15636  0.12299  0.90597  Biso   1.000  O
  H115     1.0000 0.35171  0.44319  0.03192  Biso   1.000  H
  H116     1.0000 0.28628  0.42053  0.95908  Biso   1.000  H
  N61      1.0000 0.39504  0.39562  0.97221  Biso   1.000  N
  C105     1.0000 0.23894  0.25336  0.87228  Biso   1.000  C
  O30      1.0000 0.30413  0.99198  0.04913  Biso   1.000  O
  H117     1.0000 0.62988  0.17856  0.30662  Biso   1.000  H
  H118     1.0000 0.62107  0.10283  0.28804  Biso   1.000  H
  N62      1.0000 0.64533  0.15778  0.22032  Biso   1.000  N
  C106     1.0000 0.49163  0.01662  0.11714  Biso   1.000  C
  C107     1.0000 0.48122  0.41503  0.01451  Biso   1.000  C
  C108     1.0000 0.38524  0.36699  0.90563  Biso   1.000  C
  H119     1.0000 0.20815  0.27858  0.84637  Biso   1.000  H
  H120     1.0000 0.22232  0.20922  0.84474  Biso   1.000  H
  N63      1.0000 0.33749  0.29122  0.89023  Biso   1.000  N
  C109     1.0000 0.68207  0.22425  0.21456  Biso   1.000  C
  C110     1.0000 0.65607  0.10967  0.17306  Biso   1.000  C
  N64      1.0000 0.57073  0.07558  0.11729  Biso   1.000  N
  H121     1.0000 0.51298  0.98641  0.14242  Biso   1.000  H
  H122     1.0000 0.45856  0.99121  0.07229  Biso   1.000  H
  O31      1.0000 0.50814  0.44029  0.07367  Biso   1.000  O
  N65      1.0000 0.53667  0.40556  0.97998  Biso   1.000  N
  C111     1.0000 0.48766  0.37655  0.91059  Biso   1.000  C
  C112     1.0000 0.34122  0.40002  0.85448  Biso   1.000  C
  C113     1.0000 0.39206  0.25834  0.88261  Biso   1.000  C
  N66      1.0000 0.72559  0.22781  0.16755  Biso   1.000  N
  O32      1.0000 0.67920  0.27327  0.24737  Biso   1.000  O
  C114     1.0000 0.72095  0.16106  0.14001  Biso   1.000  C
  C115     1.0000 0.69141  0.06062  0.20522  Biso   1.000  C
  C116     1.0000 0.57794  0.09511  0.06019  Biso   1.000  C
  C117     1.0000 0.63432  0.42290  0.01328  Biso   1.000  C
  C118     1.0000 0.52982  0.42240  0.86766  Biso   1.000  C
  N67      1.0000 0.47810  0.30603  0.89107  Biso   1.000  N
  H123     1.0000 0.33649  0.37918  0.81165  Biso   1.000  H
  H124     1.0000 0.28095  0.39340  0.85615  Biso   1.000  H
  H125     1.0000 0.37836  0.44841  0.86319  Biso   1.000  H
  O33      1.0000 0.36837  0.19567  0.86712  Biso   1.000  O
  C119     1.0000 0.76946  0.29277  0.14975  Biso   1.000  C
  C120     1.0000 0.81485  0.15932  0.15201  Biso   1.000  C
  N68      1.0000 0.66593  0.13902  0.06993  Biso   1.000  N
  H126     1.0000 0.74706  0.08592  0.24112  Biso   1.000  H
  H127     1.0000 0.64614  0.03071  0.22150  Biso   1.000  H
  H128     1.0000 0.70399  0.03363  0.17380  Biso   1.000  H
  O34      1.0000 0.51650  0.07472  0.00674  Biso   1.000  O
  H129     1.0000 0.65385  0.45520  0.05419  Biso   1.000  H
  N69      1.0000 0.65567  0.36487  0.02729  Biso   1.000  N
  H130     1.0000 0.66937  0.44584  0.98608  Biso   1.000  H
  H131     1.0000 0.49596  0.40191  0.82217  Biso   1.000  H
  H132     1.0000 0.52776  0.46670  0.87735  Biso   1.000  H
  H133     1.0000 0.59277  0.42773  0.87627  Biso   1.000  H
  C121     1.0000 0.54876  0.28564  0.87730  Biso   1.000  C
  H134     1.0000 0.78231  0.32981  0.18530  Biso   1.000  H
  H135     1.0000 0.82782  0.29532  0.14552  Biso   1.000  H
  N70      1.0000 0.71682  0.30348  0.09029  Biso   1.000  N
  H136     1.0000 0.80854  0.11451  0.13312  Biso   1.000  H
  H137     1.0000 0.84973  0.19332  0.13209  Biso   1.000  H
  H138     1.0000 0.84602  0.16913  0.19853  Biso   1.000  H
  C122     1.0000 0.69860  0.16006  0.01500  Biso   1.000  C
  C123     1.0000 0.68294  0.35405  0.09083  Biso   1.000  C
  C124     1.0000 0.68248  0.32699  0.98333  Biso   1.000  C
  H139     1.0000 0.51905  0.24460  0.84288  Biso   1.000  H
  H140     1.0000 0.58742  0.32188  0.86088  Biso   1.000  H
  N71      1.0000 0.60521  0.27228  0.93322  Biso   1.000  N
  C125     1.0000 0.72931  0.28735  0.02700  Biso   1.000  C
  H141     1.0000 0.76463  0.17292  0.02828  Biso   1.000  H
  H142     1.0000 0.67060  0.12112  0.97856  Biso   1.000  H
  N72      1.0000 0.67844  0.21699  0.99302  Biso   1.000  N
  O35      1.0000 0.67752  0.38553  0.13893  Biso   1.000  O
  H143     1.0000 0.72435  0.35772  0.96376  Biso   1.000  H
  C126     1.0000 0.60814  0.20955  0.93705  Biso   1.000  C
  H144     1.0000 0.79449  0.30261  0.03098  Biso   1.000  H
  O36      1.0000 0.55794  0.15559  0.89825  Biso   1.000  O
  O37      1.0000 0.67689  0.74384  0.78060  Biso   1.000  O
  C127     1.0000 0.74758  0.79590  0.80691  Biso   1.000  C
  N73      1.0000 0.76410  0.85883  0.79265  Biso   1.000  N
  N74      1.0000 0.82488  0.79741  0.85309  Biso   1.000  N
  C128     1.0000 0.69939  0.86793  0.73664  Biso   1.000  C
  C129     1.0000 0.85478  0.91037  0.83219  Biso   1.000  C
  C130     1.0000 0.89781  0.86673  0.87601  Biso   1.000  C
  C131     1.0000 0.83179  0.73487  0.87089  Biso   1.000  C
  N75      1.0000 0.63177  0.88888  0.75311  Biso   1.000  N
  H145     1.0000 0.66764  0.82489  0.70472  Biso   1.000  H
  H146     1.0000 0.73358  0.90229  0.71603  Biso   1.000  H
  C132     1.0000 0.90999  0.94758  0.78995  Biso   1.000  C
  N76      1.0000 0.85043  0.96030  0.88191  Biso   1.000  N
  C133     1.0000 0.98848  0.86760  0.87050  Biso   1.000  C
  N77      1.0000 0.90837  0.89769  0.94240  Biso   1.000  N
  H147     1.0000 0.89461  0.73899  0.87807  Biso   1.000  H
  H148     1.0000 0.79239  0.69701  0.83406  Biso   1.000  H
  N78      1.0000 0.80726  0.71760  0.92863  Biso   1.000  N
  C134     1.0000 0.54056  0.84803  0.73049  Biso   1.000  C
  C135     1.0000 0.65130  0.95819  0.78154  Biso   1.000  C
  H149     1.0000 0.96867  0.98072  0.81793  Biso   1.000  H
  H150     1.0000 0.87709  0.97058  0.76354  Biso   1.000  H
  H151     1.0000 0.91885  0.91467  0.76187  Biso   1.000  H
  C136     1.0000 0.80938  0.00943  0.86848  Biso   1.000  C
  C137     1.0000 0.88031  0.95035  0.94427  Biso   1.000  C
  H152     1.0000 0.97939  0.84700  0.82644  Biso   1.000  H
  H153     1.0000 0.01081  0.84212  0.90074  Biso   1.000  H
  H154     1.0000 0.03259  0.91429  0.88098  Biso   1.000  H
  C138     1.0000 0.94634  0.87706  0.00318  Biso   1.000  C
  C139     1.0000 0.73369  0.65995  0.92587  Biso   1.000  C
  C140     1.0000 0.86989  0.74916  0.99551  Biso   1.000  C
  O38      1.0000 0.50428  0.78892  0.69823  Biso   1.000  O
  N79      1.0000 0.49539  0.88484  0.75046  Biso   1.000  N
  C141     1.0000 0.55675  0.95387  0.78552  Biso   1.000  C
  H155     1.0000 0.67384  0.99057  0.75414  Biso   1.000  H
  N80      1.0000 0.71012  0.98100  0.84999  Biso   1.000  N
  H156     1.0000 0.83395  0.04562  0.90724  Biso   1.000  H
  H157     1.0000 0.82714  0.03034  0.83327  Biso   1.000  H
  O39      1.0000 0.88588  0.98578  0.99458  Biso   1.000  O
  H158     1.0000 0.96954  0.91569  0.03957  Biso   1.000  H
  H159     1.0000 0.99780  0.86602  0.00008  Biso   1.000  H
  N81      1.0000 0.88061  0.81902  0.01690  Biso   1.000  N
  N82      1.0000 0.73706  0.65498  0.99010  Biso   1.000  N
  O40      1.0000 0.67641  0.61909  0.87704  Biso   1.000  O
  C142     1.0000 0.81528  0.70832  0.03775  Biso   1.000  C
  H160     1.0000 0.92905  0.74492  0.00230  Biso   1.000  H
  C143     1.0000 0.39606  0.86119  0.72921  Biso   1.000  C
  H161     1.0000 0.53882  0.98860  0.76526  Biso   1.000  H
  N83      1.0000 0.57205  0.96562  0.85565  Biso   1.000  N
  C144     1.0000 0.66252  0.98699  0.89204  Biso   1.000  C
  C145     1.0000 0.84014  0.82422  0.06362  Biso   1.000  C
  C146     1.0000 0.67687  0.59389  0.00638  Biso   1.000  C
  H162     1.0000 0.85200  0.68924  0.06820  Biso   1.000  H
  N84      1.0000 0.79500  0.75853  0.07238  Biso   1.000  N
  H163     1.0000 0.37039  0.82159  0.69346  Biso   1.000  H
  H164     1.0000 0.37917  0.89727  0.71205  Biso   1.000  H
  N85      1.0000 0.35485  0.84231  0.77977  Biso   1.000  N
  C147     1.0000 0.50861  0.98352  0.88289  Biso   1.000  C
  O41      1.0000 0.69605  0.00815  0.95091  Biso   1.000  O
  O42      1.0000 0.84382  0.87715  0.09406  Biso   1.000  O
  H165     1.0000 0.64847  0.55690  0.96817  Biso   1.000  H
  H166     1.0000 0.71398  0.57962  0.04100  Biso   1.000  H
  N86      1.0000 0.60514  0.60448  0.02787  Biso   1.000  N
  C148     1.0000 0.76127  0.74672  0.12775  Biso   1.000  C
  C149     1.0000 0.31819  0.77590  0.78552  Biso   1.000  C
  C150     1.0000 0.34417  0.89046  0.82698  Biso   1.000  C
  N87      1.0000 0.42947  0.92456  0.88279  Biso   1.000  N
  H167     1.0000 0.48729  0.01373  0.85766  Biso   1.000  H
  H168     1.0000 0.54168  0.00892  0.92774  Biso   1.000  H
  C151     1.0000 0.51898  0.58511  0.98558  Biso   1.000  C
  C152     1.0000 0.61498  0.63309  0.09441  Biso   1.000  C
  H169     1.0000 0.79209  0.72151  0.15372  Biso   1.000  H
  H170     1.0000 0.77792  0.79092  0.15529  Biso   1.000  H
  N88      1.0000 0.66271  0.70893  0.10985  Biso   1.000  N
  N89      1.0000 0.27467  0.77233  0.83253  Biso   1.000  N
  O43      1.0000 0.32098  0.72682  0.75272  Biso   1.000  O
  C153     1.0000 0.27929  0.83907  0.86003  Biso   1.000  C
  C154     1.0000 0.30877  0.93951  0.79482  Biso   1.000  C
  C155     1.0000 0.42233  0.90503  0.93989  Biso   1.000  C
  N90      1.0000 0.46359  0.59458  0.02010  Biso   1.000  N
  O44      1.0000 0.49207  0.55985  0.92642  Biso   1.000  O
  C156     1.0000 0.51255  0.62353  0.08944  Biso   1.000  C
  C157     1.0000 0.65895  0.60012  0.14555  Biso   1.000  C
  C158     1.0000 0.60818  0.74179  0.11742  Biso   1.000  C
  C159     1.0000 0.23078  0.70736  0.85029  Biso   1.000  C
  C160     1.0000 0.18539  0.84077  0.84807  Biso   1.000  C
  N91      1.0000 0.33427  0.86112  0.93015  Biso   1.000  N
  H171     1.0000 0.25321  0.91422  0.75896  Biso   1.000  H
  H172     1.0000 0.35408  0.96937  0.77854  Biso   1.000  H
  H173     1.0000 0.29619  0.96650  0.82624  Biso   1.000  H
  O45      1.0000 0.48376  0.92542  0.99335  Biso   1.000  O
  C161     1.0000 0.36586  0.57723  0.98676  Biso   1.000  C
  N92      1.0000 0.52211  0.69412  0.10901  Biso   1.000  N
  C162     1.0000 0.47036  0.57770  0.13242  Biso   1.000  C
  H174     1.0000 0.66367  0.62091  0.18839  Biso   1.000  H
  H175     1.0000 0.71929  0.60673  0.14388  Biso   1.000  H
  H176     1.0000 0.62190  0.55173  0.13690  Biso   1.000  H
  O46      1.0000 0.63180  0.80443  0.13296  Biso   1.000  O
  H177     1.0000 0.21784  0.67027  0.81473  Biso   1.000  H
  H178     1.0000 0.17238  0.70482  0.85457  Biso   1.000  H
  N93      1.0000 0.28342  0.69661  0.90979  Biso   1.000  N
  H179     1.0000 0.19170  0.88558  0.86696  Biso   1.000  H
  H180     1.0000 0.15051  0.80682  0.86794  Biso   1.000  H
  H181     1.0000 0.15418  0.83101  0.80155  Biso   1.000  H
  C163     1.0000 0.30158  0.84003  0.98508  Biso   1.000  C
  N94      1.0000 0.34460  0.63527  0.97279  Biso   1.000  N
  H182     1.0000 0.34639  0.54493  0.94584  Biso   1.000  H
  H183     1.0000 0.33089  0.55430  0.01400  Biso   1.000  H
  C164     1.0000 0.45148  0.71445  0.12278  Biso   1.000  C
  H184     1.0000 0.50430  0.59824  0.17791  Biso   1.000  H
  H185     1.0000 0.47248  0.53343  0.12269  Biso   1.000  H
  H186     1.0000 0.40749  0.57242  0.12382  Biso   1.000  H
  C165     1.0000 0.31730  0.64608  0.90920  Biso   1.000  C
  C166     1.0000 0.27085  0.71273  0.97304  Biso   1.000  C
  H187     1.0000 0.23561  0.82721  0.97176  Biso   1.000  H
  H188     1.0000 0.32958  0.87901  0.02148  Biso   1.000  H
  N95      1.0000 0.32177  0.78316  0.00707  Biso   1.000  N
  C167     1.0000 0.31778  0.67316  0.01676  Biso   1.000  C
  N96      1.0000 0.39497  0.72786  0.06682  Biso   1.000  N
  H189     1.0000 0.48121  0.75554  0.15721  Biso   1.000  H
  H190     1.0000 0.41276  0.67822  0.13921  Biso   1.000  H
  O47      1.0000 0.32274  0.61461  0.86116  Biso   1.000  O
  H191     1.0000 0.20569  0.69752  0.96905  Biso   1.000  H
  C168     1.0000 0.39211  0.79058  0.06298  Biso   1.000  C
  H192     1.0000 0.27590  0.64241  0.03628  Biso   1.000  H
  O48      1.0000 0.44231  0.84455  0.10178  Biso   1.000  O
