data_image0
_cell_length_a       16.251
_cell_length_b       20.991
_cell_length_c       16.676
_cell_angle_alpha    90
_cell_angle_beta     96.33
_cell_angle_gamma    90

_symmetry_space_group_name_H-M    "P 1"
_symmetry_int_tables_number       1

loop_
  _symmetry_equiv_pos_as_xyz
  'x, y, z'

loop_
  _atom_site_label
  _atom_site_occupancy
  _atom_site_fract_x
  _atom_site_fract_y
  _atom_site_fract_z
  _atom_site_thermal_displace_type
  _atom_site_B_iso_or_equiv
  _atom_site_type_symbol
  O1       1.0000 0.53268  0.49755  0.38318  Biso   1.000  O
  C1       1.0000 0.58160  0.45691  0.36526  Biso   1.000  C
  N1       1.0000 0.60749  0.45377  0.29172  Biso   1.000  N
  C2       1.0000 0.62043  0.41103  0.42783  Biso   1.000  C
  H1       1.0000 0.63720  0.42080  0.27965  Biso   1.000  H
  C3       1.0000 0.58809  0.50307  0.23114  Biso   1.000  C
  C4       1.0000 0.61743  0.42885  0.50795  Biso   1.000  C
  C5       1.0000 0.66387  0.35706  0.40985  Biso   1.000  C
  H2       1.0000 0.53191  0.51979  0.23609  Biso   1.000  H
  H3       1.0000 0.58754  0.48392  0.17684  Biso   1.000  H
  C6       1.0000 0.64912  0.55791  0.23868  Biso   1.000  C
  C7       1.0000 0.66128  0.39417  0.56974  Biso   1.000  C
  H4       1.0000 0.58543  0.46463  0.52038  Biso   1.000  H
  H5       1.0000 0.66551  0.34453  0.35531  Biso   1.000  H
  C8       1.0000 0.70505  0.32128  0.47193  Biso   1.000  C
  C9       1.0000 0.62172  0.62041  0.24725  Biso   1.000  C
  C10      1.0000 0.73335  0.54766  0.23530  Biso   1.000  C
  C11      1.0000 0.66970  0.41594  0.65607  Biso   1.000  C
  C12      1.0000 0.70444  0.33953  0.55194  Biso   1.000  C
  O2       1.0000 0.74942  0.27040  0.44702  Biso   1.000  O
  O3       1.0000 0.53825  0.63194  0.24864  Biso   1.000  O
  C13      1.0000 0.67768  0.67081  0.25123  Biso   1.000  C
  O4       1.0000 0.75945  0.48621  0.22239  Biso   1.000  O
  C14      1.0000 0.78963  0.59821  0.24110  Biso   1.000  C
  O5       1.0000 0.70203  0.38126  0.71068  Biso   1.000  O
  N2       1.0000 0.64278  0.47477  0.66947  Biso   1.000  N
  H6       1.0000 0.73313  0.31504  0.59399  Biso   1.000  H
  C15      1.0000 0.77054  0.22005  0.50313  Biso   1.000  C
  C16      1.0000 0.51829  0.65023  0.32780  Biso   1.000  C
  O6       1.0000 0.65182  0.73260  0.26257  Biso   1.000  O
  C17      1.0000 0.76186  0.66047  0.24803  Biso   1.000  C
  C18      1.0000 0.80812  0.45782  0.29081  Biso   1.000  C
  O7       1.0000 0.87326  0.58654  0.24272  Biso   1.000  O
  H7       1.0000 0.62036  0.49688  0.62790  Biso   1.000  H
  C19      1.0000 0.64851  0.50431  0.74887  Biso   1.000  C
  H8       1.0000 0.79630  0.23829  0.55459  Biso   1.000  H
  H9       1.0000 0.81180  0.19180  0.48165  Biso   1.000  H
  C20      1.0000 0.69853  0.18270  0.51821  Biso   1.000  C
  H10      1.0000 0.45933  0.66071  0.32502  Biso   1.000  H
  H11      1.0000 0.55130  0.68753  0.34656  Biso   1.000  H
  H12      1.0000 0.53086  0.61483  0.36550  Biso   1.000  H
  C21      1.0000 0.60254  0.75961  0.19410  Biso   1.000  C
  C22      1.0000 0.82046  0.71635  0.25147  Biso   1.000  C
  H13      1.0000 0.81775  0.41275  0.27971  Biso   1.000  H
  H14      1.0000 0.77826  0.46148  0.33860  Biso   1.000  H
  H15      1.0000 0.86136  0.47997  0.30071  Biso   1.000  H
  C23      1.0000 0.89986  0.57653  0.16513  Biso   1.000  C
  H16      1.0000 0.67008  0.47273  0.79002  Biso   1.000  H
  H17      1.0000 0.59243  0.51708  0.76063  Biso   1.000  H
  C24      1.0000 0.70421  0.56210  0.75496  Biso   1.000  C
  C25      1.0000 0.63994  0.15254  0.52792  Biso   1.000  C
  H18      1.0000 0.63760  0.76776  0.15102  Biso   1.000  H
  H19      1.0000 0.57805  0.79972  0.20990  Biso   1.000  H
  H20      1.0000 0.55844  0.72974  0.17473  Biso   1.000  H
  N3       1.0000 0.83272  0.74360  0.33262  Biso   1.000  N
  H21      1.0000 0.87446  0.70230  0.23542  Biso   1.000  H
  H22      1.0000 0.79787  0.74942  0.21280  Biso   1.000  H
  H23      1.0000 0.88458  0.61341  0.13068  Biso   1.000  H
  H24      1.0000 0.87323  0.53823  0.14076  Biso   1.000  H
  H25      1.0000 0.96010  0.57105  0.17056  Biso   1.000  H
  C26      1.0000 0.78916  0.55433  0.75689  Biso   1.000  C
  C27      1.0000 0.67271  0.62346  0.76269  Biso   1.000  C
  H26      1.0000 0.59234  0.12805  0.53577  Biso   1.000  H
  H27      1.0000 0.83983  0.71764  0.37425  Biso   1.000  H
  C28      1.0000 0.83355  0.80592  0.34590  Biso   1.000  C
  O8       1.0000 0.81994  0.49364  0.74778  Biso   1.000  O
  C29      1.0000 0.84249  0.60612  0.76486  Biso   1.000  C
  O9       1.0000 0.58798  0.63208  0.75780  Biso   1.000  O
  C30      1.0000 0.72646  0.67515  0.77161  Biso   1.000  C
  O10      1.0000 0.82816  0.84474  0.29123  Biso   1.000  O
  C31      1.0000 0.84122  0.82721  0.43278  Biso   1.000  C
  C32      1.0000 0.85608  0.46634  0.82187  Biso   1.000  C
  O11      1.0000 0.92715  0.59764  0.77077  Biso   1.000  O
  C33      1.0000 0.81115  0.66757  0.77180  Biso   1.000  C
  C34      1.0000 0.55674  0.64132  0.83358  Biso   1.000  C
  O12      1.0000 0.69726  0.73565  0.78597  Biso   1.000  O
  C35      1.0000 0.85851  0.78476  0.49637  Biso   1.000  C
  C36      1.0000 0.82684  0.89129  0.44816  Biso   1.000  C
  H28      1.0000 0.87586  0.42328  0.81180  Biso   1.000  H
  H29      1.0000 0.81443  0.46425  0.86006  Biso   1.000  H
  H30      1.0000 0.90264  0.49273  0.84456  Biso   1.000  H
  C37      1.0000 0.95783  0.57139  0.69982  Biso   1.000  C
  C38      1.0000 0.86867  0.72422  0.78036  Biso   1.000  C
  H31      1.0000 0.49617  0.64418  0.82525  Biso   1.000  H
  H32      1.0000 0.57947  0.68082  0.85825  Biso   1.000  H
  H33      1.0000 0.57302  0.60526  0.86918  Biso   1.000  H
  C39      1.0000 0.64721  0.76428  0.71894  Biso   1.000  C
  H34      1.0000 0.87015  0.74141  0.48563  Biso   1.000  H
  C40      1.0000 0.85882  0.80539  0.57577  Biso   1.000  C
  C41      1.0000 0.82759  0.91163  0.52708  Biso   1.000  C
  H35      1.0000 0.81659  0.92068  0.40490  Biso   1.000  H
  H36      1.0000 0.92590  0.58868  0.65143  Biso   1.000  H
  H37      1.0000 0.95215  0.52489  0.70024  Biso   1.000  H
  H38      1.0000 0.01633  0.58268  0.69964  Biso   1.000  H
  N4       1.0000 0.85383  0.76962  0.71394  Biso   1.000  N
  H39      1.0000 0.86198  0.74632  0.83165  Biso   1.000  H
  H40      1.0000 0.92659  0.70897  0.78320  Biso   1.000  H
  H41      1.0000 0.67706  0.76304  0.67110  Biso   1.000  H
  H42      1.0000 0.63521  0.80863  0.73198  Biso   1.000  H
  H43      1.0000 0.59511  0.74065  0.70820  Biso   1.000  H
  C42      1.0000 0.84319  0.86890  0.59103  Biso   1.000  C
  C43      1.0000 0.87570  0.75599  0.64069  Biso   1.000  C
  O13      1.0000 0.81071  0.97270  0.55091  Biso   1.000  O
  H44      1.0000 0.83015  0.80639  0.72214  Biso   1.000  H
  H45      1.0000 0.84302  0.88333  0.64497  Biso   1.000  H
  O14      1.0000 0.90739  0.70473  0.62549  Biso   1.000  O
  C44      1.0000 0.79950  0.02220  0.49154  Biso   1.000  C
  H46      1.0000 0.76522  0.05645  0.51157  Biso   1.000  H
  H47      1.0000 0.76912  0.00476  0.44159  Biso   1.000  H
  C45      1.0000 0.87747  0.04931  0.47248  Biso   1.000  C
  C46      1.0000 0.93989  0.07294  0.45800  Biso   1.000  C
  H48      1.0000 0.99020  0.09199  0.44635  Biso   1.000  H
  O15      1.0000 0.46729  0.50245  0.61674  Biso   1.000  O
  C47      1.0000 0.41837  0.54309  0.63472  Biso   1.000  C
  C48      1.0000 0.37954  0.58897  0.57215  Biso   1.000  C
  N5       1.0000 0.39254  0.54623  0.70826  Biso   1.000  N
  C49      1.0000 0.38254  0.57115  0.49203  Biso   1.000  C
  C50      1.0000 0.33610  0.64294  0.59013  Biso   1.000  C
  H49      1.0000 0.36277  0.57920  0.72033  Biso   1.000  H
  C51      1.0000 0.41189  0.49693  0.76884  Biso   1.000  C
  C52      1.0000 0.33869  0.60583  0.43024  Biso   1.000  C
  H50      1.0000 0.41455  0.53537  0.47960  Biso   1.000  H
  C53      1.0000 0.29493  0.67872  0.52805  Biso   1.000  C
  H51      1.0000 0.33446  0.65547  0.64467  Biso   1.000  H
  H52      1.0000 0.46806  0.48021  0.76383  Biso   1.000  H
  H53      1.0000 0.41249  0.51608  0.82314  Biso   1.000  H
  C54      1.0000 0.35092  0.44209  0.76130  Biso   1.000  C
  C55      1.0000 0.33028  0.58406  0.34391  Biso   1.000  C
  C56      1.0000 0.29554  0.66047  0.44804  Biso   1.000  C
  O16      1.0000 0.25055  0.72960  0.55296  Biso   1.000  O
  C57      1.0000 0.37825  0.37959  0.75273  Biso   1.000  C
  C58      1.0000 0.26669  0.45234  0.76468  Biso   1.000  C
  N6       1.0000 0.35719  0.52523  0.33051  Biso   1.000  N
  O17      1.0000 0.29795  0.61874  0.28930  Biso   1.000  O
  H54      1.0000 0.26684  0.68496  0.40593  Biso   1.000  H
  C59      1.0000 0.22943  0.77995  0.49685  Biso   1.000  C
  C60      1.0000 0.32230  0.32919  0.74875  Biso   1.000  C
  O18      1.0000 0.46172  0.36806  0.75134  Biso   1.000  O
  C61      1.0000 0.21034  0.40179  0.75882  Biso   1.000  C
  O19      1.0000 0.24052  0.51379  0.77759  Biso   1.000  O
  C62      1.0000 0.35147  0.49569  0.25111  Biso   1.000  C
  H55      1.0000 0.37961  0.50312  0.37208  Biso   1.000  H
  H56      1.0000 0.20367  0.76171  0.44533  Biso   1.000  H
  H57      1.0000 0.18824  0.80820  0.51833  Biso   1.000  H
  C63      1.0000 0.30145  0.81730  0.48177  Biso   1.000  C
  C64      1.0000 0.23811  0.33953  0.75195  Biso   1.000  C
  O20      1.0000 0.34815  0.26740  0.73741  Biso   1.000  O
  C65      1.0000 0.48169  0.34977  0.67218  Biso   1.000  C
  O21      1.0000 0.12672  0.41346  0.75726  Biso   1.000  O
  C66      1.0000 0.19186  0.54218  0.70917  Biso   1.000  C
  C67      1.0000 0.29577  0.43790  0.24502  Biso   1.000  C
  H58      1.0000 0.32995  0.52727  0.20996  Biso   1.000  H
  H59      1.0000 0.40755  0.48292  0.23935  Biso   1.000  H
  C68      1.0000 0.36003  0.84746  0.47206  Biso   1.000  C
  C69      1.0000 0.17951  0.28365  0.74851  Biso   1.000  C
  C70      1.0000 0.39743  0.24039  0.80588  Biso   1.000  C
  H60      1.0000 0.54070  0.33929  0.67490  Biso   1.000  H
  H61      1.0000 0.44867  0.31247  0.65342  Biso   1.000  H
  H62      1.0000 0.46911  0.38517  0.63448  Biso   1.000  H
  C71      1.0000 0.10011  0.42347  0.83485  Biso   1.000  C
  H63      1.0000 0.18222  0.58725  0.72027  Biso   1.000  H
  H64      1.0000 0.22171  0.53852  0.66138  Biso   1.000  H
  H65      1.0000 0.13862  0.52003  0.69927  Biso   1.000  H
  C72      1.0000 0.32732  0.37654  0.23729  Biso   1.000  C
  C73      1.0000 0.21081  0.44567  0.24309  Biso   1.000  C
  H66      1.0000 0.40770  0.87195  0.46421  Biso   1.000  H
  N7       1.0000 0.16725  0.25640  0.66736  Biso   1.000  N
  H67      1.0000 0.12551  0.29770  0.76456  Biso   1.000  H
  H68      1.0000 0.20216  0.25058  0.78718  Biso   1.000  H
  H69      1.0000 0.36237  0.23224  0.84896  Biso   1.000  H
  H70      1.0000 0.42198  0.20028  0.79008  Biso   1.000  H
  H71      1.0000 0.44153  0.27026  0.82525  Biso   1.000  H
  H72      1.0000 0.11540  0.38659  0.86930  Biso   1.000  H
  H73      1.0000 0.12675  0.46177  0.85922  Biso   1.000  H
  H74      1.0000 0.03987  0.42895  0.82935  Biso   1.000  H
  C74      1.0000 0.27351  0.32485  0.22837  Biso   1.000  C
  O22      1.0000 0.41199  0.36792  0.24218  Biso   1.000  O
  C75      1.0000 0.15749  0.39388  0.23512  Biso   1.000  C
  O23      1.0000 0.18003  0.50636  0.25220  Biso   1.000  O
  C76      1.0000 0.16643  0.19408  0.65408  Biso   1.000  C
  H75      1.0000 0.16014  0.28236  0.62573  Biso   1.000  H
  O24      1.0000 0.30272  0.26435  0.21401  Biso   1.000  O
  C77      1.0000 0.18882  0.33243  0.22818  Biso   1.000  C
  C78      1.0000 0.44323  0.35868  0.16640  Biso   1.000  C
  O25      1.0000 0.07282  0.40236  0.22921  Biso   1.000  O
  C79      1.0000 0.14396  0.53366  0.17811  Biso   1.000  C
  C80      1.0000 0.15875  0.17279  0.56720  Biso   1.000  C
  O26      1.0000 0.17187  0.15526  0.70875  Biso   1.000  O
  C81      1.0000 0.35282  0.23572  0.28098  Biso   1.000  C
  C82      1.0000 0.13130  0.27578  0.21962  Biso   1.000  C
  H76      1.0000 0.50380  0.35582  0.17473  Biso   1.000  H
  H77      1.0000 0.42050  0.31918  0.14166  Biso   1.000  H
  H78      1.0000 0.42696  0.39474  0.13080  Biso   1.000  H
  C83      1.0000 0.04214  0.42861  0.30016  Biso   1.000  C
  H79      1.0000 0.12412  0.57672  0.18818  Biso   1.000  H
  H80      1.0000 0.18554  0.53575  0.13992  Biso   1.000  H
  H81      1.0000 0.09733  0.50727  0.15536  Biso   1.000  H
  C84      1.0000 0.14146  0.21524  0.50361  Biso   1.000  C
  C85      1.0000 0.17313  0.10871  0.55182  Biso   1.000  C
  H82      1.0000 0.32291  0.23696  0.32888  Biso   1.000  H
  H83      1.0000 0.36476  0.19137  0.26800  Biso   1.000  H
  H84      1.0000 0.40487  0.25935  0.29178  Biso   1.000  H
  N8       1.0000 0.14613  0.23038  0.28598  Biso   1.000  N
  H85      1.0000 0.13805  0.25368  0.16833  Biso   1.000  H
  H86      1.0000 0.07338  0.29103  0.21678  Biso   1.000  H
  H87      1.0000 0.07414  0.41132  0.34855  Biso   1.000  H
  H88      1.0000 0.04782  0.47511  0.29974  Biso   1.000  H
  H89      1.0000 0.98364  0.41732  0.30034  Biso   1.000  H
  C86      1.0000 0.14115  0.19461  0.42415  Biso   1.000  C
  H90      1.0000 0.12982  0.25859  0.51435  Biso   1.000  H
  C87      1.0000 0.17239  0.08837  0.47290  Biso   1.000  C
  H91      1.0000 0.18338  0.07932  0.59508  Biso   1.000  H
  H92      1.0000 0.16983  0.19361  0.27784  Biso   1.000  H
  C88      1.0000 0.12428  0.24401  0.35929  Biso   1.000  C
  C89      1.0000 0.15685  0.13110  0.40895  Biso   1.000  C
  O27      1.0000 0.18926  0.02730  0.44907  Biso   1.000  O
  O28      1.0000 0.09258  0.29527  0.37449  Biso   1.000  O
  H93      1.0000 0.15696  0.11667  0.35501  Biso   1.000  H
  C90      1.0000 0.20047  0.97780  0.50844  Biso   1.000  C
  H94      1.0000 0.23475  0.94355  0.48835  Biso   1.000  H
  H95      1.0000 0.23086  0.99524  0.55839  Biso   1.000  H
  C91      1.0000 0.12251  0.95069  0.52750  Biso   1.000  C
  C92      1.0000 0.06009  0.92706  0.54198  Biso   1.000  C
  H96      1.0000 0.00978  0.90801  0.55363  Biso   1.000  H
  N9       1.0000 0.64618  0.26959  0.78597  Biso   1.000  N
  C93      1.0000 0.63129  0.22419  0.71961  Biso   1.000  C
  H97      1.0000 0.66981  0.30642  0.77783  Biso   1.000  H
  C94      1.0000 0.62426  0.25601  0.85922  Biso   1.000  C
  H98      1.0000 0.63804  0.24630  0.66832  Biso   1.000  H
  H99      1.0000 0.57343  0.20895  0.71677  Biso   1.000  H
  C95      1.0000 0.68881  0.16755  0.72817  Biso   1.000  C
  O29      1.0000 0.59257  0.20471  0.87448  Biso   1.000  O
  C96      1.0000 0.64114  0.30542  0.92414  Biso   1.000  C
  C97      1.0000 0.65747  0.10609  0.73511  Biso   1.000  C
  C98      1.0000 0.77350  0.17517  0.72836  Biso   1.000  C
  C99      1.0000 0.65683  0.36892  0.90894  Biso   1.000  C
  C100     1.0000 0.64145  0.28474  0.00360  Biso   1.000  C
  O30      1.0000 0.57281  0.09766  0.72920  Biso   1.000  O
  C101     1.0000 0.71080  0.05436  0.74308  Biso   1.000  C
  O31      1.0000 0.80270  0.23567  0.71400  Biso   1.000  O
  C102     1.0000 0.82731  0.12348  0.73728  Biso   1.000  C
  H100     1.0000 0.65694  0.38335  0.85500  Biso   1.000  H
  C103     1.0000 0.67237  0.41165  0.97289  Biso   1.000  C
  C104     1.0000 0.65874  0.32719  0.06719  Biso   1.000  C
  H101     1.0000 0.62981  0.24144  0.01434  Biso   1.000  H
  C105     1.0000 0.54213  0.07136  0.80015  Biso   1.000  C
  C106     1.0000 0.79575  0.06207  0.74501  Biso   1.000  C
  O32      1.0000 0.68002  0.99366  0.75219  Biso   1.000  O
  C107     1.0000 0.85280  0.26426  0.78097  Biso   1.000  C
  O33      1.0000 0.91197  0.13206  0.74211  Biso   1.000  O
  O34      1.0000 0.68925  0.47273  0.94906  Biso   1.000  O
  C108     1.0000 0.67318  0.39131  0.05181  Biso   1.000  C
  C109     1.0000 0.66641  0.30594  0.15407  Biso   1.000  C
  H102     1.0000 0.57413  0.08870  0.84854  Biso   1.000  H
  H103     1.0000 0.54781  0.02492  0.79973  Biso   1.000  H
  H104     1.0000 0.48363  0.08270  0.80033  Biso   1.000  H
  C110     1.0000 0.85145  0.00429  0.75110  Biso   1.000  C
  C111     1.0000 0.64395  0.96632  0.67810  Biso   1.000  C
  H105     1.0000 0.82290  0.26307  0.82887  Biso   1.000  H
  H106     1.0000 0.86475  0.30861  0.76799  Biso   1.000  H
  H107     1.0000 0.90485  0.24063  0.79171  Biso   1.000  H
  C112     1.0000 0.94322  0.14130  0.66639  Biso   1.000  C
  C113     1.0000 0.70046  0.52222  0.00843  Biso   1.000  C
  H108     1.0000 0.68337  0.42066  0.09507  Biso   1.000  H
  O35      1.0000 0.67186  0.34477  0.20874  Biso   1.000  O
  N10      1.0000 0.66724  0.24358  0.16735  Biso   1.000  N
  H109     1.0000 0.90753  0.01705  0.73934  Biso   1.000  H
  N11      1.0000 0.85718  0.97475  0.83050  Biso   1.000  N
  H110     1.0000 0.82993  0.97275  0.70989  Biso   1.000  H
  H111     1.0000 0.62410  0.92330  0.68817  Biso   1.000  H
  H112     1.0000 0.68553  0.96427  0.63991  Biso   1.000  H
  H113     1.0000 0.59731  0.99271  0.65535  Biso   1.000  H
  H114     1.0000 0.92054  0.18079  0.64165  Biso   1.000  H
  H115     1.0000 0.92695  0.10528  0.63079  Biso   1.000  H
  H116     1.0000 0.00379  0.14416  0.67472  Biso   1.000  H
  H117     1.0000 0.73473  0.55648  0.98834  Biso   1.000  H
  H118     1.0000 0.73084  0.50479  0.05838  Biso   1.000  H
  C114     1.0000 0.62249  0.54928  0.02749  Biso   1.000  C
  H119     1.0000 0.66013  0.21766  0.12572  Biso   1.000  H
  C115     1.0000 0.67950  0.21638  0.24850  Biso   1.000  C
  H120     1.0000 0.87960  0.99690  0.87207  Biso   1.000  H
  C116     1.0000 0.83026  0.91592  0.84390  Biso   1.000  C
  C117     1.0000 0.56008  0.57291  0.04197  Biso   1.000  C
  C118     1.0000 0.73810  0.16050  0.25194  Biso   1.000  C
  H121     1.0000 0.62550  0.20232  0.26455  Biso   1.000  H
  H122     1.0000 0.70215  0.24939  0.28717  Biso   1.000  H
  O36      1.0000 0.79793  0.88128  0.78929  Biso   1.000  O
  C119     1.0000 0.83868  0.89419  0.93023  Biso   1.000  C
  H123     1.0000 0.50976  0.59202  0.05362  Biso   1.000  H
  C120     1.0000 0.82228  0.17079  0.24874  Biso   1.000  C
  C121     1.0000 0.71038  0.09823  0.25881  Biso   1.000  C
  C122     1.0000 0.88253  0.92883  0.99202  Biso   1.000  C
  C123     1.0000 0.79552  0.83950  0.94803  Biso   1.000  C
  O37      1.0000 0.84814  0.23258  0.23740  Biso   1.000  O
  C124     1.0000 0.87824  0.12038  0.25272  Biso   1.000  C
  O38      1.0000 0.62670  0.08651  0.25725  Biso   1.000  O
  C125     1.0000 0.76667  0.04769  0.26467  Biso   1.000  C
  H124     1.0000 0.91453  0.96465  0.97959  Biso   1.000  H
  C126     1.0000 0.87953  0.91106  0.07214  Biso   1.000  C
  H125     1.0000 0.76682  0.81502  0.90592  Biso   1.000  H
  C127     1.0000 0.79491  0.82126  0.02804  Biso   1.000  C
  C128     1.0000 0.89742  0.25959  0.30587  Biso   1.000  C
  O39      1.0000 0.96171  0.13196  0.25133  Biso   1.000  O
  C129     1.0000 0.85090  0.05793  0.26129  Biso   1.000  C
  C130     1.0000 0.60010  0.07651  0.33484  Biso   1.000  C
  O40      1.0000 0.74051  0.98618  0.27758  Biso   1.000  O
  C131     1.0000 0.83609  0.85703  0.09012  Biso   1.000  C
  C132     1.0000 0.91836  0.95689  0.13471  Biso   1.000  C
  O41      1.0000 0.75054  0.77038  0.05295  Biso   1.000  O
  H126     1.0000 0.86236  0.26778  0.34895  Biso   1.000  H
  H127     1.0000 0.92197  0.29970  0.29007  Biso   1.000  H
  H128     1.0000 0.94152  0.22977  0.32524  Biso   1.000  H
  C133     1.0000 0.98167  0.15021  0.17217  Biso   1.000  C
  C134     1.0000 0.91187  0.00310  0.26883  Biso   1.000  C
  H129     1.0000 0.61544  0.11343  0.36923  Biso   1.000  H
  H130     1.0000 0.62673  0.03821  0.35921  Biso   1.000  H
  H131     1.0000 0.53985  0.07103  0.32934  Biso   1.000  H
  C135     1.0000 0.69184  0.95779  0.20916  Biso   1.000  C
  H132     1.0000 0.83445  0.84455  0.14466  Biso   1.000  H
  O42      1.0000 0.96728  0.99752  0.11673  Biso   1.000  O
  N12      1.0000 0.89253  0.95379  0.20825  Biso   1.000  N
  C136     1.0000 0.72942  0.72002  0.99684  Biso   1.000  C
  H133     1.0000 0.94866  0.18751  0.15341  Biso   1.000  H
  H134     1.0000 0.96910  0.11481  0.13446  Biso   1.000  H
  H135     1.0000 0.04068  0.16069  0.17489  Biso   1.000  H
  H136     1.0000 0.91248  0.98390  0.32313  Biso   1.000  H
  H137     1.0000 0.96804  0.01982  0.26382  Biso   1.000  H
  H138     1.0000 0.68221  0.91272  0.22026  Biso   1.000  H
  H139     1.0000 0.72170  0.96146  0.16137  Biso   1.000  H
  H140     1.0000 0.63861  0.97994  0.19926  Biso   1.000  H
  H141     1.0000 0.86282  0.92078  0.22032  Biso   1.000  H
  H142     1.0000 0.70371  0.73832  0.94532  Biso   1.000  H
  C137     1.0000 0.80143  0.68267  0.98176  Biso   1.000  C
  H143     1.0000 0.68822  0.69182  0.01832  Biso   1.000  H
  C138     1.0000 0.86002  0.65257  0.97205  Biso   1.000  C
  H144     1.0000 0.90769  0.62808  0.96420  Biso   1.000  H
  N13      1.0000 0.35385  0.73041  0.21395  Biso   1.000  N
  C139     1.0000 0.37571  0.74399  0.14070  Biso   1.000  C
  H145     1.0000 0.33016  0.69358  0.22215  Biso   1.000  H
  C140     1.0000 0.36868  0.77581  0.28037  Biso   1.000  C
  C141     1.0000 0.35883  0.69458  0.07578  Biso   1.000  C
  O43      1.0000 0.40740  0.79529  0.12550  Biso   1.000  O
  H146     1.0000 0.36200  0.75370  0.33166  Biso   1.000  H
  H147     1.0000 0.42660  0.79105  0.28321  Biso   1.000  H
  C142     1.0000 0.31117  0.83245  0.27181  Biso   1.000  C
  C143     1.0000 0.34314  0.63108  0.09104  Biso   1.000  C
  C144     1.0000 0.35852  0.71526  0.99638  Biso   1.000  C
  C145     1.0000 0.34250  0.89391  0.26487  Biso   1.000  C
  C146     1.0000 0.22647  0.82483  0.27162  Biso   1.000  C
  C147     1.0000 0.32760  0.58835  0.02709  Biso   1.000  C
  H148     1.0000 0.34303  0.61665  0.14498  Biso   1.000  H
  C148     1.0000 0.34124  0.67281  0.93279  Biso   1.000  C
  H149     1.0000 0.37017  0.75856  0.98564  Biso   1.000  H
  O44      1.0000 0.42717  0.90234  0.27078  Biso   1.000  O
  C149     1.0000 0.28917  0.94564  0.25690  Biso   1.000  C
  O45      1.0000 0.19727  0.76433  0.28598  Biso   1.000  O
  C150     1.0000 0.17267  0.87652  0.26270  Biso   1.000  C
  O46      1.0000 0.31073  0.52727  0.05092  Biso   1.000  O
  C151     1.0000 0.32685  0.60869  0.94817  Biso   1.000  C
  C152     1.0000 0.33356  0.69406  0.84591  Biso   1.000  C
  C153     1.0000 0.45784  0.92864  0.19983  Biso   1.000  C
  C154     1.0000 0.20422  0.93793  0.25497  Biso   1.000  C
  O47      1.0000 0.31996  0.00634  0.24779  Biso   1.000  O
  C155     1.0000 0.14717  0.73574  0.21901  Biso   1.000  C
  O48      1.0000 0.08800  0.86794  0.25781  Biso   1.000  O
  C156     1.0000 0.29952  0.47778  0.99155  Biso   1.000  C
  H150     1.0000 0.31661  0.57934  0.90491  Biso   1.000  H
  O49      1.0000 0.32818  0.65523  0.79124  Biso   1.000  O
  N14      1.0000 0.33274  0.75642  0.83263  Biso   1.000  N
  H151     1.0000 0.42585  0.91130  0.15144  Biso   1.000  H
  H152     1.0000 0.45217  0.97508  0.20025  Biso   1.000  H
  H153     1.0000 0.51634  0.91730  0.19965  Biso   1.000  H
  C157     1.0000 0.14852  0.99571  0.24888  Biso   1.000  C
  C158     1.0000 0.35609  0.03368  0.32188  Biso   1.000  C
  H154     1.0000 0.17707  0.73693  0.17111  Biso   1.000  H
  H155     1.0000 0.13522  0.69139  0.23199  Biso   1.000  H
  H156     1.0000 0.09512  0.75937  0.20821  Biso   1.000  H
  C159     1.0000 0.05676  0.85870  0.33359  Biso   1.000  C
  H157     1.0000 0.26524  0.44352  0.01164  Biso   1.000  H
  H158     1.0000 0.26913  0.49521  0.94160  Biso   1.000  H
  C160     1.0000 0.37748  0.45072  0.97249  Biso   1.000  C
  H159     1.0000 0.33984  0.78234  0.87426  Biso   1.000  H
  C161     1.0000 0.32048  0.78362  0.75148  Biso   1.000  C
  H160     1.0000 0.09244  0.98295  0.26064  Biso   1.000  H
  N15      1.0000 0.14280  0.02525  0.16948  Biso   1.000  N
  H161     1.0000 0.17004  0.02725  0.29003  Biso   1.000  H
  H162     1.0000 0.37587  0.07670  0.31181  Biso   1.000  H
  H163     1.0000 0.31444  0.03573  0.36007  Biso   1.000  H
  H164     1.0000 0.40266  0.00729  0.34463  Biso   1.000  H
  H165     1.0000 0.07949  0.81921  0.35833  Biso   1.000  H
  H166     1.0000 0.07303  0.89472  0.36919  Biso   1.000  H
  H167     1.0000 0.99619  0.85584  0.32526  Biso   1.000  H
  C162     1.0000 0.43990  0.42709  0.95801  Biso   1.000  C
  C163     1.0000 0.26188  0.83950  0.74804  Biso   1.000  C
  H168     1.0000 0.37447  0.79768  0.73543  Biso   1.000  H
  H169     1.0000 0.29783  0.75061  0.71281  Biso   1.000  H
  H170     1.0000 0.12037  0.00310  0.12791  Biso   1.000  H
  C164     1.0000 0.16971  0.08408  0.15608  Biso   1.000  C
  H171     1.0000 0.49021  0.40798  0.94636  Biso   1.000  H
  C165     1.0000 0.17769  0.82921  0.75124  Biso   1.000  C
  C166     1.0000 0.28965  0.90177  0.74117  Biso   1.000  C
  O50      1.0000 0.20204  0.11872  0.21069  Biso   1.000  O
  C167     1.0000 0.16130  0.10581  0.06975  Biso   1.000  C
  O51      1.0000 0.15184  0.76742  0.76258  Biso   1.000  O
  C168     1.0000 0.12173  0.87962  0.74726  Biso   1.000  C
  O52      1.0000 0.37327  0.91349  0.74273  Biso   1.000  O
  C169     1.0000 0.23336  0.95231  0.73531  Biso   1.000  C
  C170     1.0000 0.11745  0.07117  0.00796  Biso   1.000  C
  C171     1.0000 0.20445  0.16050  0.05195  Biso   1.000  C
  C172     1.0000 0.10255  0.74041  0.69411  Biso   1.000  C
  O53      1.0000 0.03827  0.86804  0.74865  Biso   1.000  O
  C173     1.0000 0.14913  0.94207  0.73869  Biso   1.000  C
  C174     1.0000 0.39987  0.92349  0.66514  Biso   1.000  C
  O54      1.0000 0.25947  0.01382  0.72240  Biso   1.000  O
  C175     1.0000 0.12044  0.08894  0.92784  Biso   1.000  C
  H172     1.0000 0.08544  0.03535  0.02039  Biso   1.000  H
  C176     1.0000 0.20506  0.17874  0.97194  Biso   1.000  C
  H173     1.0000 0.23314  0.18498  0.09400  Biso   1.000  H
  H174     1.0000 0.13761  0.73222  0.65103  Biso   1.000  H
  H175     1.0000 0.07807  0.70030  0.70991  Biso   1.000  H
  H176     1.0000 0.05846  0.77023  0.67474  Biso   1.000  H
  C177     1.0000 0.01830  0.84979  0.82781  Biso   1.000  C
  C178     1.0000 0.08810  0.99690  0.73115  Biso   1.000  C
  H177     1.0000 0.38459  0.88657  0.63069  Biso   1.000  H
  H178     1.0000 0.37324  0.96179  0.64077  Biso   1.000  H
  H179     1.0000 0.46012  0.92897  0.67064  Biso   1.000  H
  C179     1.0000 0.30813  0.04221  0.79082  Biso   1.000  C
  C180     1.0000 0.08161  0.04311  0.86527  Biso   1.000  C
  C181     1.0000 0.16388  0.14297  0.90986  Biso   1.000  C
  O55      1.0000 0.24944  0.22962  0.94703  Biso   1.000  O
  H180     1.0000 0.95934  0.83931  0.82503  Biso   1.000  H
  H181     1.0000 0.05131  0.81249  0.84657  Biso   1.000  H
  H182     1.0000 0.03087  0.88519  0.86551  Biso   1.000  H
  H183     1.0000 0.03192  0.98018  0.73610  Biso   1.000  H
  N16      1.0000 0.10744  0.04621  0.79173  Biso   1.000  N
  H184     1.0000 0.08749  0.01610  0.67685  Biso   1.000  H
  H185     1.0000 0.31776  0.08728  0.77972  Biso   1.000  H
  H186     1.0000 0.27828  0.03854  0.83861  Biso   1.000  H
  H187     1.0000 0.36137  0.02006  0.80072  Biso   1.000  H
  O56      1.0000 0.03269  0.00248  0.88319  Biso   1.000  O
  H188     1.0000 0.16553  0.15545  0.85532  Biso   1.000  H
  C182     1.0000 0.27055  0.27998  0.00314  Biso   1.000  C
  H189     1.0000 0.13721  0.07922  0.77966  Biso   1.000  H
  H190     1.0000 0.31175  0.30818  0.98166  Biso   1.000  H
  H191     1.0000 0.29632  0.26168  0.05466  Biso   1.000  H
  C183     1.0000 0.19854  0.31733  0.01822  Biso   1.000  C
  C184     1.0000 0.13995  0.34743  0.02793  Biso   1.000  C
  H192     1.0000 0.09229  0.37192  0.03578  Biso   1.000  H
