data_image0
_cell_length_a       11.257
_cell_length_b       13.324
_cell_length_c       20.972
_cell_angle_alpha    90
_cell_angle_beta     91.95
_cell_angle_gamma    90

_symmetry_space_group_name_H-M    "P 1"
_symmetry_int_tables_number       1

loop_
  _symmetry_equiv_pos_as_xyz
  'x, y, z'

loop_
  _atom_site_label
  _atom_site_occupancy
  _atom_site_fract_x
  _atom_site_fract_y
  _atom_site_fract_z
  _atom_site_thermal_displace_type
  _atom_site_B_iso_or_equiv
  _atom_site_type_symbol
  C1       1.0000 0.68603  0.43808  0.54461  Biso   1.000  C
  N1       1.0000 0.68242  0.39110  0.59690  Biso   1.000  N
  C2       1.0000 0.79056  0.42953  0.50358  Biso   1.000  C
  H1       1.0000 0.62114  0.47959  0.53140  Biso   1.000  H
  C3       1.0000 0.57642  0.40663  0.63440  Biso   1.000  C
  N2       1.0000 0.78248  0.48551  0.45029  Biso   1.000  N
  C4       1.0000 0.88422  0.36663  0.51809  Biso   1.000  C
  C5       1.0000 0.51928  0.30531  0.64962  Biso   1.000  C
  H2       1.0000 0.51855  0.44889  0.61002  Biso   1.000  H
  H3       1.0000 0.59869  0.44183  0.67462  Biso   1.000  H
  N3       1.0000 0.87107  0.48221  0.40869  Biso   1.000  N
  H4       1.0000 0.88617  0.32723  0.55582  Biso   1.000  H
  C6       1.0000 0.97519  0.36250  0.47601  Biso   1.000  C
  N4       1.0000 0.47531  0.24940  0.59352  Biso   1.000  N
  H5       1.0000 0.57862  0.26351  0.67329  Biso   1.000  H
  H6       1.0000 0.45215  0.31710  0.67801  Biso   1.000  H
  C7       1.0000 0.96415  0.42157  0.42100  Biso   1.000  C
  H7       1.0000 0.04276  0.32107  0.48388  Biso   1.000  H
  C8       1.0000 0.37007  0.29893  0.56589  Biso   1.000  C
  C9       1.0000 0.44919  0.14628  0.61031  Biso   1.000  C
  C10      1.0000 0.05665  0.42397  0.37238  Biso   1.000  C
  C11      1.0000 0.33583  0.25991  0.49800  Biso   1.000  C
  H8       1.0000 0.38495  0.37204  0.56379  Biso   1.000  H
  H9       1.0000 0.30256  0.28798  0.59409  Biso   1.000  H
  H10      1.0000 0.40340  0.11461  0.57462  Biso   1.000  H
  H11      1.0000 0.39846  0.14613  0.64800  Biso   1.000  H
  C12      1.0000 0.55994  0.08323  0.62539  Biso   1.000  C
  N5       1.0000 0.14692  0.36791  0.37682  Biso   1.000  N
  H12      1.0000 0.04786  0.46870  0.33731  Biso   1.000  H
  N6       1.0000 0.42943  0.28377  0.45411  Biso   1.000  N
  H13      1.0000 0.32383  0.18643  0.49929  Biso   1.000  H
  H14      1.0000 0.26034  0.29143  0.48292  Biso   1.000  H
  H15      1.0000 0.61002  0.11723  0.65859  Biso   1.000  H
  H16      1.0000 0.53631  0.01704  0.64218  Biso   1.000  H
  N7       1.0000 0.62818  0.06920  0.56809  Biso   1.000  N
  C13      1.0000 0.23387  0.37856  0.32739  Biso   1.000  C
  C14      1.0000 0.46860  0.21030  0.42319  Biso   1.000  C
  C15      1.0000 0.73100  0.10718  0.56880  Biso   1.000  C
  C16      1.0000 0.25093  0.27867  0.29251  Biso   1.000  C
  H17      1.0000 0.31071  0.40063  0.34700  Biso   1.000  H
  H18      1.0000 0.20677  0.43050  0.29652  Biso   1.000  H
  C17      1.0000 0.56297  0.22328  0.37600  Biso   1.000  C
  H19      1.0000 0.43707  0.14523  0.43030  Biso   1.000  H
  C18      1.0000 0.81080  0.09779  0.51451  Biso   1.000  C
  H20      1.0000 0.75812  0.14313  0.60559  Biso   1.000  H
  N8       1.0000 0.14297  0.24099  0.25978  Biso   1.000  N
  H21      1.0000 0.31314  0.28753  0.26069  Biso   1.000  H
  H22      1.0000 0.27965  0.22778  0.32371  Biso   1.000  H
  N9       1.0000 0.58443  0.14140  0.34180  Biso   1.000  N
  C19      1.0000 0.62245  0.31319  0.36842  Biso   1.000  C
  N10      1.0000 0.92267  0.12826  0.52892  Biso   1.000  N
  C20      1.0000 0.77667  0.06162  0.45539  Biso   1.000  C
  C21      1.0000 0.10241  0.30719  0.20849  Biso   1.000  C
  C22      1.0000 0.16159  0.13870  0.23688  Biso   1.000  C
  N11      1.0000 0.67150  0.14388  0.29852  Biso   1.000  N
  H23      1.0000 0.60366  0.37068  0.39289  Biso   1.000  H
  C23      1.0000 0.70946  0.31642  0.32429  Biso   1.000  C
  N12      1.0000 0.00604  0.12391  0.48488  Biso   1.000  N
  H24      1.0000 0.69732  0.03978  0.44671  Biso   1.000  H
  C24      1.0000 0.85912  0.05749  0.40940  Biso   1.000  C
  C25      1.0000 0.97964  0.28302  0.18182  Biso   1.000  C
  H25      1.0000 0.15936  0.30329  0.17362  Biso   1.000  H
  H26      1.0000 0.10306  0.37706  0.22448  Biso   1.000  H
  C26      1.0000 0.17262  0.06072  0.28898  Biso   1.000  C
  H27      1.0000 0.23490  0.13750  0.21198  Biso   1.000  H
  H28      1.0000 0.09444  0.12023  0.20759  Biso   1.000  H
  C27      1.0000 0.73310  0.22884  0.29079  Biso   1.000  C
  H29      1.0000 0.75216  0.37639  0.31680  Biso   1.000  H
  C28      1.0000 0.97450  0.08931  0.42591  Biso   1.000  C
  H30      1.0000 0.83906  0.03400  0.36761  Biso   1.000  H
  N13      1.0000 0.88963  0.29661  0.23068  Biso   1.000  N
  H31      1.0000 0.96051  0.32738  0.14499  Biso   1.000  H
  H32      1.0000 0.97760  0.21270  0.16651  Biso   1.000  H
  H33      1.0000 0.18643  0.99392  0.26999  Biso   1.000  H
  N14      1.0000 0.06356  0.05832  0.32572  Biso   1.000  N
  H34      1.0000 0.24152  0.07678  0.31780  Biso   1.000  H
  C29      1.0000 0.82483  0.22208  0.24261  Biso   1.000  C
  C30      1.0000 0.07501  0.08849  0.38311  Biso   1.000  C
  H35      1.0000 0.83540  0.16099  0.22009  Biso   1.000  H
  H36      1.0000 0.15053  0.11108  0.39871  Biso   1.000  H
  C31      1.0000 0.31402  0.56192  0.45539  Biso   1.000  C
  N15      1.0000 0.31773  0.60890  0.40310  Biso   1.000  N
  C32      1.0000 0.20958  0.57047  0.49638  Biso   1.000  C
  H37      1.0000 0.37900  0.52041  0.46861  Biso   1.000  H
  C33      1.0000 0.42373  0.59337  0.36560  Biso   1.000  C
  N16      1.0000 0.21767  0.51449  0.54972  Biso   1.000  N
  C34      1.0000 0.11583  0.63337  0.48192  Biso   1.000  C
  C35      1.0000 0.48086  0.69469  0.35038  Biso   1.000  C
  H38      1.0000 0.48159  0.55111  0.38998  Biso   1.000  H
  H39      1.0000 0.40146  0.55817  0.32538  Biso   1.000  H
  N17      1.0000 0.12907  0.51779  0.59132  Biso   1.000  N
  H40      1.0000 0.11397  0.67277  0.44418  Biso   1.000  H
  C36      1.0000 0.02496  0.63750  0.52400  Biso   1.000  C
  N18      1.0000 0.52484  0.75060  0.40649  Biso   1.000  N
  H41      1.0000 0.42153  0.73649  0.32672  Biso   1.000  H
  H42      1.0000 0.54791  0.68290  0.32200  Biso   1.000  H
  C37      1.0000 0.03599  0.57843  0.57901  Biso   1.000  C
  H43      1.0000 0.95739  0.67893  0.51608  Biso   1.000  H
  C38      1.0000 0.63008  0.70107  0.43412  Biso   1.000  C
  C39      1.0000 0.55095  0.85372  0.38970  Biso   1.000  C
  C40      1.0000 0.94349  0.57603  0.62758  Biso   1.000  C
  H44      1.0000 0.61520  0.62796  0.43621  Biso   1.000  H
  H45      1.0000 0.69758  0.71202  0.40592  Biso   1.000  H
  C41      1.0000 0.66423  0.74009  0.50201  Biso   1.000  C
  H46      1.0000 0.59675  0.88539  0.42538  Biso   1.000  H
  H47      1.0000 0.60169  0.85387  0.35201  Biso   1.000  H
  C42      1.0000 0.44011  0.91677  0.37462  Biso   1.000  C
  H48      1.0000 0.95229  0.53130  0.66270  Biso   1.000  H
  N19      1.0000 0.85322  0.63209  0.62319  Biso   1.000  N
  H49      1.0000 0.67623  0.81357  0.50072  Biso   1.000  H
  H50      1.0000 0.73981  0.70857  0.51708  Biso   1.000  H
  N20      1.0000 0.57063  0.71623  0.54590  Biso   1.000  N
  H51      1.0000 0.39013  0.88277  0.34141  Biso   1.000  H
  H52      1.0000 0.46383  0.98296  0.35778  Biso   1.000  H
  N21      1.0000 0.37197  0.93080  0.43192  Biso   1.000  N
  C43      1.0000 0.76628  0.62144  0.67262  Biso   1.000  C
  C44      1.0000 0.53155  0.78970  0.57682  Biso   1.000  C
  C45      1.0000 0.26914  0.89282  0.43121  Biso   1.000  C
  H53      1.0000 0.68935  0.59937  0.65301  Biso   1.000  H
  H54      1.0000 0.79338  0.56950  0.70349  Biso   1.000  H
  C46      1.0000 0.74921  0.72133  0.70750  Biso   1.000  C
  C47      1.0000 0.43718  0.77672  0.62400  Biso   1.000  C
  H55      1.0000 0.56308  0.85477  0.56971  Biso   1.000  H
  C48      1.0000 0.18935  0.90221  0.48550  Biso   1.000  C
  H56      1.0000 0.24202  0.85687  0.39442  Biso   1.000  H
  N22      1.0000 0.85718  0.75901  0.74022  Biso   1.000  N
  H57      1.0000 0.68700  0.71247  0.73932  Biso   1.000  H
  H58      1.0000 0.72050  0.77222  0.67629  Biso   1.000  H
  N23      1.0000 0.41572  0.85860  0.65821  Biso   1.000  N
  C49      1.0000 0.37770  0.68681  0.63159  Biso   1.000  C
  N24      1.0000 0.07748  0.87174  0.47109  Biso   1.000  N
  C50      1.0000 0.22347  0.93838  0.54461  Biso   1.000  C
  C51      1.0000 0.89774  0.69281  0.79151  Biso   1.000  C
  C52      1.0000 0.83846  0.86130  0.76313  Biso   1.000  C
  N25      1.0000 0.32856  0.85612  0.70148  Biso   1.000  N
  H59      1.0000 0.39649  0.62932  0.60711  Biso   1.000  H
  C53      1.0000 0.29068  0.68358  0.67572  Biso   1.000  C
  N26      1.0000 0.99410  0.87609  0.51508  Biso   1.000  N
  H60      1.0000 0.30273  0.96022  0.55330  Biso   1.000  H
  C54      1.0000 0.14102  0.94251  0.59061  Biso   1.000  C
  C55      1.0000 0.02051  0.71698  0.81818  Biso   1.000  C
  H61      1.0000 0.84079  0.69671  0.82639  Biso   1.000  H
  H62      1.0000 0.89708  0.62294  0.77548  Biso   1.000  H
  C56      1.0000 0.82752  0.93928  0.71098  Biso   1.000  C
  H63      1.0000 0.76524  0.86250  0.78798  Biso   1.000  H
  H64      1.0000 0.90570  0.87977  0.79242  Biso   1.000  H
  C57      1.0000 0.26695  0.77116  0.70921  Biso   1.000  C
  H65      1.0000 0.24798  0.62361  0.68321  Biso   1.000  H
  C58      1.0000 0.02565  0.91069  0.57410  Biso   1.000  C
  H66      1.0000 0.16108  0.96600  0.63240  Biso   1.000  H
  N27      1.0000 0.11051  0.70339  0.76928  Biso   1.000  N
  H67      1.0000 0.03963  0.67262  0.85502  Biso   1.000  H
  H68      1.0000 0.02255  0.78730  0.83350  Biso   1.000  H
  N28      1.0000 0.93659  0.94168  0.67429  Biso   1.000  N
  H69      1.0000 0.75862  0.92322  0.68221  Biso   1.000  H
  H70      1.0000 0.81371  0.00608  0.73001  Biso   1.000  H
  C59      1.0000 0.17531  0.77792  0.75740  Biso   1.000  C
  C60      1.0000 0.92504  0.91151  0.61689  Biso   1.000  C
  H71      1.0000 0.16466  0.83901  0.77992  Biso   1.000  H
  H72      1.0000 0.84961  0.88892  0.60129  Biso   1.000  H
  N29      1.0000 0.67157  0.35612  0.79848  Biso   1.000  N
  C61      1.0000 0.73317  0.27116  0.79080  Biso   1.000  C
  N30      1.0000 0.58450  0.35860  0.84180  Biso   1.000  N
  C62      1.0000 0.82490  0.27792  0.74261  Biso   1.000  C
  C63      1.0000 0.70953  0.18358  0.82429  Biso   1.000  C
  C64      1.0000 0.56304  0.27672  0.87601  Biso   1.000  C
  H73      1.0000 0.83547  0.33901  0.72009  Biso   1.000  H
  N31      1.0000 0.88971  0.20339  0.73068  Biso   1.000  N
  C65      1.0000 0.62252  0.18681  0.86842  Biso   1.000  C
  H74      1.0000 0.75223  0.12361  0.81680  Biso   1.000  H
  C66      1.0000 0.46858  0.28970  0.92319  Biso   1.000  C
  C67      1.0000 0.97970  0.21698  0.68178  Biso   1.000  C
  H75      1.0000 0.60373  0.12932  0.89290  Biso   1.000  H
  N32      1.0000 0.42950  0.21623  0.95411  Biso   1.000  N
  H76      1.0000 0.43714  0.35477  0.93030  Biso   1.000  H
  H77      1.0000 0.96058  0.17262  0.64499  Biso   1.000  H
  H78      1.0000 0.97767  0.28730  0.66651  Biso   1.000  H
  C68      1.0000 0.10248  0.19281  0.70850  Biso   1.000  C
  C69      1.0000 0.33590  0.24009  0.99800  Biso   1.000  C
  H79      1.0000 0.15943  0.19671  0.67362  Biso   1.000  H
  H80      1.0000 0.10314  0.12294  0.72448  Biso   1.000  H
  N33      1.0000 0.14304  0.25901  0.75979  Biso   1.000  N
  H81      1.0000 0.32390  0.31357  0.99929  Biso   1.000  H
  H82      1.0000 0.26041  0.20857  0.98288  Biso   1.000  H
  C70      1.0000 0.36996  0.20107  0.06589  Biso   1.000  C
  C71      1.0000 0.25100  0.22133  0.79252  Biso   1.000  C
  C72      1.0000 0.16166  0.36130  0.73688  Biso   1.000  C
  N34      1.0000 0.47520  0.25060  0.09352  Biso   1.000  N
  H83      1.0000 0.38484  0.12796  0.06380  Biso   1.000  H
  H84      1.0000 0.30246  0.21202  0.09409  Biso   1.000  H
  C73      1.0000 0.23394  0.12144  0.82739  Biso   1.000  C
  H85      1.0000 0.31321  0.21247  0.76069  Biso   1.000  H
  H86      1.0000 0.27972  0.27222  0.82372  Biso   1.000  H
  C74      1.0000 0.17270  0.43928  0.78898  Biso   1.000  C
  H87      1.0000 0.23497  0.36250  0.71198  Biso   1.000  H
  H88      1.0000 0.09451  0.37977  0.70759  Biso   1.000  H
  C75      1.0000 0.51918  0.19469  0.14963  Biso   1.000  C
  C76      1.0000 0.44908  0.35372  0.11031  Biso   1.000  C
  N35      1.0000 0.14699  0.13209  0.87682  Biso   1.000  N
  H89      1.0000 0.31078  0.09937  0.84700  Biso   1.000  H
  H90      1.0000 0.20684  0.06950  0.79652  Biso   1.000  H
  N36      1.0000 0.06363  0.44168  0.82572  Biso   1.000  N
  H91      1.0000 0.18650  0.50608  0.77000  Biso   1.000  H
  H92      1.0000 0.24159  0.42322  0.81780  Biso   1.000  H
  H93      1.0000 0.57851  0.23649  0.17329  Biso   1.000  H
  H94      1.0000 0.45213  0.18290  0.17801  Biso   1.000  H
  C77      1.0000 0.57631  0.09337  0.13441  Biso   1.000  C
  H95      1.0000 0.40329  0.38539  0.07463  Biso   1.000  H
  H96      1.0000 0.39835  0.35387  0.14800  Biso   1.000  H
  C78      1.0000 0.55984  0.41677  0.12539  Biso   1.000  C
  C79      1.0000 0.05672  0.07603  0.87238  Biso   1.000  C
  C80      1.0000 0.07508  0.41151  0.88312  Biso   1.000  C
  H97      1.0000 0.51845  0.05111  0.11003  Biso   1.000  H
  H98      1.0000 0.59858  0.05817  0.17463  Biso   1.000  H
  N37      1.0000 0.68231  0.10890  0.09691  Biso   1.000  N
  H99      1.0000 0.60991  0.38277  0.15860  Biso   1.000  H
  H100     1.0000 0.53621  0.48296  0.14218  Biso   1.000  H
  N38      1.0000 0.62807  0.43080  0.06809  Biso   1.000  N
  C81      1.0000 0.96422  0.07843  0.92100  Biso   1.000  C
  H101     1.0000 0.04793  0.03130  0.83731  Biso   1.000  H
  C82      1.0000 0.97448  0.41069  0.92591  Biso   1.000  C
  H102     1.0000 0.15060  0.38892  0.89872  Biso   1.000  H
  C83      1.0000 0.68601  0.06192  0.04462  Biso   1.000  C
  C84      1.0000 0.73090  0.39282  0.06881  Biso   1.000  C
  N39      1.0000 0.87114  0.01779  0.90869  Biso   1.000  N
  C85      1.0000 0.97526  0.13750  0.97601  Biso   1.000  C
  C86      1.0000 0.85920  0.44251  0.90941  Biso   1.000  C
  N40      1.0000 0.00611  0.37609  0.98488  Biso   1.000  N
  C87      1.0000 0.79046  0.07047  0.00359  Biso   1.000  C
  H103     1.0000 0.62104  0.02041  0.03140  Biso   1.000  H
  C88      1.0000 0.81069  0.40221  0.01451  Biso   1.000  C
  H104     1.0000 0.75801  0.35687  0.10559  Biso   1.000  H
  N41      1.0000 0.78255  0.01449  0.95029  Biso   1.000  N
  C89      1.0000 0.88421  0.13337  0.01809  Biso   1.000  C
  H105     1.0000 0.04283  0.17893  0.98388  Biso   1.000  H
  C90      1.0000 0.77674  0.43838  0.95540  Biso   1.000  C
  H106     1.0000 0.83914  0.46600  0.86761  Biso   1.000  H
  N42      1.0000 0.92256  0.37174  0.02892  Biso   1.000  N
  H107     1.0000 0.88607  0.17277  0.05583  Biso   1.000  H
  H108     1.0000 0.69740  0.46022  0.94671  Biso   1.000  H
  N43      1.0000 0.32849  0.64388  0.20148  Biso   1.000  N
  N44      1.0000 0.41564  0.64140  0.15821  Biso   1.000  N
  C91      1.0000 0.26697  0.72884  0.20921  Biso   1.000  C
  C92      1.0000 0.43710  0.72328  0.12400  Biso   1.000  C
  C93      1.0000 0.29061  0.81642  0.17572  Biso   1.000  C
  C94      1.0000 0.17524  0.72208  0.25740  Biso   1.000  C
  C95      1.0000 0.37762  0.81319  0.13158  Biso   1.000  C
  C96      1.0000 0.53148  0.71030  0.07681  Biso   1.000  C
  H109     1.0000 0.24791  0.87639  0.18321  Biso   1.000  H
  H110     1.0000 0.16468  0.66099  0.27992  Biso   1.000  H
  N45      1.0000 0.11044  0.79661  0.26932  Biso   1.000  N
  H111     1.0000 0.39641  0.87068  0.10711  Biso   1.000  H
  N46      1.0000 0.57065  0.78377  0.04590  Biso   1.000  N
  H112     1.0000 0.56300  0.64523  0.06970  Biso   1.000  H
  C97      1.0000 0.02044  0.78302  0.31818  Biso   1.000  C
  C98      1.0000 0.66416  0.75991  0.00200  Biso   1.000  C
  H113     1.0000 0.03956  0.82738  0.35501  Biso   1.000  H
  H114     1.0000 0.02247  0.71270  0.33349  Biso   1.000  H
  C99      1.0000 0.89767  0.80719  0.29151  Biso   1.000  C
  H115     1.0000 0.67616  0.68643  0.00072  Biso   1.000  H
  H116     1.0000 0.73973  0.79143  0.01708  Biso   1.000  H
  C100     1.0000 0.63018  0.79893  0.93411  Biso   1.000  C
  H117     1.0000 0.84071  0.80329  0.32639  Biso   1.000  H
  H118     1.0000 0.89701  0.87706  0.27548  Biso   1.000  H
  N47      1.0000 0.85710  0.74099  0.24022  Biso   1.000  N
  N48      1.0000 0.52494  0.74940  0.90649  Biso   1.000  N
  H119     1.0000 0.61522  0.87204  0.93621  Biso   1.000  H
  H120     1.0000 0.69769  0.78798  0.90592  Biso   1.000  H
  C101     1.0000 0.74914  0.77867  0.20749  Biso   1.000  C
  C102     1.0000 0.83839  0.63870  0.26312  Biso   1.000  C
  C103     1.0000 0.48097  0.80531  0.85038  Biso   1.000  C
  C104     1.0000 0.55106  0.64628  0.88969  Biso   1.000  C
  C105     1.0000 0.76621  0.87856  0.17262  Biso   1.000  C
  H121     1.0000 0.68693  0.78753  0.23931  Biso   1.000  H
  H122     1.0000 0.72042  0.72778  0.17629  Biso   1.000  H
  C106     1.0000 0.82745  0.56072  0.21102  Biso   1.000  C
  H123     1.0000 0.76517  0.63750  0.28798  Biso   1.000  H
  H124     1.0000 0.90563  0.62023  0.29242  Biso   1.000  H
  H125     1.0000 0.42163  0.76351  0.82672  Biso   1.000  H
  H126     1.0000 0.54801  0.81710  0.82199  Biso   1.000  H
  C107     1.0000 0.42383  0.90663  0.86560  Biso   1.000  C
  H127     1.0000 0.59685  0.61461  0.92538  Biso   1.000  H
  H128     1.0000 0.60170  0.64613  0.85200  Biso   1.000  H
  C108     1.0000 0.44022  0.58323  0.87462  Biso   1.000  C
  N49      1.0000 0.85315  0.86791  0.12319  Biso   1.000  N
  H129     1.0000 0.68928  0.90063  0.15301  Biso   1.000  H
  H130     1.0000 0.79330  0.93050  0.20348  Biso   1.000  H
  N50      1.0000 0.93652  0.55832  0.17429  Biso   1.000  N
  H131     1.0000 0.81364  0.49392  0.23001  Biso   1.000  H
  H132     1.0000 0.75855  0.57678  0.18221  Biso   1.000  H
  H133     1.0000 0.48161  0.94889  0.88998  Biso   1.000  H
  H134     1.0000 0.40156  0.94183  0.82538  Biso   1.000  H
  N51      1.0000 0.31783  0.89110  0.90310  Biso   1.000  N
  H135     1.0000 0.39023  0.61723  0.84141  Biso   1.000  H
  H136     1.0000 0.46393  0.51704  0.85778  Biso   1.000  H
  N52      1.0000 0.37207  0.56920  0.93192  Biso   1.000  N
  C109     1.0000 0.94342  0.92397  0.12758  Biso   1.000  C
  C110     1.0000 0.92497  0.58849  0.11689  Biso   1.000  C
  C111     1.0000 0.31413  0.93808  0.95539  Biso   1.000  C
  C112     1.0000 0.26925  0.60718  0.93120  Biso   1.000  C
  C113     1.0000 0.03592  0.92157  0.07901  Biso   1.000  C
  H137     1.0000 0.95222  0.96870  0.16269  Biso   1.000  H
  C114     1.0000 0.02557  0.58931  0.07409  Biso   1.000  C
  H138     1.0000 0.84954  0.61108  0.10129  Biso   1.000  H
  C115     1.0000 0.20968  0.92953  0.99637  Biso   1.000  C
  H139     1.0000 0.37902  0.97959  0.96861  Biso   1.000  H
  C116     1.0000 0.18945  0.59779  0.98550  Biso   1.000  C
  H140     1.0000 0.24213  0.64313  0.89442  Biso   1.000  H
  N53      1.0000 0.12900  0.98221  0.09132  Biso   1.000  N
  C117     1.0000 0.02488  0.86250  0.02400  Biso   1.000  C
  C118     1.0000 0.14095  0.55749  0.09060  Biso   1.000  C
  N54      1.0000 0.99403  0.62391  0.01508  Biso   1.000  N
  N55      1.0000 0.21760  0.98551  0.04971  Biso   1.000  N
  C119     1.0000 0.11594  0.86663  0.98192  Biso   1.000  C
  C120     1.0000 0.22340  0.56162  0.04461  Biso   1.000  C
  N56      1.0000 0.07758  0.62826  0.97109  Biso   1.000  N
  H141     1.0000 0.95731  0.82107  0.01608  Biso   1.000  H
  H142     1.0000 0.16101  0.53400  0.13240  Biso   1.000  H
  H143     1.0000 0.11408  0.82723  0.94418  Biso   1.000  H
  H144     1.0000 0.30275  0.53978  0.05329  Biso   1.000  H
