data_image0
_cell_length_a       23.404
_cell_length_b       22.517
_cell_length_c       19.144
_cell_angle_alpha    90
_cell_angle_beta     90
_cell_angle_gamma    90

_symmetry_space_group_name_H-M    "P 1"
_symmetry_int_tables_number       1

loop_
  _symmetry_equiv_pos_as_xyz
  'x, y, z'

loop_
  _atom_site_label
  _atom_site_occupancy
  _atom_site_fract_x
  _atom_site_fract_y
  _atom_site_fract_z
  _atom_site_thermal_displace_type
  _atom_site_B_iso_or_equiv
  _atom_site_type_symbol
  N1       1.0000 0.47859  0.37350  0.56122  Biso   1.000  N
  C1       1.0000 0.47838  0.34818  0.61032  Biso   1.000  C
  C2       1.0000 0.48082  0.31461  0.67630  Biso   1.000  C
  C3       1.0000 0.46180  0.33850  0.73919  Biso   1.000  C
  C4       1.0000 0.50641  0.25932  0.67838  Biso   1.000  C
  C5       1.0000 0.46398  0.30439  0.79832  Biso   1.000  C
  H1       1.0000 0.44762  0.37798  0.74112  Biso   1.000  H
  N2       1.0000 0.50859  0.22556  0.73532  Biso   1.000  N
  O1       1.0000 0.52628  0.23747  0.61690  Biso   1.000  O
  C6       1.0000 0.48791  0.24710  0.79330  Biso   1.000  C
  C7       1.0000 0.44249  0.32531  0.86622  Biso   1.000  C
  C8       1.0000 0.55149  0.18062  0.61518  Biso   1.000  C
  O2       1.0000 0.48727  0.21495  0.85170  Biso   1.000  O
  N3       1.0000 0.42741  0.34299  0.91658  Biso   1.000  N
  C9       1.0000 0.53072  0.14189  0.56650  Biso   1.000  C
  C10      1.0000 0.60041  0.16841  0.65540  Biso   1.000  C
  C11      1.0000 0.51730  0.15868  0.85499  Biso   1.000  C
  C12      1.0000 0.55670  0.08820  0.56091  Biso   1.000  C
  H2       1.0000 0.49919  0.15220  0.53761  Biso   1.000  H
  H3       1.0000 0.61592  0.19710  0.68643  Biso   1.000  H
  C13      1.0000 0.62481  0.11320  0.64809  Biso   1.000  C
  C14      1.0000 0.55589  0.15251  0.90639  Biso   1.000  C
  C15      1.0000 0.50508  0.11178  0.81122  Biso   1.000  C
  C16      1.0000 0.60417  0.07150  0.60071  Biso   1.000  C
  H4       1.0000 0.54179  0.06040  0.52821  Biso   1.000  H
  H5       1.0000 0.65681  0.10321  0.67619  Biso   1.000  H
  C17      1.0000 0.58460  0.09881  0.91543  Biso   1.000  C
  H6       1.0000 0.56358  0.18479  0.93690  Biso   1.000  H
  H7       1.0000 0.47612  0.11551  0.77669  Biso   1.000  H
  C18      1.0000 0.53478  0.06009  0.81759  Biso   1.000  C
  C19      1.0000 0.62801  0.01061  0.59481  Biso   1.000  C
  C20      1.0000 0.57721  0.05329  0.86852  Biso   1.000  C
  H8       1.0000 0.60951  0.09371  0.95408  Biso   1.000  H
  H9       1.0000 0.52649  0.02798  0.78698  Biso   1.000  H
  C21      1.0000 0.68578  0.99774  0.59711  Biso   1.000  C
  C22      1.0000 0.58550  0.96105  0.58969  Biso   1.000  C
  C23      1.0000 0.61169  0.99827  0.86920  Biso   1.000  C
  C24      1.0000 0.72949  0.04668  0.59789  Biso   1.000  C
  C25      1.0000 0.70996  0.93725  0.60431  Biso   1.000  C
  C26      1.0000 0.53939  0.96052  0.63430  Biso   1.000  C
  C27      1.0000 0.59020  0.91682  0.53928  Biso   1.000  C
  C28      1.0000 0.66942  0.99960  0.87453  Biso   1.000  C
  C29      1.0000 0.57870  0.94204  0.85828  Biso   1.000  C
  C30      1.0000 0.77273  0.04574  0.64798  Biso   1.000  C
  C31      1.0000 0.72500  0.09499  0.55171  Biso   1.000  C
  C32      1.0000 0.75919  0.92148  0.56900  Biso   1.000  C
  C33      1.0000 0.68480  0.89599  0.64892  Biso   1.000  C
  H10      1.0000 0.53320  0.99321  0.66470  Biso   1.000  H
  C34      1.0000 0.50239  0.91380  0.63539  Biso   1.000  C
  C35      1.0000 0.55221  0.86890  0.53991  Biso   1.000  C
  H11      1.0000 0.61908  0.91922  0.50460  Biso   1.000  H
  C36      1.0000 0.70390  0.05649  0.86952  Biso   1.000  C
  C37      1.0000 0.70573  0.94440  0.87761  Biso   1.000  C
  C38      1.0000 0.52799  0.93210  0.89208  Biso   1.000  C
  C39      1.0000 0.59712  0.89976  0.80882  Biso   1.000  C
  H12      1.0000 0.77662  0.01230  0.67791  Biso   1.000  H
  C40      1.0000 0.81059  0.09362  0.65483  Biso   1.000  C
  C41      1.0000 0.76239  0.14349  0.56028  Biso   1.000  C
  H13      1.0000 0.69732  0.09491  0.51541  Biso   1.000  H
  H14      1.0000 0.77709  0.94950  0.53892  Biso   1.000  H
  C42      1.0000 0.78299  0.86517  0.57689  Biso   1.000  C
  C43      1.0000 0.71009  0.83932  0.65639  Biso   1.000  C
  H15      1.0000 0.65109  0.90572  0.67400  Biso   1.000  H
  H16      1.0000 0.47261  0.91251  0.66909  Biso   1.000  H
  C44      1.0000 0.50820  0.86779  0.58713  Biso   1.000  C
  H17      1.0000 0.55691  0.83719  0.50763  Biso   1.000  H
  C45      1.0000 0.69010  0.09881  0.81963  Biso   1.000  C
  C46      1.0000 0.74889  0.06728  0.91230  Biso   1.000  C
  C47      1.0000 0.75342  0.93831  0.83243  Biso   1.000  C
  C48      1.0000 0.69279  0.89750  0.91982  Biso   1.000  C
  H18      1.0000 0.51431  0.96061  0.92452  Biso   1.000  H
  C49      1.0000 0.49568  0.87969  0.87960  Biso   1.000  C
  C50      1.0000 0.56601  0.84878  0.79701  Biso   1.000  C
  H19      1.0000 0.63139  0.90652  0.78338  Biso   1.000  H
  H20      1.0000 0.84118  0.09260  0.68742  Biso   1.000  H
  C51      1.0000 0.80179  0.14158  0.61283  Biso   1.000  C
  H21      1.0000 0.76030  0.17689  0.53009  Biso   1.000  H
  H22      1.0000 0.81589  0.85371  0.55109  Biso   1.000  H
  C52      1.0000 0.75761  0.82706  0.62270  Biso   1.000  C
  H23      1.0000 0.69292  0.81032  0.68559  Biso   1.000  H
  O3       1.0000 0.47317  0.81818  0.58342  Biso   1.000  O
  H24      1.0000 0.65758  0.09260  0.79080  Biso   1.000  H
  C53      1.0000 0.72278  0.15042  0.81049  Biso   1.000  C
  C54      1.0000 0.78269  0.11791  0.90509  Biso   1.000  C
  H25      1.0000 0.75761  0.03961  0.94818  Biso   1.000  H
  H26      1.0000 0.76440  0.97171  0.80521  Biso   1.000  H
  C55      1.0000 0.78401  0.88831  0.82559  Biso   1.000  C
  C56      1.0000 0.72368  0.84341  0.91402  Biso   1.000  C
  H27      1.0000 0.66301  0.90110  0.95330  Biso   1.000  H
  H28      1.0000 0.46150  0.87219  0.90472  Biso   1.000  H
  C57      1.0000 0.51521  0.84052  0.83060  Biso   1.000  C
  H29      1.0000 0.57990  0.81960  0.76551  Biso   1.000  H
  O4       1.0000 0.83704  0.19363  0.61685  Biso   1.000  O
  O5       1.0000 0.78431  0.76906  0.62594  Biso   1.000  O
  C58      1.0000 0.46390  0.78470  0.64119  Biso   1.000  C
  H30      1.0000 0.71419  0.17862  0.77513  Biso   1.000  H
  C59      1.0000 0.76842  0.15841  0.85599  Biso   1.000  C
  H31      1.0000 0.81512  0.12391  0.93418  Biso   1.000  H
  H32      1.0000 0.81550  0.88622  0.79450  Biso   1.000  H
  C60      1.0000 0.76782  0.83901  0.86602  Biso   1.000  C
  H33      1.0000 0.71419  0.81050  0.94270  Biso   1.000  H
  O6       1.0000 0.48248  0.78923  0.82287  Biso   1.000  O
  C61      1.0000 0.83759  0.22641  0.67739  Biso   1.000  C
  C62      1.0000 0.79580  0.74641  0.68622  Biso   1.000  C
  C63      1.0000 0.44039  0.72758  0.63122  Biso   1.000  C
  N4       1.0000 0.47744  0.80517  0.70372  Biso   1.000  N
  O7       1.0000 0.79974  0.21273  0.85285  Biso   1.000  O
  O8       1.0000 0.79713  0.78510  0.86528  Biso   1.000  O
  C64      1.0000 0.46919  0.76969  0.75763  Biso   1.000  C
  C65      1.0000 0.85789  0.28281  0.67201  Biso   1.000  C
  N5       1.0000 0.81695  0.20207  0.73579  Biso   1.000  N
  C66      1.0000 0.81811  0.68788  0.68862  Biso   1.000  C
  N6       1.0000 0.79089  0.77888  0.74619  Biso   1.000  N
  C67      1.0000 0.43232  0.69330  0.68679  Biso   1.000  C
  C68      1.0000 0.43121  0.70831  0.56002  Biso   1.000  C
  C69      1.0000 0.81828  0.23360  0.79278  Biso   1.000  C
  C70      1.0000 0.80461  0.75538  0.80673  Biso   1.000  C
  C71      1.0000 0.44650  0.71128  0.75151  Biso   1.000  C
  C72      1.0000 0.86011  0.31638  0.73381  Biso   1.000  C
  C73      1.0000 0.87370  0.30599  0.60400  Biso   1.000  C
  C74      1.0000 0.83349  0.66279  0.75110  Biso   1.000  C
  C75      1.0000 0.82499  0.65568  0.62291  Biso   1.000  C
  H34      1.0000 0.41600  0.65511  0.68068  Biso   1.000  H
  N7       1.0000 0.42189  0.69250  0.50402  Biso   1.000  N
  C76      1.0000 0.84199  0.29271  0.79430  Biso   1.000  C
  C77      1.0000 0.82751  0.69650  0.81169  Biso   1.000  C
  C78      1.0000 0.43911  0.67811  0.81310  Biso   1.000  C
  H35      1.0000 0.87438  0.35582  0.73281  Biso   1.000  H
  N8       1.0000 0.88570  0.32278  0.55072  Biso   1.000  N
  H36      1.0000 0.84789  0.62340  0.75303  Biso   1.000  H
  N9       1.0000 0.83259  0.62939  0.57292  Biso   1.000  N
  C79      1.0000 0.84511  0.32602  0.85870  Biso   1.000  C
  C80      1.0000 0.84131  0.67411  0.87913  Biso   1.000  C
  N10      1.0000 0.43189  0.64929  0.86340  Biso   1.000  N
  N11      1.0000 0.84460  0.34898  0.91151  Biso   1.000  N
  N12      1.0000 0.85468  0.65511  0.93220  Biso   1.000  N
  N13      1.0000 0.57259  0.65701  0.41658  Biso   1.000  N
  C81      1.0000 0.55751  0.67469  0.36622  Biso   1.000  C
  C82      1.0000 0.53602  0.69561  0.29832  Biso   1.000  C
  C83      1.0000 0.51209  0.75290  0.29330  Biso   1.000  C
  C84      1.0000 0.53820  0.66150  0.23919  Biso   1.000  C
  O9       1.0000 0.51273  0.78505  0.35170  Biso   1.000  O
  N14      1.0000 0.49141  0.77444  0.23532  Biso   1.000  N
  C85      1.0000 0.51918  0.68539  0.17630  Biso   1.000  C
  H37      1.0000 0.55238  0.62202  0.24112  Biso   1.000  H
  C86      1.0000 0.48270  0.84132  0.35499  Biso   1.000  C
  C87      1.0000 0.49359  0.74068  0.17838  Biso   1.000  C
  C88      1.0000 0.52162  0.65182  0.11032  Biso   1.000  C
  C89      1.0000 0.44411  0.84749  0.40639  Biso   1.000  C
  C90      1.0000 0.49492  0.88822  0.31122  Biso   1.000  C
  O10      1.0000 0.47372  0.76253  0.11690  Biso   1.000  O
  N15      1.0000 0.52141  0.62650  0.06122  Biso   1.000  N
  C91      1.0000 0.41540  0.90119  0.41538  Biso   1.000  C
  H38      1.0000 0.43642  0.81521  0.43690  Biso   1.000  H
  C92      1.0000 0.46522  0.93991  0.31759  Biso   1.000  C
  H39      1.0000 0.52388  0.88449  0.27669  Biso   1.000  H
  C93      1.0000 0.44851  0.81938  0.11518  Biso   1.000  C
  C94      1.0000 0.42279  0.94671  0.36852  Biso   1.000  C
  H40      1.0000 0.39049  0.90629  0.45408  Biso   1.000  H
  H41      1.0000 0.47351  0.97202  0.28698  Biso   1.000  H
  C95      1.0000 0.46928  0.85811  0.06650  Biso   1.000  C
  C96      1.0000 0.39959  0.83159  0.15540  Biso   1.000  C
  C97      1.0000 0.38831  0.00173  0.36920  Biso   1.000  C
  C98      1.0000 0.44330  0.91180  0.06091  Biso   1.000  C
  H42      1.0000 0.50081  0.84780  0.03761  Biso   1.000  H
  C99      1.0000 0.37519  0.88680  0.14809  Biso   1.000  C
  H43      1.0000 0.38408  0.80290  0.18638  Biso   1.000  H
  C100     1.0000 0.33058  0.00040  0.37448  Biso   1.000  C
  C101     1.0000 0.42130  0.05796  0.35828  Biso   1.000  C
  C102     1.0000 0.39583  0.92850  0.10071  Biso   1.000  C
  H44      1.0000 0.45821  0.93960  0.02821  Biso   1.000  H
  H45      1.0000 0.34319  0.89679  0.17619  Biso   1.000  H
  C103     1.0000 0.29610  0.94351  0.36952  Biso   1.000  C
  C104     1.0000 0.29427  0.05560  0.37761  Biso   1.000  C
  C105     1.0000 0.47201  0.06790  0.39208  Biso   1.000  C
  C106     1.0000 0.40288  0.10024  0.30882  Biso   1.000  C
  C107     1.0000 0.37199  0.98939  0.09481  Biso   1.000  C
  C108     1.0000 0.30990  0.90119  0.31958  Biso   1.000  C
  C109     1.0000 0.25111  0.93272  0.41230  Biso   1.000  C
  C110     1.0000 0.24658  0.06169  0.33238  Biso   1.000  C
  C111     1.0000 0.30721  0.10250  0.41982  Biso   1.000  C
  H46      1.0000 0.48569  0.03939  0.42452  Biso   1.000  H
  C112     1.0000 0.50432  0.12031  0.37960  Biso   1.000  C
  C113     1.0000 0.43399  0.15122  0.29701  Biso   1.000  C
  H47      1.0000 0.36861  0.09348  0.28338  Biso   1.000  H
  C114     1.0000 0.31422  0.00226  0.09711  Biso   1.000  C
  C115     1.0000 0.41450  0.03895  0.08969  Biso   1.000  C
  C116     1.0000 0.27722  0.84958  0.31049  Biso   1.000  C
  H48      1.0000 0.34242  0.90740  0.29080  Biso   1.000  H
  C117     1.0000 0.21731  0.88209  0.40509  Biso   1.000  C
  H49      1.0000 0.24239  0.96039  0.44818  Biso   1.000  H
  H50      1.0000 0.23560  0.02829  0.30521  Biso   1.000  H
  C118     1.0000 0.21599  0.11169  0.32559  Biso   1.000  C
  C119     1.0000 0.27632  0.15659  0.41402  Biso   1.000  C
  H51      1.0000 0.33699  0.09890  0.45330  Biso   1.000  H
  H52      1.0000 0.53850  0.12781  0.40472  Biso   1.000  H
  C120     1.0000 0.48479  0.15948  0.33060  Biso   1.000  C
  H53      1.0000 0.42010  0.18040  0.26551  Biso   1.000  H
  C121     1.0000 0.27051  0.95332  0.09789  Biso   1.000  C
  C122     1.0000 0.29004  0.06275  0.10431  Biso   1.000  C
  C123     1.0000 0.46061  0.03948  0.13430  Biso   1.000  C
  C124     1.0000 0.40980  0.08318  0.03928  Biso   1.000  C
  C125     1.0000 0.23158  0.84159  0.35599  Biso   1.000  C
  H54      1.0000 0.28581  0.82138  0.27513  Biso   1.000  H
  H55      1.0000 0.18488  0.87609  0.43418  Biso   1.000  H
  H56      1.0000 0.18450  0.11378  0.29450  Biso   1.000  H
  C126     1.0000 0.23218  0.16099  0.36602  Biso   1.000  C
  H57      1.0000 0.28581  0.18950  0.44270  Biso   1.000  H
  O11      1.0000 0.51752  0.21077  0.32287  Biso   1.000  O
  C127     1.0000 0.22727  0.95426  0.14798  Biso   1.000  C
  C128     1.0000 0.27500  0.90501  0.05171  Biso   1.000  C
  C129     1.0000 0.24081  0.07852  0.06900  Biso   1.000  C
  C130     1.0000 0.31520  0.10401  0.14892  Biso   1.000  C
  H58      1.0000 0.46680  0.00679  0.16470  Biso   1.000  H
  C131     1.0000 0.49761  0.08620  0.13539  Biso   1.000  C
  C132     1.0000 0.44779  0.13110  0.03991  Biso   1.000  C
  H59      1.0000 0.38092  0.08078  0.00460  Biso   1.000  H
  O12      1.0000 0.20026  0.78727  0.35285  Biso   1.000  O
  O13      1.0000 0.20287  0.21490  0.36528  Biso   1.000  O
  C133     1.0000 0.53081  0.23031  0.25763  Biso   1.000  C
  C134     1.0000 0.18941  0.90638  0.15483  Biso   1.000  C
  H60      1.0000 0.22338  0.98770  0.17791  Biso   1.000  H
  C135     1.0000 0.23761  0.85651  0.06028  Biso   1.000  C
  H61      1.0000 0.30268  0.90509  0.01541  Biso   1.000  H
  H62      1.0000 0.22291  0.05050  0.03892  Biso   1.000  H
  C136     1.0000 0.21701  0.13483  0.07689  Biso   1.000  C
  C137     1.0000 0.28991  0.16068  0.15639  Biso   1.000  C
  H63      1.0000 0.34891  0.09428  0.17400  Biso   1.000  H
  H64      1.0000 0.52739  0.08749  0.16909  Biso   1.000  H
  C138     1.0000 0.49180  0.13221  0.08708  Biso   1.000  C
  H65      1.0000 0.44309  0.16281  0.00757  Biso   1.000  H
  C139     1.0000 0.18172  0.76640  0.29278  Biso   1.000  C
  C140     1.0000 0.19539  0.24462  0.30668  Biso   1.000  C
  C141     1.0000 0.55350  0.28872  0.25151  Biso   1.000  C
  N16      1.0000 0.52256  0.19483  0.20372  Biso   1.000  N
  C142     1.0000 0.19821  0.85842  0.11278  Biso   1.000  C
  H66      1.0000 0.15882  0.90740  0.18742  Biso   1.000  H
  H67      1.0000 0.23970  0.82311  0.03009  Biso   1.000  H
  H68      1.0000 0.18411  0.14629  0.05109  Biso   1.000  H
  C143     1.0000 0.24239  0.17294  0.12270  Biso   1.000  C
  H69      1.0000 0.30708  0.18968  0.18559  Biso   1.000  H
  O14      1.0000 0.52683  0.18182  0.08342  Biso   1.000  O
  C144     1.0000 0.15801  0.70729  0.29430  Biso   1.000  C
  N17      1.0000 0.18305  0.79793  0.23579  Biso   1.000  N
  C145     1.0000 0.17249  0.30350  0.31169  Biso   1.000  C
  N18      1.0000 0.20911  0.22112  0.24619  Biso   1.000  N
  C146     1.0000 0.56768  0.30670  0.18679  Biso   1.000  C
  C147     1.0000 0.56089  0.32189  0.31310  Biso   1.000  C
  C148     1.0000 0.53610  0.21530  0.14119  Biso   1.000  C
  O15      1.0000 0.16296  0.80637  0.11685  Biso   1.000  O
  O16      1.0000 0.21569  0.23094  0.12594  Biso   1.000  O
  C149     1.0000 0.15489  0.67398  0.35870  Biso   1.000  C
  C150     1.0000 0.13989  0.68362  0.23381  Biso   1.000  C
  C151     1.0000 0.16241  0.77359  0.17739  Biso   1.000  C
  C152     1.0000 0.16651  0.33721  0.25110  Biso   1.000  C
  C153     1.0000 0.15869  0.32589  0.37913  Biso   1.000  C
  C154     1.0000 0.20420  0.25359  0.18622  Biso   1.000  C
  C155     1.0000 0.55961  0.27242  0.13122  Biso   1.000  C
  H70      1.0000 0.58400  0.34489  0.18068  Biso   1.000  H
  N19      1.0000 0.56811  0.35071  0.36340  Biso   1.000  N
  N20      1.0000 0.15540  0.65102  0.41151  Biso   1.000  N
  H71      1.0000 0.12562  0.64418  0.23281  Biso   1.000  H
  C156     1.0000 0.14211  0.71719  0.17201  Biso   1.000  C
  C157     1.0000 0.18189  0.31212  0.18862  Biso   1.000  C
  H72      1.0000 0.15211  0.37660  0.25298  Biso   1.000  H
  N21      1.0000 0.14532  0.34489  0.43220  Biso   1.000  N
  C158     1.0000 0.56879  0.29169  0.06002  Biso   1.000  C
  C159     1.0000 0.12630  0.69401  0.10400  Biso   1.000  C
  C160     1.0000 0.17501  0.34432  0.12291  Biso   1.000  C
  N22      1.0000 0.57811  0.30750  0.00402  Biso   1.000  N
  N23      1.0000 0.11430  0.67722  0.05072  Biso   1.000  N
  N24      1.0000 0.16741  0.37061  0.07292  Biso   1.000  N
  C161     1.0000 0.71731  0.61789  0.40509  Biso   1.000  C
  C162     1.0000 0.75111  0.56730  0.41230  Biso   1.000  C
  C163     1.0000 0.73158  0.65839  0.35599  Biso   1.000  C
  H73      1.0000 0.68488  0.62388  0.43418  Biso   1.000  H
  C164     1.0000 0.79610  0.55647  0.36952  Biso   1.000  C
  H74      1.0000 0.74239  0.53959  0.44818  Biso   1.000  H
  C165     1.0000 0.77722  0.65040  0.31049  Biso   1.000  C
  O17      1.0000 0.70026  0.71271  0.35285  Biso   1.000  O
  C166     1.0000 0.83058  0.49958  0.37448  Biso   1.000  C
  C167     1.0000 0.80990  0.59879  0.31958  Biso   1.000  C
  H75      1.0000 0.78581  0.67860  0.27513  Biso   1.000  H
  C168     1.0000 0.68172  0.73358  0.29278  Biso   1.000  C
  C169     1.0000 0.79427  0.44442  0.37761  Biso   1.000  C
  C170     1.0000 0.88831  0.49825  0.36920  Biso   1.000  C
  H76      1.0000 0.84242  0.59262  0.29080  Biso   1.000  H
  C171     1.0000 0.65801  0.79269  0.29430  Biso   1.000  C
  N25      1.0000 0.68305  0.70209  0.23579  Biso   1.000  N
  C172     1.0000 0.74658  0.43829  0.33238  Biso   1.000  C
  C173     1.0000 0.80721  0.39752  0.41982  Biso   1.000  C
  C174     1.0000 0.92130  0.44207  0.35828  Biso   1.000  C
  C175     1.0000 0.92279  0.55327  0.36852  Biso   1.000  C
  C176     1.0000 0.63989  0.81641  0.23381  Biso   1.000  C
  C177     1.0000 0.65489  0.82600  0.35870  Biso   1.000  C
  C178     1.0000 0.66241  0.72638  0.17739  Biso   1.000  C
  C179     1.0000 0.71599  0.38828  0.32559  Biso   1.000  C
  H77      1.0000 0.73560  0.47169  0.30521  Biso   1.000  H
  C180     1.0000 0.77632  0.34338  0.41402  Biso   1.000  C
  H78      1.0000 0.83699  0.40112  0.45330  Biso   1.000  H
  C181     1.0000 0.97201  0.43212  0.39208  Biso   1.000  C
  C182     1.0000 0.90288  0.39974  0.30882  Biso   1.000  C
  C183     1.0000 0.91540  0.59879  0.41538  Biso   1.000  C
  C184     1.0000 0.96522  0.56011  0.31759  Biso   1.000  C
  C185     1.0000 0.64211  0.78279  0.17201  Biso   1.000  C
  H79      1.0000 0.62562  0.85580  0.23281  Biso   1.000  H
  N26      1.0000 0.65540  0.84900  0.41151  Biso   1.000  N
  O18      1.0000 0.66296  0.69361  0.11685  Biso   1.000  O
  C186     1.0000 0.73218  0.33899  0.36602  Biso   1.000  C
  H80      1.0000 0.68450  0.38620  0.29450  Biso   1.000  H
  H81      1.0000 0.78581  0.31052  0.44270  Biso   1.000  H
  H82      1.0000 0.98569  0.46059  0.42452  Biso   1.000  H
  C187     1.0000 0.00432  0.37971  0.37960  Biso   1.000  C
  C188     1.0000 0.93399  0.34880  0.29701  Biso   1.000  C
  H83      1.0000 0.86861  0.40649  0.28338  Biso   1.000  H
  H84      1.0000 0.89049  0.59368  0.45408  Biso   1.000  H
  C189     1.0000 0.94411  0.65248  0.40639  Biso   1.000  C
  C190     1.0000 0.99492  0.61180  0.31122  Biso   1.000  C
  H85      1.0000 0.97351  0.52800  0.28698  Biso   1.000  H
  C191     1.0000 0.62630  0.80601  0.10400  Biso   1.000  C
  C192     1.0000 0.69821  0.64160  0.11278  Biso   1.000  C
  O19      1.0000 0.70287  0.28512  0.36528  Biso   1.000  O
  C193     1.0000 0.98479  0.34050  0.33060  Biso   1.000  C
  H86      1.0000 0.03850  0.37221  0.40472  Biso   1.000  H
  H87      1.0000 0.92010  0.31958  0.26551  Biso   1.000  H
  H88      1.0000 0.93642  0.68482  0.43690  Biso   1.000  H
  C194     1.0000 0.98270  0.65870  0.35499  Biso   1.000  C
  H89      1.0000 0.02388  0.61549  0.27669  Biso   1.000  H
  N27      1.0000 0.61430  0.82280  0.05072  Biso   1.000  N
  C195     1.0000 0.68941  0.59360  0.15483  Biso   1.000  C
  C196     1.0000 0.73761  0.64351  0.06028  Biso   1.000  C
  C197     1.0000 0.69539  0.25541  0.30668  Biso   1.000  C
  O20      1.0000 0.01752  0.28920  0.32287  Biso   1.000  O
  O21      1.0000 0.01273  0.71497  0.35170  Biso   1.000  O
  C198     1.0000 0.72727  0.54572  0.14798  Biso   1.000  C
  H90      1.0000 0.65882  0.59262  0.18742  Biso   1.000  H
  C199     1.0000 0.77500  0.59502  0.05171  Biso   1.000  C
  H91      1.0000 0.73970  0.67691  0.03009  Biso   1.000  H
  C200     1.0000 0.67249  0.19652  0.31169  Biso   1.000  C
  N28      1.0000 0.70911  0.27890  0.24619  Biso   1.000  N
  C201     1.0000 0.03081  0.26971  0.25763  Biso   1.000  C
  C202     1.0000 0.01209  0.74708  0.29330  Biso   1.000  C
  C203     1.0000 0.77051  0.54670  0.09789  Biso   1.000  C
  H92      1.0000 0.72338  0.51228  0.17791  Biso   1.000  H
  H93      1.0000 0.80268  0.59488  0.01541  Biso   1.000  H
  C204     1.0000 0.66651  0.16281  0.25110  Biso   1.000  C
  C205     1.0000 0.65869  0.17409  0.37913  Biso   1.000  C
  C206     1.0000 0.70420  0.24639  0.18622  Biso   1.000  C
  C207     1.0000 0.05350  0.21131  0.25151  Biso   1.000  C
  N29      1.0000 0.02256  0.30519  0.20372  Biso   1.000  N
  N30      1.0000 0.99141  0.72559  0.23532  Biso   1.000  N
  C208     1.0000 0.03602  0.80441  0.29832  Biso   1.000  C
  C209     1.0000 0.81422  0.49771  0.09711  Biso   1.000  C
  H94      1.0000 0.65211  0.12342  0.25298  Biso   1.000  H
  C210     1.0000 0.68189  0.18790  0.18862  Biso   1.000  C
  N31      1.0000 0.64532  0.15508  0.43220  Biso   1.000  N
  O22      1.0000 0.71569  0.26904  0.12594  Biso   1.000  O
  C211     1.0000 0.06768  0.19332  0.18679  Biso   1.000  C
  C212     1.0000 0.06089  0.17809  0.31310  Biso   1.000  C
  C213     1.0000 0.03610  0.28472  0.14119  Biso   1.000  C
  C214     1.0000 0.99359  0.75929  0.17838  Biso   1.000  C
  C215     1.0000 0.03820  0.83852  0.23919  Biso   1.000  C
  C216     1.0000 0.05751  0.82529  0.36622  Biso   1.000  C
  C217     1.0000 0.79004  0.43727  0.10431  Biso   1.000  C
  C218     1.0000 0.87199  0.51064  0.09481  Biso   1.000  C
  C219     1.0000 0.67501  0.15570  0.12291  Biso   1.000  C
  C220     1.0000 0.74239  0.32704  0.12270  Biso   1.000  C
  C221     1.0000 0.05961  0.22761  0.13122  Biso   1.000  C
  H95      1.0000 0.08400  0.15508  0.18068  Biso   1.000  H
  N32      1.0000 0.06811  0.14931  0.36340  Biso   1.000  N
  O23      1.0000 0.02683  0.31816  0.08342  Biso   1.000  O
  O24      1.0000 0.97372  0.73749  0.11690  Biso   1.000  O
  C222     1.0000 0.01918  0.81458  0.17630  Biso   1.000  C
  H96      1.0000 0.05238  0.87800  0.24112  Biso   1.000  H
  N33      1.0000 0.07259  0.84301  0.41658  Biso   1.000  N
  C223     1.0000 0.74081  0.42150  0.06900  Biso   1.000  C
  C224     1.0000 0.81520  0.39601  0.14892  Biso   1.000  C
  C225     1.0000 0.91450  0.46107  0.08969  Biso   1.000  C
  C226     1.0000 0.89583  0.57152  0.10071  Biso   1.000  C
  N34      1.0000 0.66741  0.12941  0.07292  Biso   1.000  N
  C227     1.0000 0.71701  0.36519  0.07689  Biso   1.000  C
  C228     1.0000 0.78991  0.33930  0.15639  Biso   1.000  C
  C229     1.0000 0.06879  0.20829  0.06002  Biso   1.000  C
  C230     1.0000 0.99180  0.36781  0.08708  Biso   1.000  C
  C231     1.0000 0.94851  0.68060  0.11518  Biso   1.000  C
  C232     1.0000 0.02162  0.84820  0.11032  Biso   1.000  C
  H97      1.0000 0.72291  0.44948  0.03892  Biso   1.000  H
  H98      1.0000 0.84891  0.40569  0.17400  Biso   1.000  H
  C233     1.0000 0.96061  0.46050  0.13430  Biso   1.000  C
  C234     1.0000 0.90980  0.41680  0.03928  Biso   1.000  C
  C235     1.0000 0.94330  0.58818  0.06091  Biso   1.000  C
  C236     1.0000 0.87519  0.61318  0.14809  Biso   1.000  C
  H99      1.0000 0.68411  0.35369  0.05109  Biso   1.000  H
  H100     1.0000 0.80708  0.31030  0.18559  Biso   1.000  H
  N35      1.0000 0.07811  0.19252  0.00402  Biso   1.000  N
  C237     1.0000 0.99761  0.41382  0.13539  Biso   1.000  C
  C238     1.0000 0.94779  0.36892  0.03991  Biso   1.000  C
  C239     1.0000 0.96928  0.64191  0.06650  Biso   1.000  C
  C240     1.0000 0.89959  0.66838  0.15540  Biso   1.000  C
  N36      1.0000 0.02141  0.87352  0.06122  Biso   1.000  N
  H101     1.0000 0.96680  0.49318  0.16470  Biso   1.000  H
  H102     1.0000 0.88092  0.41919  0.00460  Biso   1.000  H
  H103     1.0000 0.95821  0.56042  0.02821  Biso   1.000  H
  H104     1.0000 0.84319  0.60319  0.17619  Biso   1.000  H
  H105     1.0000 0.02739  0.41249  0.16909  Biso   1.000  H
  H106     1.0000 0.94309  0.33721  0.00757  Biso   1.000  H
  H107     1.0000 0.00081  0.65222  0.03761  Biso   1.000  H
  H108     1.0000 0.88408  0.69712  0.18638  Biso   1.000  H
  C241     1.0000 0.31059  0.40640  0.65483  Biso   1.000  C
  C242     1.0000 0.30179  0.35840  0.61283  Biso   1.000  C
  C243     1.0000 0.27273  0.45428  0.64798  Biso   1.000  C
  H109     1.0000 0.34118  0.40738  0.68742  Biso   1.000  H
  C244     1.0000 0.26239  0.35649  0.56028  Biso   1.000  C
  O25      1.0000 0.33704  0.30639  0.61685  Biso   1.000  O
  C245     1.0000 0.22949  0.45330  0.59789  Biso   1.000  C
  H110     1.0000 0.27662  0.48772  0.67791  Biso   1.000  H
  H111     1.0000 0.26030  0.32309  0.53009  Biso   1.000  H
  C246     1.0000 0.22500  0.40498  0.55171  Biso   1.000  C
  C247     1.0000 0.33759  0.27362  0.67739  Biso   1.000  C
  C248     1.0000 0.18578  0.50229  0.59711  Biso   1.000  C
  H112     1.0000 0.19732  0.40512  0.51541  Biso   1.000  H
  C249     1.0000 0.35789  0.21721  0.67201  Biso   1.000  C
  N37      1.0000 0.31695  0.29791  0.73579  Biso   1.000  N
  C250     1.0000 0.12801  0.48936  0.59481  Biso   1.000  C
  C251     1.0000 0.20996  0.56273  0.60431  Biso   1.000  C
  C252     1.0000 0.36011  0.18359  0.73381  Biso   1.000  C
  C253     1.0000 0.37370  0.19399  0.60400  Biso   1.000  C
  C254     1.0000 0.31828  0.26642  0.79278  Biso   1.000  C
  C255     1.0000 0.08550  0.53893  0.58969  Biso   1.000  C
  C256     1.0000 0.10417  0.42848  0.60071  Biso   1.000  C
  C257     1.0000 0.25919  0.57850  0.56900  Biso   1.000  C
  C258     1.0000 0.18480  0.60399  0.64892  Biso   1.000  C
  C259     1.0000 0.34199  0.20731  0.79430  Biso   1.000  C
  H113     1.0000 0.37438  0.14420  0.73281  Biso   1.000  H
  N38      1.0000 0.38570  0.17720  0.55072  Biso   1.000  N
  O26      1.0000 0.29974  0.28729  0.85285  Biso   1.000  O
  C260     1.0000 0.03939  0.53950  0.63430  Biso   1.000  C
  C261     1.0000 0.09020  0.58320  0.53928  Biso   1.000  C
  C262     1.0000 0.05670  0.41182  0.56091  Biso   1.000  C
  C263     1.0000 0.12481  0.38682  0.64809  Biso   1.000  C
  H114     1.0000 0.27709  0.55052  0.53892  Biso   1.000  H
  C264     1.0000 0.28299  0.63481  0.57689  Biso   1.000  C
  C265     1.0000 0.21009  0.66070  0.65639  Biso   1.000  C
  H115     1.0000 0.15109  0.59431  0.67400  Biso   1.000  H
  C266     1.0000 0.34511  0.17400  0.85870  Biso   1.000  C
  C267     1.0000 0.26842  0.34161  0.85599  Biso   1.000  C
  H116     1.0000 0.03320  0.50682  0.66470  Biso   1.000  H
  C268     1.0000 0.00239  0.58618  0.63539  Biso   1.000  C
  C269     1.0000 0.05221  0.63108  0.53991  Biso   1.000  C
  H117     1.0000 0.11908  0.58081  0.50460  Biso   1.000  H
  H118     1.0000 0.04179  0.43958  0.52821  Biso   1.000  H
  C270     1.0000 0.03072  0.35809  0.56650  Biso   1.000  C
  C271     1.0000 0.10041  0.33162  0.65540  Biso   1.000  C
  H119     1.0000 0.15681  0.39681  0.67619  Biso   1.000  H
  H120     1.0000 0.31589  0.64631  0.55109  Biso   1.000  H
  C272     1.0000 0.25761  0.67296  0.62270  Biso   1.000  C
  H121     1.0000 0.19292  0.68970  0.68559  Biso   1.000  H
  N39      1.0000 0.34460  0.15100  0.91151  Biso   1.000  N
  C273     1.0000 0.22278  0.34960  0.81049  Biso   1.000  C
  C274     1.0000 0.28269  0.38211  0.90509  Biso   1.000  C
  C275     1.0000 0.00820  0.63219  0.58713  Biso   1.000  C
  H122     1.0000 0.97261  0.58751  0.66909  Biso   1.000  H
  H123     1.0000 0.05691  0.66279  0.50763  Biso   1.000  H
  C276     1.0000 0.05149  0.31940  0.61518  Biso   1.000  C
  H124     1.0000 0.99919  0.34778  0.53761  Biso   1.000  H
  H125     1.0000 0.11592  0.30288  0.68643  Biso   1.000  H
  O27      1.0000 0.28431  0.73096  0.62594  Biso   1.000  O
  C277     1.0000 0.19010  0.40121  0.81963  Biso   1.000  C
  H126     1.0000 0.21419  0.32140  0.77513  Biso   1.000  H
  H127     1.0000 0.31512  0.37612  0.93418  Biso   1.000  H
  C278     1.0000 0.24889  0.43270  0.91230  Biso   1.000  C
  O28      1.0000 0.97317  0.68184  0.58342  Biso   1.000  O
  O29      1.0000 0.02628  0.26251  0.61690  Biso   1.000  O
  C279     1.0000 0.29580  0.75361  0.68622  Biso   1.000  C
  C280     1.0000 0.20390  0.44353  0.86952  Biso   1.000  C
  H128     1.0000 0.15758  0.40738  0.79080  Biso   1.000  H
  H129     1.0000 0.25761  0.46041  0.94818  Biso   1.000  H
  C281     1.0000 0.96390  0.71528  0.64119  Biso   1.000  C
  C282     1.0000 0.00641  0.24071  0.67838  Biso   1.000  C
  C283     1.0000 0.31811  0.81210  0.68862  Biso   1.000  C
  N40      1.0000 0.29089  0.72110  0.74619  Biso   1.000  N
  C284     1.0000 0.16942  0.50042  0.87453  Biso   1.000  C
  C285     1.0000 0.94039  0.77239  0.63122  Biso   1.000  C
  N41      1.0000 0.97744  0.69481  0.70372  Biso   1.000  N
  N42      1.0000 0.00859  0.27441  0.73532  Biso   1.000  N
  C286     1.0000 0.98082  0.18542  0.67630  Biso   1.000  C
  C287     1.0000 0.33349  0.83719  0.75110  Biso   1.000  C
  C288     1.0000 0.32499  0.84430  0.62291  Biso   1.000  C
  C289     1.0000 0.30461  0.74459  0.80673  Biso   1.000  C
  C290     1.0000 0.11169  0.50175  0.86920  Biso   1.000  C
  C291     1.0000 0.20573  0.55558  0.87761  Biso   1.000  C
  C292     1.0000 0.93232  0.80668  0.68679  Biso   1.000  C
  C293     1.0000 0.93121  0.79171  0.56002  Biso   1.000  C
  C294     1.0000 0.96919  0.73029  0.75763  Biso   1.000  C
  C295     1.0000 0.98791  0.25292  0.79330  Biso   1.000  C
  C296     1.0000 0.96180  0.16148  0.73919  Biso   1.000  C
  C297     1.0000 0.97838  0.15180  0.61032  Biso   1.000  C
  C298     1.0000 0.32751  0.80348  0.81169  Biso   1.000  C
  H130     1.0000 0.34789  0.87658  0.75303  Biso   1.000  H
  N43      1.0000 0.33259  0.87059  0.57292  Biso   1.000  N
  O30      1.0000 0.29713  0.71488  0.86528  Biso   1.000  O
  C299     1.0000 0.07870  0.55793  0.85828  Biso   1.000  C
  C300     1.0000 0.07721  0.44673  0.86852  Biso   1.000  C
  C301     1.0000 0.25342  0.56171  0.83243  Biso   1.000  C
  C302     1.0000 0.19279  0.60248  0.91982  Biso   1.000  C
  C303     1.0000 0.94650  0.78869  0.75151  Biso   1.000  C
  H131     1.0000 0.91600  0.84492  0.68068  Biso   1.000  H
  N44      1.0000 0.92189  0.80748  0.50402  Biso   1.000  N
  O31      1.0000 0.98248  0.71080  0.82287  Biso   1.000  O
  C304     1.0000 0.96398  0.19559  0.79832  Biso   1.000  C
  O32      1.0000 0.98727  0.28503  0.85170  Biso   1.000  O
  H132     1.0000 0.94762  0.12200  0.74112  Biso   1.000  H
  N45      1.0000 0.97859  0.12648  0.56122  Biso   1.000  N
  C305     1.0000 0.34131  0.82591  0.87913  Biso   1.000  C
  C306     1.0000 0.26782  0.66101  0.86602  Biso   1.000  C
  C307     1.0000 0.02799  0.56788  0.89208  Biso   1.000  C
  C308     1.0000 0.09712  0.60026  0.80882  Biso   1.000  C
  C309     1.0000 0.08460  0.40121  0.91543  Biso   1.000  C
  C310     1.0000 0.03478  0.43989  0.81759  Biso   1.000  C
  H133     1.0000 0.26440  0.52831  0.80521  Biso   1.000  H
  C311     1.0000 0.28401  0.61172  0.82559  Biso   1.000  C
  C312     1.0000 0.22368  0.65662  0.91402  Biso   1.000  C
  H134     1.0000 0.16301  0.59888  0.95330  Biso   1.000  H
  C313     1.0000 0.93911  0.82191  0.81310  Biso   1.000  C
  C314     1.0000 0.01521  0.65950  0.83060  Biso   1.000  C
  C315     1.0000 0.94249  0.17471  0.86622  Biso   1.000  C
  C316     1.0000 0.01730  0.34130  0.85499  Biso   1.000  C
  N46      1.0000 0.35468  0.84492  0.93220  Biso   1.000  N
  H135     1.0000 0.01431  0.53941  0.92452  Biso   1.000  H
  C317     1.0000 0.99568  0.62029  0.87960  Biso   1.000  C
  C318     1.0000 0.06601  0.65120  0.79701  Biso   1.000  C
  H136     1.0000 0.13139  0.59351  0.78338  Biso   1.000  H
  H137     1.0000 0.10951  0.40632  0.95408  Biso   1.000  H
  C319     1.0000 0.05589  0.34752  0.90639  Biso   1.000  C
  C320     1.0000 0.00508  0.38820  0.81122  Biso   1.000  C
  H138     1.0000 0.02649  0.47200  0.78698  Biso   1.000  H
  H139     1.0000 0.31550  0.61380  0.79450  Biso   1.000  H
  H140     1.0000 0.21419  0.68948  0.94270  Biso   1.000  H
  N47      1.0000 0.93189  0.85069  0.86340  Biso   1.000  N
  N48      1.0000 0.92741  0.15699  0.91658  Biso   1.000  N
  H141     1.0000 0.96150  0.62779  0.90472  Biso   1.000  H
  H142     1.0000 0.07990  0.68042  0.76551  Biso   1.000  H
  H143     1.0000 0.06358  0.31518  0.93690  Biso   1.000  H
  H144     1.0000 0.97612  0.38451  0.77669  Biso   1.000  H
