data_image0
_cell_length_a       12.658
_cell_length_b       14.791
_cell_length_c       18.238
_cell_angle_alpha    85.23
_cell_angle_beta     80.93
_cell_angle_gamma    75.42

_symmetry_space_group_name_H-M    "P 1"
_symmetry_int_tables_number       1

loop_
  _symmetry_equiv_pos_as_xyz
  'x, y, z'

loop_
  _atom_site_label
  _atom_site_occupancy
  _atom_site_fract_x
  _atom_site_fract_y
  _atom_site_fract_z
  _atom_site_thermal_displace_type
  _atom_site_B_iso_or_equiv
  _atom_site_type_symbol
  N1       1.0000 0.65214  0.58254  0.59834  Biso   1.000  N
  C1       1.0000 0.60364  0.52328  0.65348  Biso   1.000  C
  C2       1.0000 0.75315  0.54947  0.54876  Biso   1.000  C
  C3       1.0000 0.59278  0.66790  0.57522  Biso   1.000  C
  H1       1.0000 0.52502  0.55081  0.66449  Biso   1.000  H
  H2       1.0000 0.61305  0.46277  0.63303  Biso   1.000  H
  N2       1.0000 0.65126  0.50996  0.72157  Biso   1.000  N
  C4       1.0000 0.75421  0.63246  0.49018  Biso   1.000  C
  H3       1.0000 0.75317  0.49211  0.52559  Biso   1.000  H
  N3       1.0000 0.85303  0.54055  0.58006  Biso   1.000  N
  N4       1.0000 0.65709  0.70270  0.51758  Biso   1.000  N
  O1       1.0000 0.49957  0.70678  0.60135  Biso   1.000  O
  C5       1.0000 0.75085  0.43771  0.73041  Biso   1.000  C
  C6       1.0000 0.59030  0.53605  0.78921  Biso   1.000  C
  H4       1.0000 0.75039  0.61435  0.44038  Biso   1.000  H
  N5       1.0000 0.85758  0.65494  0.49396  Biso   1.000  N
  C7       1.0000 0.91676  0.59706  0.54348  Biso   1.000  C
  C8       1.0000 0.89893  0.45915  0.62425  Biso   1.000  C
  C9       1.0000 0.61375  0.78575  0.47390  Biso   1.000  C
  H5       1.0000 0.74907  0.37856  0.71051  Biso   1.000  H
  C10      1.0000 0.75053  0.42851  0.81539  Biso   1.000  C
  N6       1.0000 0.85309  0.46411  0.70245  Biso   1.000  N
  N7       1.0000 0.65319  0.49750  0.84402  Biso   1.000  N
  O2       1.0000 0.49690  0.58581  0.79861  Biso   1.000  O
  C11      1.0000 0.89440  0.72905  0.44911  Biso   1.000  C
  O3       1.0000 0.01015  0.59597  0.55288  Biso   1.000  O
  H6       1.0000 0.97804  0.45138  0.61958  Biso   1.000  H
  H7       1.0000 0.88587  0.40445  0.60479  Biso   1.000  H
  H8       1.0000 0.53388  0.79977  0.48290  Biso   1.000  H
  H9       1.0000 0.63670  0.77337  0.42159  Biso   1.000  H
  N8       1.0000 0.64921  0.86699  0.48979  Biso   1.000  N
  H10      1.0000 0.74713  0.36549  0.83513  Biso   1.000  H
  N9       1.0000 0.85379  0.44836  0.82373  Biso   1.000  N
  C12      1.0000 0.91572  0.45968  0.75659  Biso   1.000  C
  C13      1.0000 0.60545  0.49538  0.92128  Biso   1.000  C
  H11      1.0000 0.87417  0.72998  0.39992  Biso   1.000  H
  H12      1.0000 0.97418  0.71530  0.44399  Biso   1.000  H
  N10      1.0000 0.84957  0.82139  0.47851  Biso   1.000  N
  C14      1.0000 0.75238  0.89039  0.45811  Biso   1.000  C
  C15      1.0000 0.59262  0.92215  0.54649  Biso   1.000  C
  C16      1.0000 0.89624  0.43509  0.89332  Biso   1.000  C
  O4       1.0000 0.01199  0.46600  0.74753  Biso   1.000  O
  H13      1.0000 0.61936  0.43100  0.94029  Biso   1.000  H
  H14      1.0000 0.52628  0.51956  0.92478  Biso   1.000  H
  N11      1.0000 0.64784  0.54903  0.96780  Biso   1.000  N
  C17      1.0000 0.90968  0.85790  0.51931  Biso   1.000  C
  C18      1.0000 0.75190  0.97786  0.50313  Biso   1.000  C
  C19      1.0000 0.75921  0.90764  0.37407  Biso   1.000  C
  N12      1.0000 0.65270  0.98317  0.55805  Biso   1.000  N
  O5       1.0000 0.50344  0.91844  0.58078  Biso   1.000  O
  H15      1.0000 0.97552  0.42761  0.88370  Biso   1.000  H
  H16      1.0000 0.88240  0.37778  0.91822  Biso   1.000  H
  N13      1.0000 0.84815  0.51178  0.94245  Biso   1.000  N
  C20      1.0000 0.75117  0.51799  0.99859  Biso   1.000  C
  C21      1.0000 0.59137  0.63807  0.98525  Biso   1.000  C
  N14      1.0000 0.85364  0.94725  0.53520  Biso   1.000  N
  O6       1.0000 0.99900  0.81808  0.53759  Biso   1.000  O
  C22      1.0000 0.74749  0.06879  0.45733  Biso   1.000  C
  H17      1.0000 0.82837  0.92210  0.35450  Biso   1.000  H
  H18      1.0000 0.69987  0.95927  0.36290  Biso   1.000  H
  H19      1.0000 0.75379  0.85267  0.35189  Biso   1.000  H
  C23      1.0000 0.60277  0.05970  0.60746  Biso   1.000  C
  C24      1.0000 0.90716  0.57587  0.94918  Biso   1.000  C
  C25      1.0000 0.75209  0.60624  0.04234  Biso   1.000  C
  C26      1.0000 0.75516  0.42751  0.04534  Biso   1.000  C
  O7       1.0000 0.50039  0.67756  0.96913  Biso   1.000  O
  N15      1.0000 0.65349  0.67504  0.02422  Biso   1.000  N
  C27      1.0000 0.89495  0.00131  0.58173  Biso   1.000  C
  H20      1.0000 0.81339  0.06271  0.42198  Biso   1.000  H
  H21      1.0000 0.74175  0.11850  0.48951  Biso   1.000  H
  H22      1.0000 0.68440  0.08270  0.43149  Biso   1.000  H
  H23      1.0000 0.61618  0.11742  0.58289  Biso   1.000  H
  H24      1.0000 0.52356  0.06652  0.61658  Biso   1.000  H
  N16      1.0000 0.64451  0.04613  0.67744  Biso   1.000  N
  O8       1.0000 0.99251  0.58240  0.91072  Biso   1.000  O
  N17      1.0000 0.85416  0.63011  0.00726  Biso   1.000  N
  C28      1.0000 0.75048  0.58986  0.12593  Biso   1.000  C
  H25      1.0000 0.82429  0.40818  0.06446  Biso   1.000  H
  H26      1.0000 0.74793  0.37977  0.01516  Biso   1.000  H
  H27      1.0000 0.69576  0.43727  0.08586  Biso   1.000  H
  C29      1.0000 0.60888  0.76675  0.05490  Biso   1.000  C
  H28      1.0000 0.97433  0.97715  0.57900  Biso   1.000  H
  N18      1.0000 0.84561  0.99954  0.65898  Biso   1.000  N
  H29      1.0000 0.88135  0.06571  0.56238  Biso   1.000  H
  C30      1.0000 0.74655  0.06819  0.68622  Biso   1.000  C
  C31      1.0000 0.58364  0.03142  0.74397  Biso   1.000  C
  C32      1.0000 0.89036  0.71147  0.02110  Biso   1.000  C
  H30      1.0000 0.81678  0.54534  0.13588  Biso   1.000  H
  H31      1.0000 0.68770  0.56617  0.14678  Biso   1.000  H
  H32      1.0000 0.74595  0.64778  0.14778  Biso   1.000  H
  H33      1.0000 0.52901  0.77985  0.06157  Biso   1.000  H
  H34      1.0000 0.63125  0.76536  0.10359  Biso   1.000  H
  N19      1.0000 0.64328  0.84185  0.00965  Biso   1.000  N
  C33      1.0000 0.90780  0.96306  0.71418  Biso   1.000  C
  C34      1.0000 0.74518  0.06019  0.77115  Biso   1.000  C
  H35      1.0000 0.74909  0.13131  0.66599  Biso   1.000  H
  N20      1.0000 0.64484  0.03019  0.79855  Biso   1.000  N
  O9       1.0000 0.48949  0.02076  0.75214  Biso   1.000  O
  N21      1.0000 0.84321  0.79494  0.97975  Biso   1.000  N
  H36      1.0000 0.87187  0.72299  0.07368  Biso   1.000  H
  H37      1.0000 0.96998  0.69805  0.00899  Biso   1.000  H
  C35      1.0000 0.58055  0.90019  0.96196  Biso   1.000  C
  C36      1.0000 0.74763  0.86458  0.01054  Biso   1.000  C
  N22      1.0000 0.84568  0.99158  0.78099  Biso   1.000  N
  O10      1.0000 0.00087  0.91321  0.70634  Biso   1.000  O
  H38      1.0000 0.74368  0.12019  0.79083  Biso   1.000  H
  C37      1.0000 0.59744  0.03563  0.87670  Biso   1.000  C
  C38      1.0000 0.90615  0.83348  0.92400  Biso   1.000  C
  N23      1.0000 0.64531  0.95414  0.92139  Biso   1.000  N
  O11      1.0000 0.48596  0.90310  0.95618  Biso   1.000  O
  C39      1.0000 0.74500  0.94838  0.95357  Biso   1.000  C
  H39      1.0000 0.75481  0.88116  0.06007  Biso   1.000  H
  C40      1.0000 0.89209  0.98136  0.84969  Biso   1.000  C
  H40      1.0000 0.60865  0.09104  0.89610  Biso   1.000  H
  H41      1.0000 0.51856  0.04189  0.88092  Biso   1.000  H
  N24      1.0000 0.84625  0.91955  0.90444  Biso   1.000  N
  O12      1.0000 0.00018  0.79689  0.89688  Biso   1.000  O
  H42      1.0000 0.74147  0.00604  0.97758  Biso   1.000  H
  H43      1.0000 0.97128  0.95688  0.83918  Biso   1.000  H
  H44      1.0000 0.87834  0.04244  0.87009  Biso   1.000  H
  N25      1.0000 0.34790  0.41747  0.40169  Biso   1.000  N
  C41      1.0000 0.39642  0.47665  0.34656  Biso   1.000  C
  C42      1.0000 0.24692  0.45047  0.45122  Biso   1.000  C
  C43      1.0000 0.40734  0.33210  0.42482  Biso   1.000  C
  N26      1.0000 0.34886  0.49005  0.27841  Biso   1.000  N
  H45      1.0000 0.47503  0.44920  0.33550  Biso   1.000  H
  H46      1.0000 0.38709  0.53716  0.36701  Biso   1.000  H
  C44      1.0000 0.24593  0.36748  0.50980  Biso   1.000  C
  H47      1.0000 0.24696  0.50789  0.47440  Biso   1.000  H
  N27      1.0000 0.14704  0.45939  0.41992  Biso   1.000  N
  N28      1.0000 0.34302  0.29730  0.48245  Biso   1.000  N
  O13      1.0000 0.50058  0.29315  0.39864  Biso   1.000  O
  C45      1.0000 0.40985  0.46388  0.21077  Biso   1.000  C
  C46      1.0000 0.24926  0.56230  0.26963  Biso   1.000  C
  H48      1.0000 0.24976  0.38559  0.55960  Biso   1.000  H
  N29      1.0000 0.14256  0.34499  0.50608  Biso   1.000  N
  C47      1.0000 0.10114  0.54079  0.37574  Biso   1.000  C
  C48      1.0000 0.08339  0.40287  0.45650  Biso   1.000  C
  C49      1.0000 0.38630  0.21418  0.52614  Biso   1.000  C
  N30      1.0000 0.34695  0.50243  0.15602  Biso   1.000  N
  O14      1.0000 0.50317  0.41412  0.20137  Biso   1.000  O
  C50      1.0000 0.24952  0.57150  0.18459  Biso   1.000  C
  H49      1.0000 0.25108  0.62138  0.28947  Biso   1.000  H
  N31      1.0000 0.14706  0.53583  0.29753  Biso   1.000  N
  C51      1.0000 0.10575  0.27089  0.55088  Biso   1.000  C
  H50      1.0000 0.02203  0.54855  0.38041  Biso   1.000  H
  H51      1.0000 0.11428  0.59549  0.39519  Biso   1.000  H
  O15      1.0000 0.98991  0.40397  0.44716  Biso   1.000  O
  H52      1.0000 0.46627  0.20017  0.51708  Biso   1.000  H
  H53      1.0000 0.36345  0.22656  0.57839  Biso   1.000  H
  N32      1.0000 0.35093  0.13294  0.51025  Biso   1.000  N
  C52      1.0000 0.39470  0.50455  0.07870  Biso   1.000  C
  H54      1.0000 0.25299  0.63452  0.16491  Biso   1.000  H
  N33      1.0000 0.14635  0.55157  0.17625  Biso   1.000  N
  C53      1.0000 0.08433  0.54025  0.24345  Biso   1.000  C
  H55      1.0000 0.12596  0.26996  0.60012  Biso   1.000  H
  H56      1.0000 0.02595  0.28471  0.55599  Biso   1.000  H
  N34      1.0000 0.15049  0.17854  0.52147  Biso   1.000  N
  C54      1.0000 0.24775  0.10961  0.54187  Biso   1.000  C
  C55      1.0000 0.40752  0.07778  0.45355  Biso   1.000  C
  H57      1.0000 0.38077  0.56900  0.05970  Biso   1.000  H
  H58      1.0000 0.47387  0.48037  0.07520  Biso   1.000  H
  N35      1.0000 0.35222  0.45091  0.03224  Biso   1.000  N
  C56      1.0000 0.10388  0.56492  0.10666  Biso   1.000  C
  O16      1.0000 0.98816  0.53394  0.25246  Biso   1.000  O
  C57      1.0000 0.09045  0.14211  0.48068  Biso   1.000  C
  C58      1.0000 0.24825  0.02207  0.49685  Biso   1.000  C
  C59      1.0000 0.24093  0.09230  0.62597  Biso   1.000  C
  N36      1.0000 0.34743  0.01683  0.44194  Biso   1.000  N
  O17      1.0000 0.49669  0.08156  0.41920  Biso   1.000  O
  C60      1.0000 0.24895  0.48201  0.00145  Biso   1.000  C
  C61      1.0000 0.40878  0.36186  0.01473  Biso   1.000  C
  H59      1.0000 0.02453  0.57240  0.11628  Biso   1.000  H
  H60      1.0000 0.11765  0.62216  0.08182  Biso   1.000  H
  N37      1.0000 0.15192  0.48816  0.05753  Biso   1.000  N
  N38      1.0000 0.14650  0.05269  0.46484  Biso   1.000  N
  O18      1.0000 0.00114  0.18185  0.46239  Biso   1.000  O
  C62      1.0000 0.25266  0.93115  0.54265  Biso   1.000  C
  H61      1.0000 0.17168  0.07791  0.64548  Biso   1.000  H
  H62      1.0000 0.30020  0.04066  0.63709  Biso   1.000  H
  H63      1.0000 0.24636  0.14727  0.64809  Biso   1.000  H
  C63      1.0000 0.39737  0.94023  0.39258  Biso   1.000  C
  C64      1.0000 0.24806  0.39370  0.95765  Biso   1.000  C
  C65      1.0000 0.24497  0.57250  0.95464  Biso   1.000  C
  O19      1.0000 0.49966  0.32245  0.03085  Biso   1.000  O
  N39      1.0000 0.34663  0.32497  0.97577  Biso   1.000  N
  C66      1.0000 0.09298  0.42407  0.05080  Biso   1.000  C
  C67      1.0000 0.10512  0.99863  0.41826  Biso   1.000  C
  H64      1.0000 0.18675  0.93723  0.57800  Biso   1.000  H
  H65      1.0000 0.25831  0.88143  0.51052  Biso   1.000  H
  H66      1.0000 0.31574  0.91724  0.56850  Biso   1.000  H
  H67      1.0000 0.38397  0.88252  0.41709  Biso   1.000  H
  H68      1.0000 0.47650  0.93342  0.38341  Biso   1.000  H
  N40      1.0000 0.35563  0.95380  0.32260  Biso   1.000  N
  C68      1.0000 0.24965  0.41008  0.87411  Biso   1.000  C
  N41      1.0000 0.14597  0.36990  0.99272  Biso   1.000  N
  H69      1.0000 0.17586  0.59176  0.93552  Biso   1.000  H
  H70      1.0000 0.25214  0.62016  0.98483  Biso   1.000  H
  H71      1.0000 0.30438  0.56266  0.91413  Biso   1.000  H
  C69      1.0000 0.39127  0.23319  0.94508  Biso   1.000  C
  O20      1.0000 0.00764  0.41753  0.08927  Biso   1.000  O
  H72      1.0000 0.02582  0.02278  0.42098  Biso   1.000  H
  N42      1.0000 0.15451  0.00046  0.34105  Biso   1.000  N
  H73      1.0000 0.11872  0.93423  0.43760  Biso   1.000  H
  C70      1.0000 0.25352  0.93175  0.31376  Biso   1.000  C
  C71      1.0000 0.41641  0.96858  0.25601  Biso   1.000  C
  H74      1.0000 0.18337  0.45459  0.86410  Biso   1.000  H
  H75      1.0000 0.31245  0.43377  0.85321  Biso   1.000  H
  H76      1.0000 0.25412  0.35216  0.85221  Biso   1.000  H
  C72      1.0000 0.10971  0.28847  0.97888  Biso   1.000  C
  H77      1.0000 0.47113  0.22009  0.93841  Biso   1.000  H
  H78      1.0000 0.36882  0.23458  0.89639  Biso   1.000  H
  N43      1.0000 0.35679  0.15808  0.99033  Biso   1.000  N
  C73      1.0000 0.09234  0.03687  0.28586  Biso   1.000  C
  C74      1.0000 0.25496  0.93975  0.22889  Biso   1.000  C
  H79      1.0000 0.25106  0.86862  0.33399  Biso   1.000  H
  N44      1.0000 0.35522  0.96975  0.20149  Biso   1.000  N
  O21      1.0000 0.51066  0.97918  0.24784  Biso   1.000  O
  N45      1.0000 0.15694  0.20499  0.02023  Biso   1.000  N
  H80      1.0000 0.12826  0.27701  0.92630  Biso   1.000  H
  H81      1.0000 0.03017  0.30188  0.99100  Biso   1.000  H
  C75      1.0000 0.41949  0.09981  0.03807  Biso   1.000  C
  C76      1.0000 0.25250  0.13543  0.98944  Biso   1.000  C
  N46      1.0000 0.15439  0.00835  0.21899  Biso   1.000  N
  O22      1.0000 0.99919  0.08672  0.29370  Biso   1.000  O
  H82      1.0000 0.25646  0.87975  0.20921  Biso   1.000  H
  C77      1.0000 0.40261  0.96437  0.12328  Biso   1.000  C
  C78      1.0000 0.09388  0.16652  0.07604  Biso   1.000  C
  N47      1.0000 0.35482  0.04587  0.07859  Biso   1.000  N
  O23      1.0000 0.51417  0.09683  0.04385  Biso   1.000  O
  C79      1.0000 0.25511  0.05162  0.04647  Biso   1.000  C
  H83      1.0000 0.24534  0.11877  0.93992  Biso   1.000  H
  C80      1.0000 0.10804  0.01857  0.15035  Biso   1.000  C
  H84      1.0000 0.39139  0.90897  0.10388  Biso   1.000  H
  H85      1.0000 0.48157  0.95804  0.11911  Biso   1.000  H
  N48      1.0000 0.15378  0.08045  0.09560  Biso   1.000  N
  O24      1.0000 0.99996  0.20305  0.10311  Biso   1.000  O
  H86      1.0000 0.25866  0.99397  0.02240  Biso   1.000  H
  H87      1.0000 0.02877  0.04312  0.16080  Biso   1.000  H
  H88      1.0000 0.12170  0.95757  0.12990  Biso   1.000  H
