data_image0
_cell_length_a       25.909
_cell_length_b       26.983
_cell_length_c       13.028
_cell_angle_alpha    90
_cell_angle_beta     90
_cell_angle_gamma    90

_symmetry_space_group_name_H-M    "P 1"
_symmetry_int_tables_number       1

loop_
  _symmetry_equiv_pos_as_xyz
  'x, y, z'

loop_
  _atom_site_label
  _atom_site_occupancy
  _atom_site_fract_x
  _atom_site_fract_y
  _atom_site_fract_z
  _atom_site_thermal_displace_type
  _atom_site_B_iso_or_equiv
  _atom_site_type_symbol
  O1       1.0000 0.33513  0.37924  0.20809  Biso   1.000  O
  C1       1.0000 0.33409  0.35671  0.12558  Biso   1.000  C
  N1       1.0000 0.36570  0.31809  0.09932  Biso   1.000  N
  N2       1.0000 0.30210  0.36671  0.04498  Biso   1.000  N
  C2       1.0000 0.39399  0.28940  0.17531  Biso   1.000  C
  C3       1.0000 0.34899  0.29541  0.00177  Biso   1.000  C
  C4       1.0000 0.30731  0.33121  0.96262  Biso   1.000  C
  C5       1.0000 0.26149  0.40329  0.05112  Biso   1.000  C
  H1       1.0000 0.38160  0.25479  0.17340  Biso   1.000  H
  H2       1.0000 0.38639  0.30289  0.24432  Biso   1.000  H
  N3       1.0000 0.44869  0.28952  0.16027  Biso   1.000  N
  H3       1.0000 0.33529  0.26109  0.01197  Biso   1.000  H
  N4       1.0000 0.38801  0.29719  0.92270  Biso   1.000  N
  H4       1.0000 0.27411  0.31360  0.94873  Biso   1.000  H
  N5       1.0000 0.33000  0.35118  0.86813  Biso   1.000  N
  H5       1.0000 0.22869  0.38810  0.02779  Biso   1.000  H
  H6       1.0000 0.25701  0.41319  0.12373  Biso   1.000  H
  N6       1.0000 0.27149  0.44713  0.99010  Biso   1.000  N
  C6       1.0000 0.47401  0.25609  0.08873  Biso   1.000  C
  C7       1.0000 0.48250  0.31179  0.22597  Biso   1.000  C
  C8       1.0000 0.42950  0.26179  0.91449  Biso   1.000  C
  C9       1.0000 0.37489  0.32810  0.84349  Biso   1.000  C
  C10      1.0000 0.29932  0.37768  0.79160  Biso   1.000  C
  C11      1.0000 0.27851  0.49238  0.03569  Biso   1.000  C
  C12      1.0000 0.25759  0.45169  0.88271  Biso   1.000  C
  C13      1.0000 0.53229  0.26202  0.11759  Biso   1.000  C
  H7       1.0000 0.46181  0.22121  0.09671  Biso   1.000  H
  N7       1.0000 0.47231  0.27250  0.98227  Biso   1.000  N
  N8       1.0000 0.53171  0.29741  0.20041  Biso   1.000  N
  O2       1.0000 0.47130  0.33862  0.29767  Biso   1.000  O
  H8       1.0000 0.41611  0.22840  0.93038  Biso   1.000  H
  H9       1.0000 0.44220  0.26139  0.84288  Biso   1.000  H
  O3       1.0000 0.39909  0.33306  0.76343  Biso   1.000  O
  H10      1.0000 0.26419  0.36330  0.78984  Biso   1.000  H
  H11      1.0000 0.31510  0.37279  0.72321  Biso   1.000  H
  N9       1.0000 0.29519  0.43038  0.81141  Biso   1.000  N
  O4       1.0000 0.28511  0.50009  0.12749  Biso   1.000  O
  N10      1.0000 0.27600  0.52859  0.96108  Biso   1.000  N
  H12      1.0000 0.22189  0.43939  0.86897  Biso   1.000  H
  C14      1.0000 0.26250  0.50780  0.86161  Biso   1.000  C
  H13      1.0000 0.54769  0.22970  0.13947  Biso   1.000  H
  N11      1.0000 0.55510  0.27969  0.02349  Biso   1.000  N
  C15      1.0000 0.52140  0.28310  0.94481  Biso   1.000  C
  C16      1.0000 0.57528  0.30401  0.26750  Biso   1.000  C
  C17      1.0000 0.31889  0.46552  0.75169  Biso   1.000  C
  C18      1.0000 0.26971  0.57999  0.98526  Biso   1.000  C
  N12      1.0000 0.30271  0.51128  0.78577  Biso   1.000  N
  H14      1.0000 0.22930  0.52188  0.83551  Biso   1.000  H
  C19      1.0000 0.61060  0.28110  0.00668  Biso   1.000  C
  O5       1.0000 0.53078  0.29352  0.85600  Biso   1.000  O
  H15      1.0000 0.56289  0.31509  0.33558  Biso   1.000  H
  H16      1.0000 0.59281  0.27169  0.27687  Biso   1.000  H
  N13      1.0000 0.61268  0.34010  0.22843  Biso   1.000  N
  O6       1.0000 0.34841  0.45710  0.68061  Biso   1.000  O
  H17      1.0000 0.26790  0.58381  0.06079  Biso   1.000  H
  H18      1.0000 0.23648  0.59171  0.95648  Biso   1.000  H
  N14      1.0000 0.31101  0.61120  0.94612  Biso   1.000  N
  C20      1.0000 0.30781  0.55479  0.72083  Biso   1.000  C
  H19      1.0000 0.62631  0.25108  0.03707  Biso   1.000  H
  N15      1.0000 0.63549  0.32491  0.05058  Biso   1.000  N
  H20      1.0000 0.61739  0.28040  0.93192  Biso   1.000  H
  C21      1.0000 0.65221  0.32621  0.15720  Biso   1.000  C
  C22      1.0000 0.62160  0.38420  0.27602  Biso   1.000  C
  C23      1.0000 0.33969  0.64070  0.00760  Biso   1.000  C
  C24      1.0000 0.31082  0.62851  0.84057  Biso   1.000  C
  H21      1.0000 0.27292  0.56680  0.70203  Biso   1.000  H
  H22      1.0000 0.32579  0.54542  0.65666  Biso   1.000  H
  N16      1.0000 0.33598  0.59489  0.76988  Biso   1.000  N
  C25      1.0000 0.66031  0.35930  0.99240  Biso   1.000  C
  C26      1.0000 0.68918  0.37149  0.15943  Biso   1.000  C
  H23      1.0000 0.67000  0.29489  0.17800  Biso   1.000  H
  N17      1.0000 0.66402  0.40511  0.23012  Biso   1.000  N
  O7       1.0000 0.59721  0.40170  0.34641  Biso   1.000  O
  O8       1.0000 0.34289  0.63699  0.10170  Biso   1.000  O
  N18      1.0000 0.36451  0.67509  0.94942  Biso   1.000  N
  H24      1.0000 0.27539  0.63781  0.81693  Biso   1.000  H
  C27      1.0000 0.34779  0.67379  0.84280  Biso   1.000  C
  C28      1.0000 0.37840  0.61580  0.72398  Biso   1.000  C
  N19      1.0000 0.68899  0.38880  0.05388  Biso   1.000  N
  O9       1.0000 0.65711  0.36301  0.89830  Biso   1.000  O
  H25      1.0000 0.72461  0.36219  0.18307  Biso   1.000  H
  C29      1.0000 0.69219  0.44521  0.27917  Biso   1.000  C
  C30      1.0000 0.38940  0.71890  0.99332  Biso   1.000  C
  N20      1.0000 0.38732  0.65990  0.77157  Biso   1.000  N
  H26      1.0000 0.33000  0.70511  0.82200  Biso   1.000  H
  O10      1.0000 0.40279  0.59830  0.65359  Biso   1.000  O
  C31      1.0000 0.73029  0.42001  0.01474  Biso   1.000  C
  H27      1.0000 0.72708  0.43320  0.29797  Biso   1.000  H
  H28      1.0000 0.67421  0.45458  0.34334  Biso   1.000  H
  N21      1.0000 0.69729  0.48872  0.21423  Biso   1.000  N
  H29      1.0000 0.38261  0.71960  0.06808  Biso   1.000  H
  H30      1.0000 0.37369  0.74892  0.96293  Biso   1.000  H
  N22      1.0000 0.44490  0.72031  0.97651  Biso   1.000  N
  C32      1.0000 0.42472  0.69599  0.73250  Biso   1.000  C
  H31      1.0000 0.76352  0.40829  0.04352  Biso   1.000  H
  N23      1.0000 0.72400  0.47141  0.03892  Biso   1.000  N
  H32      1.0000 0.73210  0.41619  0.93921  Biso   1.000  H
  C33      1.0000 0.73750  0.49220  0.13839  Biso   1.000  C
  C34      1.0000 0.68111  0.53448  0.24831  Biso   1.000  C
  C35      1.0000 0.47860  0.71690  0.05519  Biso   1.000  C
  C36      1.0000 0.46771  0.73798  0.88241  Biso   1.000  C
  H33      1.0000 0.43711  0.68491  0.66442  Biso   1.000  H
  H34      1.0000 0.40719  0.72831  0.72313  Biso   1.000  H
  N24      1.0000 0.46829  0.70259  0.79959  Biso   1.000  N
  C37      1.0000 0.72149  0.50762  0.96431  Biso   1.000  C
  C38      1.0000 0.74241  0.54831  0.11729  Biso   1.000  C
  H35      1.0000 0.77070  0.47812  0.16449  Biso   1.000  H
  N25      1.0000 0.70481  0.56962  0.18859  Biso   1.000  N
  O11      1.0000 0.65159  0.54290  0.31939  Biso   1.000  O
  N26      1.0000 0.52769  0.72750  0.01773  Biso   1.000  N
  O12      1.0000 0.46922  0.70648  0.14400  Biso   1.000  O
  H36      1.0000 0.45231  0.77030  0.86053  Biso   1.000  H
  C39      1.0000 0.52599  0.74391  0.91127  Biso   1.000  C
  C40      1.0000 0.51750  0.68821  0.77403  Biso   1.000  C
  N27      1.0000 0.72851  0.55287  0.00990  Biso   1.000  N
  O13      1.0000 0.71489  0.49991  0.87251  Biso   1.000  O
  H37      1.0000 0.77811  0.56061  0.13103  Biso   1.000  H
  C41      1.0000 0.70068  0.62232  0.20840  Biso   1.000  C
  C42      1.0000 0.57050  0.73821  0.08551  Biso   1.000  C
  N28      1.0000 0.55131  0.71048  0.83973  Biso   1.000  N
  H38      1.0000 0.53819  0.77879  0.90329  Biso   1.000  H
  O14      1.0000 0.52870  0.66138  0.70233  Biso   1.000  O
  C43      1.0000 0.73851  0.59671  0.94888  Biso   1.000  C
  H39      1.0000 0.73581  0.63670  0.21016  Biso   1.000  H
  H40      1.0000 0.68490  0.62721  0.27679  Biso   1.000  H
  N29      1.0000 0.67000  0.64882  0.13187  Biso   1.000  N
  N30      1.0000 0.61199  0.70281  0.07730  Biso   1.000  N
  H41      1.0000 0.58389  0.77160  0.06962  Biso   1.000  H
  H42      1.0000 0.55780  0.73861  0.15712  Biso   1.000  H
  C44      1.0000 0.60601  0.71060  0.82469  Biso   1.000  C
  H43      1.0000 0.77131  0.61190  0.97221  Biso   1.000  H
  H44      1.0000 0.74299  0.58681  0.87627  Biso   1.000  H
  N31      1.0000 0.69790  0.63329  0.95502  Biso   1.000  N
  C45      1.0000 0.69269  0.66879  0.03738  Biso   1.000  C
  C46      1.0000 0.62511  0.67190  0.15651  Biso   1.000  C
  C47      1.0000 0.65101  0.70459  0.99823  Biso   1.000  C
  N32      1.0000 0.63430  0.68191  0.90068  Biso   1.000  N
  H45      1.0000 0.61840  0.74521  0.82660  Biso   1.000  H
  H46      1.0000 0.61361  0.69711  0.75568  Biso   1.000  H
  C48      1.0000 0.66591  0.64329  0.87442  Biso   1.000  C
  H47      1.0000 0.72589  0.68640  0.05127  Biso   1.000  H
  O15      1.0000 0.60091  0.66694  0.23657  Biso   1.000  O
  H48      1.0000 0.66471  0.73891  0.98803  Biso   1.000  H
  O16      1.0000 0.66487  0.62076  0.79191  Biso   1.000  O
  C49      1.0000 0.20070  0.37768  0.29160  Biso   1.000  C
  H49      1.0000 0.23579  0.36330  0.28984  Biso   1.000  H
  H50      1.0000 0.18492  0.37279  0.22321  Biso   1.000  H
  N33      1.0000 0.17002  0.35118  0.36813  Biso   1.000  N
  N34      1.0000 0.20479  0.43038  0.31141  Biso   1.000  N
  C50      1.0000 0.19271  0.33121  0.46262  Biso   1.000  C
  C51      1.0000 0.12509  0.32810  0.34349  Biso   1.000  C
  C52      1.0000 0.24239  0.45169  0.38271  Biso   1.000  C
  C53      1.0000 0.18110  0.46552  0.25169  Biso   1.000  C
  C54      1.0000 0.15099  0.29541  0.50177  Biso   1.000  C
  H51      1.0000 0.22591  0.31360  0.44873  Biso   1.000  H
  N35      1.0000 0.19788  0.36671  0.54498  Biso   1.000  N
  N36      1.0000 0.11201  0.29719  0.42270  Biso   1.000  N
  O17      1.0000 0.10089  0.33306  0.26343  Biso   1.000  O
  H52      1.0000 0.27809  0.43939  0.36897  Biso   1.000  H
  C55      1.0000 0.23749  0.50780  0.36161  Biso   1.000  C
  N37      1.0000 0.22849  0.44713  0.49010  Biso   1.000  N
  N38      1.0000 0.19731  0.51128  0.28577  Biso   1.000  N
  O18      1.0000 0.15161  0.45710  0.18061  Biso   1.000  O
  H53      1.0000 0.16469  0.26109  0.51197  Biso   1.000  H
  N39      1.0000 0.13432  0.31809  0.59932  Biso   1.000  N
  C56      1.0000 0.16589  0.35671  0.62558  Biso   1.000  C
  C57      1.0000 0.23849  0.40329  0.55112  Biso   1.000  C
  C58      1.0000 0.07052  0.26179  0.41449  Biso   1.000  C
  H54      1.0000 0.27072  0.52188  0.33551  Biso   1.000  H
  N40      1.0000 0.22401  0.52859  0.46108  Biso   1.000  N
  C59      1.0000 0.22151  0.49238  0.53569  Biso   1.000  C
  C60      1.0000 0.19221  0.55479  0.22083  Biso   1.000  C
  C61      1.0000 0.10599  0.28940  0.67531  Biso   1.000  C
  O19      1.0000 0.16488  0.37924  0.70809  Biso   1.000  O
  H55      1.0000 0.27130  0.38810  0.52779  Biso   1.000  H
  H56      1.0000 0.24300  0.41319  0.62373  Biso   1.000  H
  H57      1.0000 0.08391  0.22840  0.43038  Biso   1.000  H
  H58      1.0000 0.05782  0.26139  0.34288  Biso   1.000  H
  N41      1.0000 0.02771  0.27250  0.48227  Biso   1.000  N
  C62      1.0000 0.23031  0.57999  0.48526  Biso   1.000  C
  O20      1.0000 0.21491  0.50009  0.62749  Biso   1.000  O
  H59      1.0000 0.22710  0.56680  0.20203  Biso   1.000  H
  H60      1.0000 0.17419  0.54542  0.15666  Biso   1.000  H
  N42      1.0000 0.16400  0.59489  0.26988  Biso   1.000  N
  H61      1.0000 0.11841  0.25479  0.67340  Biso   1.000  H
  H62      1.0000 0.11359  0.30289  0.74432  Biso   1.000  H
  N43      1.0000 0.05129  0.28952  0.66027  Biso   1.000  N
  C63      1.0000 0.02601  0.25609  0.58873  Biso   1.000  C
  C64      1.0000 0.97862  0.28310  0.44481  Biso   1.000  C
  H63      1.0000 0.23208  0.58381  0.56079  Biso   1.000  H
  H64      1.0000 0.26350  0.59171  0.45648  Biso   1.000  H
  N44      1.0000 0.18901  0.61120  0.44612  Biso   1.000  N
  C65      1.0000 0.18920  0.62851  0.34057  Biso   1.000  C
  C66      1.0000 0.12162  0.61580  0.22398  Biso   1.000  C
  C67      1.0000 0.01748  0.31179  0.72597  Biso   1.000  C
  H65      1.0000 0.03821  0.22121  0.59671  Biso   1.000  H
  C68      1.0000 0.96769  0.26202  0.61759  Biso   1.000  C
  N45      1.0000 0.94488  0.27969  0.52349  Biso   1.000  N
  O21      1.0000 0.96920  0.29352  0.35600  Biso   1.000  O
  C69      1.0000 0.16029  0.64070  0.50760  Biso   1.000  C
  H66      1.0000 0.22459  0.63781  0.31693  Biso   1.000  H
  C70      1.0000 0.15219  0.67379  0.34280  Biso   1.000  C
  N46      1.0000 0.11270  0.65990  0.27157  Biso   1.000  N
  O22      1.0000 0.09719  0.59830  0.15359  Biso   1.000  O
  O23      1.0000 0.02872  0.33862  0.79767  Biso   1.000  O
  N47      1.0000 0.96831  0.29741  0.70041  Biso   1.000  N
  H67      1.0000 0.95229  0.22970  0.63947  Biso   1.000  H
  C71      1.0000 0.88938  0.28110  0.50668  Biso   1.000  C
  N48      1.0000 0.13551  0.67509  0.44942  Biso   1.000  N
  O24      1.0000 0.15709  0.63699  0.60170  Biso   1.000  O
  H68      1.0000 0.17002  0.70511  0.32200  Biso   1.000  H
  C72      1.0000 0.07530  0.69599  0.23250  Biso   1.000  C
  C73      1.0000 0.92470  0.30401  0.76750  Biso   1.000  C
  H69      1.0000 0.87371  0.25108  0.53707  Biso   1.000  H
  H70      1.0000 0.88259  0.28040  0.43192  Biso   1.000  H
  N49      1.0000 0.86449  0.32491  0.55058  Biso   1.000  N
  C74      1.0000 0.11062  0.71890  0.49332  Biso   1.000  C
  H71      1.0000 0.06291  0.68491  0.16442  Biso   1.000  H
  H72      1.0000 0.09279  0.72831  0.22313  Biso   1.000  H
  N50      1.0000 0.03169  0.70259  0.29959  Biso   1.000  N
  H73      1.0000 0.93709  0.31509  0.83558  Biso   1.000  H
  H74      1.0000 0.90721  0.27169  0.77687  Biso   1.000  H
  N51      1.0000 0.88730  0.34010  0.72843  Biso   1.000  N
  C75      1.0000 0.84781  0.32621  0.65720  Biso   1.000  C
  C76      1.0000 0.83971  0.35930  0.49240  Biso   1.000  C
  H75      1.0000 0.12629  0.74892  0.46293  Biso   1.000  H
  H76      1.0000 0.11741  0.71960  0.56808  Biso   1.000  H
  N52      1.0000 0.05512  0.72031  0.47651  Biso   1.000  N
  C77      1.0000 0.03231  0.73798  0.38241  Biso   1.000  C
  C78      1.0000 0.98252  0.68821  0.27403  Biso   1.000  C
  C79      1.0000 0.87838  0.38420  0.77602  Biso   1.000  C
  C80      1.0000 0.81080  0.37149  0.65943  Biso   1.000  C
  H77      1.0000 0.82998  0.29489  0.67800  Biso   1.000  H
  N53      1.0000 0.81099  0.38880  0.55388  Biso   1.000  N
  O25      1.0000 0.84291  0.36301  0.39830  Biso   1.000  O
  C81      1.0000 0.02138  0.71690  0.55519  Biso   1.000  C
  H78      1.0000 0.04771  0.77030  0.36053  Biso   1.000  H
  C82      1.0000 0.97399  0.74391  0.41127  Biso   1.000  C
  N54      1.0000 0.94871  0.71048  0.33973  Biso   1.000  N
  O26      1.0000 0.97128  0.66138  0.20233  Biso   1.000  O
  N55      1.0000 0.83600  0.40511  0.73012  Biso   1.000  N
  O27      1.0000 0.90281  0.40170  0.84641  Biso   1.000  O
  H79      1.0000 0.77541  0.36219  0.68307  Biso   1.000  H
  C83      1.0000 0.76969  0.42001  0.51474  Biso   1.000  C
  O28      1.0000 0.03080  0.70648  0.64400  Biso   1.000  O
  N56      1.0000 0.97229  0.72750  0.51773  Biso   1.000  N
  H80      1.0000 0.96179  0.77879  0.40329  Biso   1.000  H
  C84      1.0000 0.89401  0.71060  0.32469  Biso   1.000  C
  C85      1.0000 0.80779  0.44521  0.77917  Biso   1.000  C
  H81      1.0000 0.76792  0.41619  0.43921  Biso   1.000  H
  H82      1.0000 0.73650  0.40829  0.54352  Biso   1.000  H
  N57      1.0000 0.77599  0.47141  0.53892  Biso   1.000  N
  C86      1.0000 0.92948  0.73821  0.58551  Biso   1.000  C
  H83      1.0000 0.88159  0.74521  0.32660  Biso   1.000  H
  H84      1.0000 0.88641  0.69711  0.25568  Biso   1.000  H
  N58      1.0000 0.86568  0.68191  0.40068  Biso   1.000  N
  H85      1.0000 0.77290  0.43320  0.79797  Biso   1.000  H
  H86      1.0000 0.82581  0.45458  0.84334  Biso   1.000  H
  N59      1.0000 0.80269  0.48872  0.71423  Biso   1.000  N
  C87      1.0000 0.76251  0.49220  0.63839  Biso   1.000  C
  C88      1.0000 0.77849  0.50762  0.46431  Biso   1.000  C
  H87      1.0000 0.91609  0.77160  0.56962  Biso   1.000  H
  H88      1.0000 0.94218  0.73861  0.65712  Biso   1.000  H
  N60      1.0000 0.88799  0.70281  0.57730  Biso   1.000  N
  C89      1.0000 0.84901  0.70459  0.49823  Biso   1.000  C
  C90      1.0000 0.83411  0.64329  0.37442  Biso   1.000  C
  C91      1.0000 0.81890  0.53448  0.74831  Biso   1.000  C
  C92      1.0000 0.75761  0.54831  0.61729  Biso   1.000  C
  H89      1.0000 0.72928  0.47812  0.66449  Biso   1.000  H
  N61      1.0000 0.77151  0.55287  0.50990  Biso   1.000  N
  O29      1.0000 0.78509  0.49991  0.37251  Biso   1.000  O
  C93      1.0000 0.87491  0.67190  0.65651  Biso   1.000  C
  H90      1.0000 0.83531  0.73891  0.48803  Biso   1.000  H
  C94      1.0000 0.80729  0.66879  0.53738  Biso   1.000  C
  N62      1.0000 0.80212  0.63329  0.45502  Biso   1.000  N
  O30      1.0000 0.83512  0.62076  0.29191  Biso   1.000  O
  N63      1.0000 0.79521  0.56962  0.68859  Biso   1.000  N
  O31      1.0000 0.84839  0.54290  0.81939  Biso   1.000  O
  H91      1.0000 0.72191  0.56061  0.63103  Biso   1.000  H
  C95      1.0000 0.76151  0.59671  0.44888  Biso   1.000  C
  N64      1.0000 0.82998  0.64882  0.63187  Biso   1.000  N
  O32      1.0000 0.89911  0.66694  0.73657  Biso   1.000  O
  H92      1.0000 0.77409  0.68640  0.55127  Biso   1.000  H
  C96      1.0000 0.79930  0.62232  0.70840  Biso   1.000  C
  H93      1.0000 0.72870  0.61190  0.47221  Biso   1.000  H
  H94      1.0000 0.75700  0.58681  0.37627  Biso   1.000  H
  H95      1.0000 0.76421  0.63670  0.71016  Biso   1.000  H
  H96      1.0000 0.81508  0.62721  0.77679  Biso   1.000  H
  N65      1.0000 0.38801  0.20279  0.42270  Biso   1.000  N
  C97      1.0000 0.37489  0.17189  0.34349  Biso   1.000  C
  C98      1.0000 0.34899  0.20461  0.50177  Biso   1.000  C
  C99      1.0000 0.42950  0.23819  0.41449  Biso   1.000  C
  N66      1.0000 0.33000  0.14880  0.36813  Biso   1.000  N
  O33      1.0000 0.39909  0.16696  0.26343  Biso   1.000  O
  C100     1.0000 0.30731  0.16881  0.46262  Biso   1.000  C
  H97      1.0000 0.33529  0.23889  0.51197  Biso   1.000  H
  N67      1.0000 0.36570  0.18189  0.59932  Biso   1.000  N
  H98      1.0000 0.41611  0.27162  0.43038  Biso   1.000  H
  H99      1.0000 0.44220  0.23859  0.34288  Biso   1.000  H
  N68      1.0000 0.47231  0.22751  0.48227  Biso   1.000  N
  C101     1.0000 0.29932  0.12230  0.29160  Biso   1.000  C
  H100     1.0000 0.27411  0.18641  0.44873  Biso   1.000  H
  N69      1.0000 0.30210  0.13331  0.54498  Biso   1.000  N
  C102     1.0000 0.33409  0.14331  0.62558  Biso   1.000  C
  C103     1.0000 0.39399  0.21061  0.67531  Biso   1.000  C
  C104     1.0000 0.47401  0.24389  0.58873  Biso   1.000  C
  C105     1.0000 0.52140  0.21691  0.44481  Biso   1.000  C
  H101     1.0000 0.26419  0.13672  0.28984  Biso   1.000  H
  H102     1.0000 0.31510  0.12719  0.22321  Biso   1.000  H
  N70      1.0000 0.29519  0.06960  0.31141  Biso   1.000  N
  C106     1.0000 0.26149  0.09669  0.55112  Biso   1.000  C
  O34      1.0000 0.33513  0.12074  0.70809  Biso   1.000  O
  H103     1.0000 0.38160  0.24519  0.67340  Biso   1.000  H
  H104     1.0000 0.38639  0.19709  0.74432  Biso   1.000  H
  N71      1.0000 0.44869  0.21050  0.66027  Biso   1.000  N
  C107     1.0000 0.53229  0.23800  0.61759  Biso   1.000  C
  H105     1.0000 0.46181  0.27881  0.59671  Biso   1.000  H
  N72      1.0000 0.55510  0.22029  0.52349  Biso   1.000  N
  O35      1.0000 0.53078  0.20650  0.35600  Biso   1.000  O
  C108     1.0000 0.25759  0.04829  0.38271  Biso   1.000  C
  C109     1.0000 0.31889  0.03450  0.25169  Biso   1.000  C
  H106     1.0000 0.22869  0.11189  0.52779  Biso   1.000  H
  H107     1.0000 0.25701  0.08680  0.62373  Biso   1.000  H
  N73      1.0000 0.27149  0.05289  0.49010  Biso   1.000  N
  C110     1.0000 0.48250  0.18819  0.72597  Biso   1.000  C
  N74      1.0000 0.53171  0.20261  0.70041  Biso   1.000  N
  H108     1.0000 0.54769  0.27032  0.63947  Biso   1.000  H
  C111     1.0000 0.61060  0.21892  0.50668  Biso   1.000  C
  H109     1.0000 0.22189  0.06059  0.36897  Biso   1.000  H
  C112     1.0000 0.26250  0.99222  0.36161  Biso   1.000  C
  O36      1.0000 0.34841  0.04292  0.18061  Biso   1.000  O
  N75      1.0000 0.30271  0.98870  0.28577  Biso   1.000  N
  C113     1.0000 0.27851  0.00760  0.53569  Biso   1.000  C
  O37      1.0000 0.47130  0.16136  0.79767  Biso   1.000  O
  C114     1.0000 0.57528  0.19601  0.76750  Biso   1.000  C
  H110     1.0000 0.62631  0.24890  0.53707  Biso   1.000  H
  H111     1.0000 0.61739  0.21958  0.43192  Biso   1.000  H
  N76      1.0000 0.63549  0.17511  0.55058  Biso   1.000  N
  H112     1.0000 0.22930  0.97810  0.33551  Biso   1.000  H
  N77      1.0000 0.27600  0.97139  0.46108  Biso   1.000  N
  C115     1.0000 0.30781  0.94519  0.22083  Biso   1.000  C
  O38      1.0000 0.28511  0.99989  0.62749  Biso   1.000  O
  H113     1.0000 0.56289  0.18489  0.83558  Biso   1.000  H
  H114     1.0000 0.59281  0.22829  0.77687  Biso   1.000  H
  N78      1.0000 0.61268  0.15992  0.72843  Biso   1.000  N
  C116     1.0000 0.65221  0.17381  0.65720  Biso   1.000  C
  C117     1.0000 0.66031  0.14072  0.49240  Biso   1.000  C
  C118     1.0000 0.26971  0.91999  0.48526  Biso   1.000  C
  H115     1.0000 0.27292  0.93322  0.20203  Biso   1.000  H
  H116     1.0000 0.32579  0.95460  0.15666  Biso   1.000  H
  N79      1.0000 0.33598  0.90509  0.26988  Biso   1.000  N
  C119     1.0000 0.62160  0.11581  0.77602  Biso   1.000  C
  C120     1.0000 0.68918  0.12849  0.65943  Biso   1.000  C
  H117     1.0000 0.67000  0.20509  0.67800  Biso   1.000  H
  N80      1.0000 0.68899  0.11122  0.55388  Biso   1.000  N
  O39      1.0000 0.65711  0.13701  0.39830  Biso   1.000  O
  H118     1.0000 0.26790  0.91621  0.56079  Biso   1.000  H
  H119     1.0000 0.23648  0.90831  0.45648  Biso   1.000  H
  N81      1.0000 0.31101  0.88878  0.44612  Biso   1.000  N
  C121     1.0000 0.31082  0.87151  0.34057  Biso   1.000  C
  C122     1.0000 0.37840  0.88419  0.22398  Biso   1.000  C
  N82      1.0000 0.66402  0.09491  0.73012  Biso   1.000  N
  O40      1.0000 0.59721  0.09828  0.84641  Biso   1.000  O
  H120     1.0000 0.72461  0.13779  0.68307  Biso   1.000  H
  C123     1.0000 0.73029  0.08001  0.51474  Biso   1.000  C
  C124     1.0000 0.33969  0.85928  0.50760  Biso   1.000  C
  H121     1.0000 0.27539  0.86221  0.31693  Biso   1.000  H
  C125     1.0000 0.34779  0.82619  0.34280  Biso   1.000  C
  N83      1.0000 0.38732  0.84008  0.27157  Biso   1.000  N
  O41      1.0000 0.40279  0.90172  0.15359  Biso   1.000  O
  C126     1.0000 0.69219  0.05481  0.77917  Biso   1.000  C
  H122     1.0000 0.73210  0.08379  0.43921  Biso   1.000  H
  H123     1.0000 0.76352  0.09169  0.54352  Biso   1.000  H
  N84      1.0000 0.72400  0.02861  0.53892  Biso   1.000  N
  N85      1.0000 0.36451  0.82489  0.44942  Biso   1.000  N
  O42      1.0000 0.34289  0.86299  0.60170  Biso   1.000  O
  H124     1.0000 0.33000  0.79491  0.32200  Biso   1.000  H
  C127     1.0000 0.42472  0.80399  0.23250  Biso   1.000  C
  H125     1.0000 0.72708  0.06678  0.79797  Biso   1.000  H
  H126     1.0000 0.67421  0.04540  0.84334  Biso   1.000  H
  N86      1.0000 0.69729  0.01130  0.71423  Biso   1.000  N
  C128     1.0000 0.73750  0.00778  0.63839  Biso   1.000  C
  C129     1.0000 0.72149  0.99240  0.46431  Biso   1.000  C
  C130     1.0000 0.38940  0.78108  0.49332  Biso   1.000  C
  H127     1.0000 0.43711  0.81511  0.16442  Biso   1.000  H
  H128     1.0000 0.40719  0.77171  0.22313  Biso   1.000  H
  N87      1.0000 0.46829  0.79739  0.29959  Biso   1.000  N
  C131     1.0000 0.68111  0.96550  0.74831  Biso   1.000  C
  H129     1.0000 0.77070  0.02190  0.66449  Biso   1.000  H
  C132     1.0000 0.74241  0.95171  0.61729  Biso   1.000  C
  O43      1.0000 0.71489  0.00011  0.37251  Biso   1.000  O
  N88      1.0000 0.72851  0.94711  0.50990  Biso   1.000  N
  H130     1.0000 0.37369  0.75110  0.46293  Biso   1.000  H
  H131     1.0000 0.38261  0.78042  0.56808  Biso   1.000  H
  N89      1.0000 0.44490  0.77971  0.47651  Biso   1.000  N
  C133     1.0000 0.46771  0.76200  0.38241  Biso   1.000  C
  C134     1.0000 0.51750  0.81181  0.27403  Biso   1.000  C
  N90      1.0000 0.70481  0.93040  0.68859  Biso   1.000  N
  O44      1.0000 0.65159  0.95708  0.81939  Biso   1.000  O
  H132     1.0000 0.77811  0.93941  0.63103  Biso   1.000  H
  C135     1.0000 0.73851  0.90331  0.44888  Biso   1.000  C
  C136     1.0000 0.47860  0.78309  0.55519  Biso   1.000  C
  H133     1.0000 0.45231  0.72968  0.36053  Biso   1.000  H
  C137     1.0000 0.52599  0.75611  0.41127  Biso   1.000  C
  N91      1.0000 0.55131  0.78950  0.33973  Biso   1.000  N
  O45      1.0000 0.52870  0.83864  0.20233  Biso   1.000  O
  C138     1.0000 0.70068  0.87770  0.70840  Biso   1.000  C
  H134     1.0000 0.77131  0.88811  0.47221  Biso   1.000  H
  H135     1.0000 0.74299  0.91320  0.37627  Biso   1.000  H
  N92      1.0000 0.69790  0.86669  0.45502  Biso   1.000  N
  N93      1.0000 0.52769  0.77249  0.51773  Biso   1.000  N
  O46      1.0000 0.46922  0.79350  0.64400  Biso   1.000  O
  H136     1.0000 0.53819  0.72119  0.40329  Biso   1.000  H
  C139     1.0000 0.60601  0.78939  0.32469  Biso   1.000  C
  H137     1.0000 0.73581  0.86328  0.71016  Biso   1.000  H
  H138     1.0000 0.68490  0.87281  0.77679  Biso   1.000  H
  N94      1.0000 0.67000  0.85120  0.63187  Biso   1.000  N
  C140     1.0000 0.66591  0.85669  0.37442  Biso   1.000  C
  C141     1.0000 0.69269  0.83119  0.53738  Biso   1.000  C
  C142     1.0000 0.57050  0.76181  0.58551  Biso   1.000  C
  H139     1.0000 0.61840  0.75481  0.32660  Biso   1.000  H
  H140     1.0000 0.61361  0.80291  0.25568  Biso   1.000  H
  N95      1.0000 0.63430  0.81811  0.40068  Biso   1.000  N
  C143     1.0000 0.62511  0.82811  0.65651  Biso   1.000  C
  O47      1.0000 0.66487  0.87926  0.29191  Biso   1.000  O
  C144     1.0000 0.65101  0.79539  0.49823  Biso   1.000  C
  H141     1.0000 0.72589  0.81359  0.55127  Biso   1.000  H
  H142     1.0000 0.58389  0.72838  0.56962  Biso   1.000  H
  H143     1.0000 0.55780  0.76141  0.65712  Biso   1.000  H
  N96      1.0000 0.61199  0.79721  0.57730  Biso   1.000  N
  O48      1.0000 0.60091  0.83304  0.73657  Biso   1.000  O
  H144     1.0000 0.66471  0.76111  0.48803  Biso   1.000  H
  C145     1.0000 0.10599  0.21061  0.17531  Biso   1.000  C
  N97      1.0000 0.13432  0.18189  0.09932  Biso   1.000  N
  H145     1.0000 0.11841  0.24519  0.17340  Biso   1.000  H
  H146     1.0000 0.11359  0.19709  0.24432  Biso   1.000  H
  N98      1.0000 0.05129  0.21050  0.16027  Biso   1.000  N
  C146     1.0000 0.16589  0.14331  0.12558  Biso   1.000  C
  C147     1.0000 0.15099  0.20461  0.00177  Biso   1.000  C
  C148     1.0000 0.02601  0.24389  0.08873  Biso   1.000  C
  C149     1.0000 0.01748  0.18819  0.22597  Biso   1.000  C
  N99      1.0000 0.19788  0.13331  0.04498  Biso   1.000  N
  O49      1.0000 0.16488  0.12074  0.20809  Biso   1.000  O
  C150     1.0000 0.19271  0.16881  0.96262  Biso   1.000  C
  H147     1.0000 0.16469  0.23889  0.01197  Biso   1.000  H
  N100     1.0000 0.11201  0.20279  0.92270  Biso   1.000  N
  H148     1.0000 0.03821  0.27881  0.09671  Biso   1.000  H
  C151     1.0000 0.96769  0.23800  0.11759  Biso   1.000  C
  N101     1.0000 0.02771  0.22751  0.98227  Biso   1.000  N
  O50      1.0000 0.02872  0.16136  0.29767  Biso   1.000  O
  N102     1.0000 0.96831  0.20261  0.20041  Biso   1.000  N
  C152     1.0000 0.23849  0.09669  0.05112  Biso   1.000  C
  H149     1.0000 0.22591  0.18641  0.94873  Biso   1.000  H
  N103     1.0000 0.17002  0.14880  0.86813  Biso   1.000  N
  C153     1.0000 0.07052  0.23819  0.91449  Biso   1.000  C
  C154     1.0000 0.12509  0.17189  0.84349  Biso   1.000  C
  H150     1.0000 0.95229  0.27032  0.13947  Biso   1.000  H
  N104     1.0000 0.94488  0.22029  0.02349  Biso   1.000  N
  C155     1.0000 0.97862  0.21691  0.94481  Biso   1.000  C
  C156     1.0000 0.92470  0.19601  0.26750  Biso   1.000  C
  H151     1.0000 0.27130  0.11189  0.02779  Biso   1.000  H
  H152     1.0000 0.24300  0.08680  0.12373  Biso   1.000  H
  N105     1.0000 0.22849  0.05289  0.99010  Biso   1.000  N
  C157     1.0000 0.20070  0.12230  0.79160  Biso   1.000  C
  H153     1.0000 0.08391  0.27162  0.93038  Biso   1.000  H
  H154     1.0000 0.05782  0.23859  0.84288  Biso   1.000  H
  O51      1.0000 0.10089  0.16696  0.76343  Biso   1.000  O
  C158     1.0000 0.88938  0.21892  0.00668  Biso   1.000  C
  O52      1.0000 0.96920  0.20650  0.85600  Biso   1.000  O
  H155     1.0000 0.93709  0.18489  0.33558  Biso   1.000  H
  H156     1.0000 0.90721  0.22829  0.27687  Biso   1.000  H
  N106     1.0000 0.88730  0.15992  0.22843  Biso   1.000  N
  C159     1.0000 0.22151  0.00760  0.03569  Biso   1.000  C
  C160     1.0000 0.24239  0.04829  0.88271  Biso   1.000  C
  N107     1.0000 0.20479  0.06960  0.81141  Biso   1.000  N
  H157     1.0000 0.23579  0.13672  0.78984  Biso   1.000  H
  H158     1.0000 0.18492  0.12719  0.72321  Biso   1.000  H
  H159     1.0000 0.88259  0.21958  0.93192  Biso   1.000  H
  H160     1.0000 0.87371  0.24890  0.03707  Biso   1.000  H
  N108     1.0000 0.86449  0.17511  0.05058  Biso   1.000  N
  C161     1.0000 0.84781  0.17381  0.15720  Biso   1.000  C
  C162     1.0000 0.87838  0.11581  0.27602  Biso   1.000  C
  N109     1.0000 0.22401  0.97139  0.96108  Biso   1.000  N
  O53      1.0000 0.21491  0.99989  0.12749  Biso   1.000  O
  C163     1.0000 0.23749  0.99222  0.86161  Biso   1.000  C
  H161     1.0000 0.27809  0.06059  0.86897  Biso   1.000  H
  C164     1.0000 0.18110  0.03450  0.75169  Biso   1.000  C
  C165     1.0000 0.83971  0.14072  0.99240  Biso   1.000  C
  C166     1.0000 0.81080  0.12849  0.15943  Biso   1.000  C
  H162     1.0000 0.82998  0.20509  0.17800  Biso   1.000  H
  N110     1.0000 0.83600  0.09491  0.23012  Biso   1.000  N
  O54      1.0000 0.90281  0.09828  0.34641  Biso   1.000  O
  C167     1.0000 0.23031  0.91999  0.98526  Biso   1.000  C
  H163     1.0000 0.27072  0.97810  0.83551  Biso   1.000  H
  N111     1.0000 0.19731  0.98870  0.78577  Biso   1.000  N
  O55      1.0000 0.15161  0.04292  0.68061  Biso   1.000  O
  O56      1.0000 0.84291  0.13701  0.89830  Biso   1.000  O
  N112     1.0000 0.81099  0.11122  0.05388  Biso   1.000  N
  H164     1.0000 0.77541  0.13779  0.18307  Biso   1.000  H
  C168     1.0000 0.80779  0.05481  0.27917  Biso   1.000  C
  H165     1.0000 0.26350  0.90831  0.95648  Biso   1.000  H
  N113     1.0000 0.18901  0.88878  0.94612  Biso   1.000  N
  H166     1.0000 0.23208  0.91621  0.06079  Biso   1.000  H
  C169     1.0000 0.19221  0.94519  0.72083  Biso   1.000  C
  C170     1.0000 0.76969  0.08001  0.01474  Biso   1.000  C
  H167     1.0000 0.77290  0.06678  0.29797  Biso   1.000  H
  H168     1.0000 0.82581  0.04540  0.34334  Biso   1.000  H
  N114     1.0000 0.80269  0.01130  0.21423  Biso   1.000  N
  C171     1.0000 0.18920  0.87151  0.84057  Biso   1.000  C
  C172     1.0000 0.16029  0.85928  0.00760  Biso   1.000  C
  H169     1.0000 0.22710  0.93322  0.70203  Biso   1.000  H
  H170     1.0000 0.17419  0.95460  0.65666  Biso   1.000  H
  N115     1.0000 0.16400  0.90509  0.76988  Biso   1.000  N
  H171     1.0000 0.76792  0.08379  0.93921  Biso   1.000  H
  H172     1.0000 0.73650  0.09169  0.04352  Biso   1.000  H
  N116     1.0000 0.77599  0.02861  0.03892  Biso   1.000  N
  C173     1.0000 0.81890  0.96550  0.24831  Biso   1.000  C
  C174     1.0000 0.76251  0.00778  0.13839  Biso   1.000  C
  H173     1.0000 0.22459  0.86221  0.81693  Biso   1.000  H
  C175     1.0000 0.15219  0.82619  0.84280  Biso   1.000  C
  N117     1.0000 0.13551  0.82489  0.94942  Biso   1.000  N
  O57      1.0000 0.15709  0.86299  0.10170  Biso   1.000  O
  C176     1.0000 0.12162  0.88419  0.72398  Biso   1.000  C
  C177     1.0000 0.77849  0.99240  0.96431  Biso   1.000  C
  N118     1.0000 0.79521  0.93040  0.18859  Biso   1.000  N
  O58      1.0000 0.84839  0.95708  0.31939  Biso   1.000  O
  C178     1.0000 0.75761  0.95171  0.11729  Biso   1.000  C
  H174     1.0000 0.72928  0.02190  0.16449  Biso   1.000  H
  H175     1.0000 0.17002  0.79491  0.82200  Biso   1.000  H
  N119     1.0000 0.11270  0.84008  0.77157  Biso   1.000  N
  C179     1.0000 0.11062  0.78108  0.99332  Biso   1.000  C
  O59      1.0000 0.09719  0.90172  0.65359  Biso   1.000  O
  N120     1.0000 0.77151  0.94711  0.00990  Biso   1.000  N
  O60      1.0000 0.78509  0.00011  0.87251  Biso   1.000  O
  C180     1.0000 0.79930  0.87770  0.20840  Biso   1.000  C
  H176     1.0000 0.72191  0.93941  0.13103  Biso   1.000  H
  C181     1.0000 0.07530  0.80399  0.73250  Biso   1.000  C
  H177     1.0000 0.12629  0.75110  0.96293  Biso   1.000  H
  N121     1.0000 0.05512  0.77971  0.97651  Biso   1.000  N
  H178     1.0000 0.11741  0.78042  0.06808  Biso   1.000  H
  C182     1.0000 0.76151  0.90331  0.94888  Biso   1.000  C
  H179     1.0000 0.76421  0.86328  0.21016  Biso   1.000  H
  H180     1.0000 0.81508  0.87281  0.27679  Biso   1.000  H
  N122     1.0000 0.82998  0.85120  0.13187  Biso   1.000  N
  H181     1.0000 0.06291  0.81511  0.66442  Biso   1.000  H
  H182     1.0000 0.09279  0.77171  0.72313  Biso   1.000  H
  N123     1.0000 0.03169  0.79739  0.79959  Biso   1.000  N
  C183     1.0000 0.03231  0.76200  0.88241  Biso   1.000  C
  C184     1.0000 0.02138  0.78309  0.05519  Biso   1.000  C
  H183     1.0000 0.72870  0.88811  0.97221  Biso   1.000  H
  H184     1.0000 0.75700  0.91320  0.87627  Biso   1.000  H
  N124     1.0000 0.80212  0.86669  0.95502  Biso   1.000  N
  C185     1.0000 0.80729  0.83119  0.03738  Biso   1.000  C
  C186     1.0000 0.87491  0.82811  0.15651  Biso   1.000  C
  C187     1.0000 0.98252  0.81181  0.77403  Biso   1.000  C
  C188     1.0000 0.97399  0.75611  0.91127  Biso   1.000  C
  H185     1.0000 0.04771  0.72968  0.86053  Biso   1.000  H
  N125     1.0000 0.97229  0.77249  0.01773  Biso   1.000  N
  O61      1.0000 0.03080  0.79350  0.14400  Biso   1.000  O
  C189     1.0000 0.83411  0.85669  0.87442  Biso   1.000  C
  C190     1.0000 0.84901  0.79539  0.99823  Biso   1.000  C
  H186     1.0000 0.77409  0.81359  0.05127  Biso   1.000  H
  N126     1.0000 0.88799  0.79721  0.07730  Biso   1.000  N
  O62      1.0000 0.89911  0.83304  0.23657  Biso   1.000  O
  N127     1.0000 0.94871  0.78950  0.83973  Biso   1.000  N
  O63      1.0000 0.97128  0.83864  0.70233  Biso   1.000  O
  H187     1.0000 0.96179  0.72119  0.90329  Biso   1.000  H
  C191     1.0000 0.92948  0.76181  0.08551  Biso   1.000  C
  N128     1.0000 0.86568  0.81811  0.90068  Biso   1.000  N
  O64      1.0000 0.83512  0.87926  0.79191  Biso   1.000  O
  H188     1.0000 0.83531  0.76111  0.98803  Biso   1.000  H
  C192     1.0000 0.89401  0.78939  0.82469  Biso   1.000  C
  H189     1.0000 0.91609  0.72838  0.06962  Biso   1.000  H
  H190     1.0000 0.94218  0.76141  0.15712  Biso   1.000  H
  H191     1.0000 0.88159  0.75481  0.82660  Biso   1.000  H
  H192     1.0000 0.88641  0.80291  0.75568  Biso   1.000  H
