data_image0
_cell_length_a       13.349
_cell_length_b       16.793
_cell_length_c       36.563
_cell_angle_alpha    90
_cell_angle_beta     90.08
_cell_angle_gamma    90

_symmetry_space_group_name_H-M    "P 1"
_symmetry_int_tables_number       1

loop_
  _symmetry_equiv_pos_as_xyz
  'x, y, z'

loop_
  _atom_site_label
  _atom_site_occupancy
  _atom_site_fract_x
  _atom_site_fract_y
  _atom_site_fract_z
  _atom_site_thermal_displace_type
  _atom_site_B_iso_or_equiv
  _atom_site_type_symbol
  C1       1.0000 0.65099  0.57500  0.41271  Biso   1.000  C
  C2       1.0000 0.62187  0.54558  0.37869  Biso   1.000  C
  C3       1.0000 0.74996  0.60150  0.41531  Biso   1.000  C
  H1       1.0000 0.60724  0.57691  0.43251  Biso   1.000  H
  C4       1.0000 0.68618  0.54261  0.34959  Biso   1.000  C
  H2       1.0000 0.55653  0.52736  0.37571  Biso   1.000  H
  C5       1.0000 0.81217  0.59942  0.38561  Biso   1.000  C
  N1       1.0000 0.80363  0.63169  0.44449  Biso   1.000  N
  C6       1.0000 0.78500  0.56899  0.35191  Biso   1.000  C
  H3       1.0000 0.66310  0.52218  0.32749  Biso   1.000  H
  N2       1.0000 0.90758  0.62919  0.39800  Biso   1.000  N
  C7       1.0000 0.89573  0.64658  0.43320  Biso   1.000  C
  C8       1.0000 0.76819  0.63818  0.48229  Biso   1.000  C
  H4       1.0000 0.82905  0.56637  0.33230  Biso   1.000  H
  C9       1.0000 0.99747  0.63902  0.37639  Biso   1.000  C
  H5       1.0000 0.94628  0.66689  0.44799  Biso   1.000  H
  H6       1.0000 0.71225  0.60198  0.48560  Biso   1.000  H
  H7       1.0000 0.82144  0.62097  0.49859  Biso   1.000  H
  C10      1.0000 0.73535  0.72060  0.49370  Biso   1.000  C
  H8       1.0000 0.98052  0.64027  0.35060  Biso   1.000  H
  C11      1.0000 0.04755  0.71631  0.38741  Biso   1.000  C
  H9       1.0000 0.04266  0.59471  0.38060  Biso   1.000  H
  H10      1.0000 0.69393  0.71601  0.51530  Biso   1.000  H
  H11      1.0000 0.69393  0.74281  0.47441  Biso   1.000  H
  N3       1.0000 0.81786  0.77741  0.50149  Biso   1.000  N
  C12      1.0000 0.12713  0.71530  0.41331  Biso   1.000  C
  C13      1.0000 0.00825  0.78860  0.37530  Biso   1.000  C
  C14      1.0000 0.86287  0.75371  0.53740  Biso   1.000  C
  C15      1.0000 0.77196  0.85768  0.50680  Biso   1.000  C
  C16      1.0000 0.16457  0.78688  0.42680  Biso   1.000  C
  C17      1.0000 0.16899  0.63598  0.42759  Biso   1.000  C
  C18      1.0000 0.92245  0.78890  0.34721  Biso   1.000  C
  C19      1.0000 0.04614  0.86048  0.38971  Biso   1.000  C
  C20      1.0000 0.95513  0.80129  0.54911  Biso   1.000  C
  H12      1.0000 0.81208  0.75919  0.55619  Biso   1.000  H
  H13      1.0000 0.88107  0.69779  0.53620  Biso   1.000  H
  C21      1.0000 0.72493  0.89519  0.47299  Biso   1.000  C
  H14      1.0000 0.72087  0.85339  0.52550  Biso   1.000  H
  H15      1.0000 0.82323  0.89347  0.51590  Biso   1.000  H
  C22      1.0000 0.12826  0.85970  0.41381  Biso   1.000  C
  C23      1.0000 0.23316  0.78491  0.45951  Biso   1.000  C
  H16      1.0000 0.13725  0.59257  0.41501  Biso   1.000  H
  H17      1.0000 0.23999  0.63401  0.42341  Biso   1.000  H
  H18      1.0000 0.15598  0.63157  0.45330  Biso   1.000  H
  H19      1.0000 0.86084  0.80236  0.35919  Biso   1.000  H
  H20      1.0000 0.93638  0.82749  0.32850  Biso   1.000  H
  H21      1.0000 0.91649  0.73709  0.33630  Biso   1.000  H
  C24      1.0000 0.99621  0.93801  0.38030  Biso   1.000  C
  H22      1.0000 0.96362  0.79718  0.57539  Biso   1.000  H
  H23      1.0000 0.94544  0.85696  0.54301  Biso   1.000  H
  N4       1.0000 0.04728  0.77080  0.53035  Biso   1.000  N
  H24      1.0000 0.67687  0.93479  0.48109  Biso   1.000  H
  H25      1.0000 0.68795  0.85417  0.46011  Biso   1.000  H
  N5       1.0000 0.79338  0.93319  0.44709  Biso   1.000  N
  C25      1.0000 0.17542  0.93801  0.42540  Biso   1.000  C
  H26      1.0000 0.26538  0.83618  0.46271  Biso   1.000  H
  H27      1.0000 0.28476  0.74489  0.45609  Biso   1.000  H
  N6       1.0000 0.17156  0.76538  0.49238  Biso   1.000  N
  H28      1.0000 0.97334  0.93706  0.35511  Biso   1.000  H
  N7       1.0000 0.90799  0.94986  0.40563  Biso   1.000  N
  H29      1.0000 0.04327  0.98160  0.38309  Biso   1.000  H
  C26      1.0000 0.08717  0.80230  0.50089  Biso   1.000  C
  C27      1.0000 0.11257  0.71059  0.54260  Biso   1.000  C
  C28      1.0000 0.86815  0.89901  0.42910  Biso   1.000  C
  C29      1.0000 0.78404  0.01030  0.43410  Biso   1.000  C
  H30      1.0000 0.12368  0.97576  0.43090  Biso   1.000  H
  H31      1.0000 0.21626  0.92967  0.44671  Biso   1.000  H
  H32      1.0000 0.21617  0.95820  0.40579  Biso   1.000  H
  C30      1.0000 0.19061  0.70791  0.51831  Biso   1.000  C
  C31      1.0000 0.85631  0.02120  0.40801  Biso   1.000  C
  H33      1.0000 0.05985  0.84458  0.48779  Biso   1.000  H
  C32      1.0000 0.10535  0.66022  0.57331  Biso   1.000  C
  H34      1.0000 0.88959  0.84690  0.43260  Biso   1.000  H
  C33      1.0000 0.71808  0.07211  0.44430  Biso   1.000  C
  C34      1.0000 0.26884  0.65450  0.52291  Biso   1.000  C
  C35      1.0000 0.86837  0.09212  0.38960  Biso   1.000  C
  H35      1.0000 0.05162  0.66022  0.58950  Biso   1.000  H
  C36      1.0000 0.19001  0.60918  0.57670  Biso   1.000  C
  C37      1.0000 0.73007  0.14250  0.42590  Biso   1.000  C
  H36      1.0000 0.66968  0.06538  0.46241  Biso   1.000  H
  C38      1.0000 0.26603  0.60620  0.55209  Biso   1.000  C
  H37      1.0000 0.32144  0.65218  0.50630  Biso   1.000  H
  H38      1.0000 0.91700  0.09879  0.37169  Biso   1.000  H
  C39      1.0000 0.80294  0.15340  0.39961  Biso   1.000  C
  H39      1.0000 0.19346  0.57578  0.59689  Biso   1.000  H
  H40      1.0000 0.68747  0.18472  0.43139  Biso   1.000  H
  H41      1.0000 0.31765  0.56970  0.55559  Biso   1.000  H
  H42      1.0000 0.80866  0.20270  0.38821  Biso   1.000  H
  C40      1.0000 0.23173  0.36182  0.51771  Biso   1.000  C
  C41      1.0000 0.26458  0.27940  0.50630  Biso   1.000  C
  H43      1.0000 0.28768  0.39796  0.51440  Biso   1.000  H
  H44      1.0000 0.17841  0.37897  0.50141  Biso   1.000  H
  N8       1.0000 0.19622  0.36831  0.55553  Biso   1.000  N
  N9       1.0000 0.18207  0.22259  0.49851  Biso   1.000  N
  H45      1.0000 0.30592  0.28399  0.48470  Biso   1.000  H
  H46      1.0000 0.30593  0.25719  0.52561  Biso   1.000  H
  C42      1.0000 0.24997  0.39850  0.58469  Biso   1.000  C
  C43      1.0000 0.10412  0.35342  0.56680  Biso   1.000  C
  C44      1.0000 0.13706  0.24629  0.46260  Biso   1.000  C
  C45      1.0000 0.22797  0.14232  0.49320  Biso   1.000  C
  C46      1.0000 0.34894  0.42500  0.58729  Biso   1.000  C
  C47      1.0000 0.18776  0.40058  0.61439  Biso   1.000  C
  H47      1.0000 0.05365  0.33311  0.55201  Biso   1.000  H
  N10      1.0000 0.09235  0.37081  0.60200  Biso   1.000  N
  C48      1.0000 0.04472  0.19871  0.45089  Biso   1.000  C
  H48      1.0000 0.18785  0.24081  0.44381  Biso   1.000  H
  H49      1.0000 0.11886  0.30221  0.46380  Biso   1.000  H
  C49      1.0000 0.27492  0.10481  0.52701  Biso   1.000  C
  H50      1.0000 0.27906  0.14661  0.47450  Biso   1.000  H
  H51      1.0000 0.17662  0.10647  0.48410  Biso   1.000  H
  C50      1.0000 0.37806  0.45442  0.62131  Biso   1.000  C
  H52      1.0000 0.39261  0.42309  0.56751  Biso   1.000  H
  C51      1.0000 0.21493  0.43101  0.64811  Biso   1.000  C
  C52      1.0000 0.00246  0.36098  0.62361  Biso   1.000  C
  H53      1.0000 0.03623  0.20282  0.42461  Biso   1.000  H
  H54      1.0000 0.05449  0.14298  0.45699  Biso   1.000  H
  N11      1.0000 0.95265  0.22920  0.46966  Biso   1.000  N
  H55      1.0000 0.32306  0.06521  0.51891  Biso   1.000  H
  H56      1.0000 0.31198  0.14578  0.53989  Biso   1.000  H
  N12      1.0000 0.20655  0.06681  0.55291  Biso   1.000  N
  C53      1.0000 0.31375  0.45739  0.65041  Biso   1.000  C
  H57      1.0000 0.44332  0.47258  0.62429  Biso   1.000  H
  H58      1.0000 0.17081  0.43357  0.66770  Biso   1.000  H
  C54      1.0000 0.95238  0.28369  0.61261  Biso   1.000  C
  H59      1.0000 0.01941  0.35967  0.64940  Biso   1.000  H
  H60      1.0000 0.95727  0.40529  0.61940  Biso   1.000  H
  C55      1.0000 0.88736  0.28941  0.45740  Biso   1.000  C
  C56      1.0000 0.91276  0.19770  0.49911  Biso   1.000  C
  C57      1.0000 0.13171  0.10099  0.57091  Biso   1.000  C
  C58      1.0000 0.21581  0.98970  0.56590  Biso   1.000  C
  H61      1.0000 0.33683  0.47782  0.67251  Biso   1.000  H
  C59      1.0000 0.87272  0.28470  0.58671  Biso   1.000  C
  C60      1.0000 0.99168  0.21140  0.62470  Biso   1.000  C
  C61      1.0000 0.89458  0.33978  0.42669  Biso   1.000  C
  C62      1.0000 0.80924  0.29209  0.48169  Biso   1.000  C
  H62      1.0000 0.94008  0.15542  0.51221  Biso   1.000  H
  N13      1.0000 0.82837  0.23462  0.50762  Biso   1.000  N
  H63      1.0000 0.11034  0.15310  0.56740  Biso   1.000  H
  N14      1.0000 0.09194  0.05008  0.59437  Biso   1.000  N
  C63      1.0000 0.28185  0.92789  0.55570  Biso   1.000  C
  C64      1.0000 0.14362  0.97880  0.59199  Biso   1.000  C
  C65      1.0000 0.83536  0.21312  0.57320  Biso   1.000  C
  C66      1.0000 0.83094  0.36402  0.57241  Biso   1.000  C
  C67      1.0000 0.95372  0.13952  0.61029  Biso   1.000  C
  C68      1.0000 0.07741  0.21110  0.65279  Biso   1.000  C
  H64      1.0000 0.94831  0.33978  0.41050  Biso   1.000  H
  C69      1.0000 0.80984  0.39082  0.42330  Biso   1.000  C
  C70      1.0000 0.73109  0.34550  0.47709  Biso   1.000  C
  C71      1.0000 0.76677  0.21509  0.54049  Biso   1.000  C
  C72      1.0000 0.00372  0.06199  0.61970  Biso   1.000  C
  C73      1.0000 0.26986  0.85750  0.57411  Biso   1.000  C
  H65      1.0000 0.33025  0.93456  0.53759  Biso   1.000  H
  C74      1.0000 0.13156  0.90788  0.61040  Biso   1.000  C
  C75      1.0000 0.87167  0.14030  0.58619  Biso   1.000  C
  H66      1.0000 0.86268  0.40737  0.58499  Biso   1.000  H
  H67      1.0000 0.75994  0.36599  0.57659  Biso   1.000  H
  H68      1.0000 0.84395  0.36837  0.54670  Biso   1.000  H
  H69      1.0000 0.13902  0.19758  0.64081  Biso   1.000  H
  H70      1.0000 0.06355  0.17251  0.67150  Biso   1.000  H
  H71      1.0000 0.08344  0.26291  0.66370  Biso   1.000  H
  H72      1.0000 0.80647  0.42416  0.40311  Biso   1.000  H
  C76      1.0000 0.73383  0.39380  0.44791  Biso   1.000  C
  H73      1.0000 0.67849  0.34782  0.49370  Biso   1.000  H
  H74      1.0000 0.73454  0.16382  0.53729  Biso   1.000  H
  H75      1.0000 0.71517  0.25511  0.54391  Biso   1.000  H
  H76      1.0000 0.02651  0.06288  0.64491  Biso   1.000  H
  H77      1.0000 0.95666  0.01840  0.61691  Biso   1.000  H
  C77      1.0000 0.19692  0.84660  0.60039  Biso   1.000  C
  H78      1.0000 0.31246  0.81528  0.56861  Biso   1.000  H
  H79      1.0000 0.08293  0.90121  0.62831  Biso   1.000  H
  C78      1.0000 0.82443  0.06199  0.57460  Biso   1.000  C
  H80      1.0000 0.68227  0.43030  0.44441  Biso   1.000  H
  H81      1.0000 0.19127  0.79730  0.61179  Biso   1.000  H
  H82      1.0000 0.87625  0.02418  0.56910  Biso   1.000  H
  H83      1.0000 0.78367  0.07033  0.55329  Biso   1.000  H
  H84      1.0000 0.78375  0.04180  0.59421  Biso   1.000  H
  C79      1.0000 0.07752  0.28887  0.15280  Biso   1.000  C
  H85      1.0000 0.13905  0.30239  0.14080  Biso   1.000  H
  H86      1.0000 0.06358  0.32752  0.17151  Biso   1.000  H
  H87      1.0000 0.08348  0.23712  0.16369  Biso   1.000  H
  C80      1.0000 0.99171  0.28857  0.12469  Biso   1.000  C
  C81      1.0000 0.95241  0.21628  0.11260  Biso   1.000  C
  C82      1.0000 0.95383  0.36051  0.11030  Biso   1.000  C
  C83      1.0000 0.00250  0.13899  0.12360  Biso   1.000  C
  C84      1.0000 0.87283  0.21527  0.08670  Biso   1.000  C
  C85      1.0000 0.00375  0.43798  0.11971  Biso   1.000  C
  C86      1.0000 0.87171  0.35967  0.08621  Biso   1.000  C
  H88      1.0000 0.01945  0.14030  0.14941  Biso   1.000  H
  N15      1.0000 0.09238  0.12922  0.10199  Biso   1.000  N
  H89      1.0000 0.95731  0.09468  0.11941  Biso   1.000  H
  C87      1.0000 0.83540  0.28691  0.07319  Biso   1.000  C
  C88      1.0000 0.83098  0.13601  0.07240  Biso   1.000  C
  H90      1.0000 0.02655  0.43709  0.14490  Biso   1.000  H
  N16      1.0000 0.09198  0.44989  0.09439  Biso   1.000  N
  H91      1.0000 0.95670  0.48157  0.11689  Biso   1.000  H
  C89      1.0000 0.82454  0.43798  0.07461  Biso   1.000  C
  C90      1.0000 0.18779  0.09939  0.11441  Biso   1.000  C
  C91      1.0000 0.10416  0.14661  0.06679  Biso   1.000  C
  C92      1.0000 0.76680  0.28488  0.04051  Biso   1.000  C
  H92      1.0000 0.86271  0.09260  0.08500  Biso   1.000  H
  H93      1.0000 0.75998  0.13398  0.07661  Biso   1.000  H
  H94      1.0000 0.84399  0.13160  0.04669  Biso   1.000  H
  C93      1.0000 0.14366  0.52117  0.09201  Biso   1.000  C
  C94      1.0000 0.13182  0.39898  0.07089  Biso   1.000  C
  H95      1.0000 0.87628  0.47579  0.06911  Biso   1.000  H
  H96      1.0000 0.78371  0.42970  0.05331  Biso   1.000  H
  H97      1.0000 0.78379  0.45817  0.09419  Biso   1.000  H
  C95      1.0000 0.21496  0.06902  0.14810  Biso   1.000  C
  C96      1.0000 0.25001  0.10147  0.08470  Biso   1.000  C
  H98      1.0000 0.05369  0.16691  0.05199  Biso   1.000  H
  N17      1.0000 0.19633  0.13172  0.05552  Biso   1.000  N
  H99      1.0000 0.73458  0.33621  0.03731  Biso   1.000  H
  H100     1.0000 0.71520  0.24492  0.04390  Biso   1.000  H
  N18      1.0000 0.82841  0.26541  0.00760  Biso   1.000  N
  C97      1.0000 0.13159  0.59209  0.11041  Biso   1.000  C
  C98      1.0000 0.21592  0.51027  0.06591  Biso   1.000  C
  H101     1.0000 0.11038  0.34687  0.06739  Biso   1.000  H
  N19      1.0000 0.20658  0.43322  0.05292  Biso   1.000  N
  H102     1.0000 0.17092  0.06640  0.16771  Biso   1.000  H
  C99      1.0000 0.31378  0.04258  0.15040  Biso   1.000  C
  C100     1.0000 0.34897  0.07497  0.08730  Biso   1.000  C
  C101     1.0000 0.23177  0.13821  0.01770  Biso   1.000  C
  C102     1.0000 0.80920  0.20788  0.98170  Biso   1.000  C
  C103     1.0000 0.91272  0.30227  0.99910  Biso   1.000  C
  H103     1.0000 0.08297  0.59876  0.12830  Biso   1.000  H
  C104     1.0000 0.19703  0.65337  0.10040  Biso   1.000  C
  C105     1.0000 0.28188  0.57208  0.05571  Biso   1.000  C
  C106     1.0000 0.27503  0.39516  0.02699  Biso   1.000  C
  H104     1.0000 0.33686  0.02221  0.17250  Biso   1.000  H
  C107     1.0000 0.37810  0.04561  0.12130  Biso   1.000  C
  H105     1.0000 0.39272  0.07688  0.06750  Biso   1.000  H
  H106     1.0000 0.28772  0.10201  0.01441  Biso   1.000  H
  H107     1.0000 0.17852  0.12100  0.00139  Biso   1.000  H
  C108     1.0000 0.26461  0.22057  0.00629  Biso   1.000  C
  C109     1.0000 0.73098  0.15447  0.97711  Biso   1.000  C
  C110     1.0000 0.88732  0.21062  0.95739  Biso   1.000  C
  N20      1.0000 0.95261  0.27077  0.96967  Biso   1.000  N
  H108     1.0000 0.94012  0.34461  0.01220  Biso   1.000  H
  H109     1.0000 0.19130  0.70267  0.11181  Biso   1.000  H
  C111     1.0000 0.26989  0.64247  0.07409  Biso   1.000  C
  H110     1.0000 0.33028  0.56541  0.03761  Biso   1.000  H
  H111     1.0000 0.32309  0.43476  0.01890  Biso   1.000  H
  H112     1.0000 0.31201  0.35420  0.03990  Biso   1.000  H
  C112     1.0000 0.22786  0.35771  0.99319  Biso   1.000  C
  H113     1.0000 0.44343  0.02739  0.12431  Biso   1.000  H
  H114     1.0000 0.30604  0.24278  0.02560  Biso   1.000  H
  H115     1.0000 0.30588  0.21598  0.98471  Biso   1.000  H
  N21      1.0000 0.18196  0.27738  0.99852  Biso   1.000  N
  C113     1.0000 0.73379  0.10618  0.94790  Biso   1.000  C
  H116     1.0000 0.67838  0.15221  0.99371  Biso   1.000  H
  C114     1.0000 0.89454  0.16019  0.92670  Biso   1.000  C
  C115     1.0000 0.04468  0.30132  0.95091  Biso   1.000  C
  H117     1.0000 0.31250  0.68469  0.06859  Biso   1.000  H
  H118     1.0000 0.27902  0.35342  0.97451  Biso   1.000  H
  H119     1.0000 0.17658  0.39350  0.98411  Biso   1.000  H
  C116     1.0000 0.13702  0.25368  0.96261  Biso   1.000  C
  C117     1.0000 0.80980  0.10921  0.92331  Biso   1.000  C
  H120     1.0000 0.68224  0.06967  0.94440  Biso   1.000  H
  H121     1.0000 0.94819  0.16019  0.91051  Biso   1.000  H
  H122     1.0000 0.03619  0.29721  0.92460  Biso   1.000  H
  H123     1.0000 0.05437  0.35699  0.95701  Biso   1.000  H
  H124     1.0000 0.18781  0.25922  0.94380  Biso   1.000  H
  H125     1.0000 0.11882  0.19782  0.96379  Biso   1.000  H
  H126     1.0000 0.80643  0.07581  0.90310  Biso   1.000  H
  C118     1.0000 0.92241  0.71107  0.84720  Biso   1.000  C
  H127     1.0000 0.86080  0.69761  0.85920  Biso   1.000  H
  H128     1.0000 0.93635  0.67248  0.82849  Biso   1.000  H
  H129     1.0000 0.91645  0.76288  0.83631  Biso   1.000  H
  C119     1.0000 0.00822  0.71137  0.87531  Biso   1.000  C
  C120     1.0000 0.04752  0.78366  0.88740  Biso   1.000  C
  C121     1.0000 0.04610  0.63949  0.88970  Biso   1.000  C
  C122     1.0000 0.99743  0.86101  0.87641  Biso   1.000  C
  C123     1.0000 0.12710  0.78467  0.91330  Biso   1.000  C
  C124     1.0000 0.99610  0.56196  0.88029  Biso   1.000  C
  C125     1.0000 0.12822  0.64027  0.91379  Biso   1.000  C
  H130     1.0000 0.98040  0.85970  0.85061  Biso   1.000  H
  N22      1.0000 0.90755  0.87078  0.89801  Biso   1.000  N
  H131     1.0000 0.04262  0.90526  0.88059  Biso   1.000  H
  C126     1.0000 0.16453  0.71309  0.92681  Biso   1.000  C
  C127     1.0000 0.16888  0.86399  0.92761  Biso   1.000  C
  H132     1.0000 0.97331  0.56291  0.85510  Biso   1.000  H
  N23      1.0000 0.90795  0.55011  0.90562  Biso   1.000  N
  H133     1.0000 0.04323  0.51837  0.88311  Biso   1.000  H
  C128     1.0000 0.17539  0.56196  0.92539  Biso   1.000  C
  C129     1.0000 0.81214  0.90061  0.88560  Biso   1.000  C
  C130     1.0000 0.89570  0.85339  0.93321  Biso   1.000  C
  C131     1.0000 0.23312  0.71506  0.95950  Biso   1.000  C
  H134     1.0000 0.13722  0.90740  0.91500  Biso   1.000  H
  H135     1.0000 0.23988  0.86596  0.92339  Biso   1.000  H
  H136     1.0000 0.15587  0.86840  0.95331  Biso   1.000  H
  C132     1.0000 0.85620  0.47877  0.90800  Biso   1.000  C
  C133     1.0000 0.86811  0.60096  0.92911  Biso   1.000  C
  H137     1.0000 0.12357  0.52421  0.93091  Biso   1.000  H
  H138     1.0000 0.21622  0.57030  0.94670  Biso   1.000  H
  H139     1.0000 0.21606  0.54177  0.90581  Biso   1.000  H
  C134     1.0000 0.78489  0.93098  0.85190  Biso   1.000  C
  C135     1.0000 0.74992  0.89847  0.91530  Biso   1.000  C
  H140     1.0000 0.94624  0.83309  0.94801  Biso   1.000  H
  N24      1.0000 0.80360  0.86828  0.94448  Biso   1.000  N
  H141     1.0000 0.26527  0.66379  0.96270  Biso   1.000  H
  H142     1.0000 0.28473  0.75508  0.95610  Biso   1.000  H
  N25      1.0000 0.17152  0.73459  0.99240  Biso   1.000  N
  C136     1.0000 0.86834  0.40791  0.88962  Biso   1.000  C
  C137     1.0000 0.78401  0.48967  0.93411  Biso   1.000  C
  H143     1.0000 0.88948  0.65307  0.93261  Biso   1.000  H
  N26      1.0000 0.79334  0.56678  0.94708  Biso   1.000  N
  H144     1.0000 0.82901  0.93360  0.83229  Biso   1.000  H
  C138     1.0000 0.68615  0.95736  0.84960  Biso   1.000  C
  C139     1.0000 0.65088  0.92497  0.91270  Biso   1.000  C
  C140     1.0000 0.76808  0.86179  0.98231  Biso   1.000  C
  C141     1.0000 0.19072  0.79206  0.01830  Biso   1.000  C
  C142     1.0000 0.08720  0.69767  0.00090  Biso   1.000  C
  H145     1.0000 0.91689  0.40118  0.87170  Biso   1.000  H
  C143     1.0000 0.80290  0.34657  0.89960  Biso   1.000  C
  C144     1.0000 0.71797  0.42792  0.94429  Biso   1.000  C
  C145     1.0000 0.72490  0.60478  0.97301  Biso   1.000  C
  H146     1.0000 0.66299  0.97779  0.82750  Biso   1.000  H
  C146     1.0000 0.62183  0.95439  0.87870  Biso   1.000  C
  H147     1.0000 0.60721  0.92306  0.93250  Biso   1.000  H
  H148     1.0000 0.71221  0.89799  0.98561  Biso   1.000  H
  H149     1.0000 0.82141  0.87900  0.99861  Biso   1.000  H
  C147     1.0000 0.73532  0.77937  0.99371  Biso   1.000  C
  C148     1.0000 0.26888  0.84547  0.02289  Biso   1.000  C
  C149     1.0000 0.11261  0.78938  0.04261  Biso   1.000  C
  H150     1.0000 0.05981  0.65539  0.98780  Biso   1.000  H
  N27      1.0000 0.04731  0.72917  0.03033  Biso   1.000  N
  H151     1.0000 0.80863  0.29727  0.88819  Biso   1.000  H
  C150     1.0000 0.73004  0.35747  0.92591  Biso   1.000  C
  H152     1.0000 0.66957  0.43459  0.96239  Biso   1.000  H
  H153     1.0000 0.67684  0.56518  0.98110  Biso   1.000  H
  H154     1.0000 0.68792  0.64580  0.96010  Biso   1.000  H
  C151     1.0000 0.77200  0.64229  0.00681  Biso   1.000  C
  H155     1.0000 0.55650  0.97261  0.87569  Biso   1.000  H
  H156     1.0000 0.69389  0.75716  0.97440  Biso   1.000  H
  H157     1.0000 0.69405  0.78396  0.01529  Biso   1.000  H
  N28      1.0000 0.81790  0.72256  0.00148  Biso   1.000  N
  C152     1.0000 0.26607  0.89377  0.05210  Biso   1.000  C
  H158     1.0000 0.32148  0.84779  0.00629  Biso   1.000  H
  C153     1.0000 0.10539  0.83981  0.07330  Biso   1.000  C
  C154     1.0000 0.95524  0.69868  0.04909  Biso   1.000  C
  H159     1.0000 0.68743  0.31531  0.93141  Biso   1.000  H
  H160     1.0000 0.72090  0.64658  0.02549  Biso   1.000  H
  H161     1.0000 0.82335  0.60650  0.01589  Biso   1.000  H
  C155     1.0000 0.86291  0.74626  0.03739  Biso   1.000  C
  C156     1.0000 0.19012  0.89079  0.07669  Biso   1.000  C
  H162     1.0000 0.31769  0.93027  0.05560  Biso   1.000  H
  H163     1.0000 0.05166  0.83981  0.08949  Biso   1.000  H
  H164     1.0000 0.96374  0.70279  0.07541  Biso   1.000  H
  H165     1.0000 0.94548  0.64301  0.04300  Biso   1.000  H
  H166     1.0000 0.81211  0.74078  0.05621  Biso   1.000  H
  H167     1.0000 0.88111  0.80218  0.03621  Biso   1.000  H
  H168     1.0000 0.19350  0.92419  0.09690  Biso   1.000  H
