data_image0
_cell_length_a       16.887
_cell_length_b       14.695
_cell_length_c       20.613
_cell_angle_alpha    90
_cell_angle_beta     99.06
_cell_angle_gamma    90

_symmetry_space_group_name_H-M    "P 1"
_symmetry_int_tables_number       1

loop_
  _symmetry_equiv_pos_as_xyz
  'x, y, z'

loop_
  _atom_site_label
  _atom_site_occupancy
  _atom_site_fract_x
  _atom_site_fract_y
  _atom_site_fract_z
  _atom_site_thermal_displace_type
  _atom_site_B_iso_or_equiv
  _atom_site_type_symbol
  C1       1.0000 0.60200  0.46669  0.63589  Biso   1.000  C
  C2       1.0000 0.57312  0.38877  0.66831  Biso   1.000  C
  H1       1.0000 0.63885  0.50071  0.66708  Biso   1.000  H
  H2       1.0000 0.55750  0.50480  0.61850  Biso   1.000  H
  H3       1.0000 0.62884  0.44627  0.60081  Biso   1.000  H
  N1       1.0000 0.51654  0.33202  0.62660  Biso   1.000  N
  C3       1.0000 0.52046  0.42511  0.72028  Biso   1.000  C
  N2       1.0000 0.63522  0.33658  0.71012  Biso   1.000  N
  C4       1.0000 0.53372  0.28670  0.56932  Biso   1.000  C
  C5       1.0000 0.44155  0.33549  0.64217  Biso   1.000  C
  N3       1.0000 0.44375  0.38557  0.69862  Biso   1.000  N
  H4       1.0000 0.51764  0.49166  0.72009  Biso   1.000  H
  N4       1.0000 0.56163  0.39129  0.78258  Biso   1.000  N
  C6       1.0000 0.69852  0.28860  0.68698  Biso   1.000  C
  C7       1.0000 0.62752  0.34168  0.77540  Biso   1.000  C
  N5       1.0000 0.56240  0.19401  0.58298  Biso   1.000  N
  H5       1.0000 0.57400  0.32099  0.55090  Biso   1.000  H
  H6       1.0000 0.48553  0.28499  0.53670  Biso   1.000  H
  O1       1.0000 0.38190  0.29929  0.61191  Biso   1.000  O
  C8       1.0000 0.37084  0.40381  0.72628  Biso   1.000  C
  C9       1.0000 0.53974  0.41007  0.84619  Biso   1.000  C
  N6       1.0000 0.67841  0.19701  0.66801  Biso   1.000  N
  H7       1.0000 0.74493  0.28799  0.72141  Biso   1.000  H
  H8       1.0000 0.71320  0.32086  0.64969  Biso   1.000  H
  O2       1.0000 0.67434  0.30677  0.82089  Biso   1.000  O
  C10      1.0000 0.51393  0.11909  0.57418  Biso   1.000  C
  C11      1.0000 0.64574  0.17162  0.60189  Biso   1.000  C
  H9       1.0000 0.37182  0.46628  0.74151  Biso   1.000  H
  H10      1.0000 0.32465  0.39687  0.69209  Biso   1.000  H
  N7       1.0000 0.36197  0.34386  0.78022  Biso   1.000  N
  H11      1.0000 0.58732  0.40640  0.87931  Biso   1.000  H
  H12      1.0000 0.51935  0.47179  0.84639  Biso   1.000  H
  N8       1.0000 0.47935  0.34787  0.86408  Biso   1.000  N
  C12      1.0000 0.70221  0.12412  0.70648  Biso   1.000  C
  O3       1.0000 0.44165  0.11888  0.55429  Biso   1.000  O
  N9       1.0000 0.56001  0.04403  0.58750  Biso   1.000  N
  C13      1.0000 0.64640  0.06472  0.60469  Biso   1.000  C
  H13      1.0000 0.67844  0.19469  0.57021  Biso   1.000  H
  C14      1.0000 0.31513  0.26689  0.77010  Biso   1.000  C
  C15      1.0000 0.39443  0.35931  0.84870  Biso   1.000  C
  C16      1.0000 0.50067  0.27547  0.90510  Biso   1.000  C
  N10      1.0000 0.67893  0.04587  0.67258  Biso   1.000  N
  O4       1.0000 0.74006  0.12678  0.76229  Biso   1.000  O
  C17      1.0000 0.52720  0.95175  0.58470  Biso   1.000  C
  C18      1.0000 0.69640  0.02300  0.55611  Biso   1.000  C
  N11      1.0000 0.31652  0.22457  0.82969  Biso   1.000  N
  O5       1.0000 0.27756  0.24069  0.71852  Biso   1.000  O
  C19      1.0000 0.36142  0.27370  0.88461  Biso   1.000  C
  H14      1.0000 0.37665  0.41728  0.86491  Biso   1.000  H
  N12      1.0000 0.43306  0.23192  0.91532  Biso   1.000  N
  O6       1.0000 0.57005  0.25390  0.92902  Biso   1.000  O
  C20      1.0000 0.69655  0.95631  0.70201  Biso   1.000  C
  H15      1.0000 0.47772  0.95100  0.55370  Biso   1.000  H
  H16      1.0000 0.56473  0.91133  0.56799  Biso   1.000  H
  N13      1.0000 0.51135  0.91657  0.64640  Biso   1.000  N
  H17      1.0000 0.67193  0.03702  0.51199  Biso   1.000  H
  H18      1.0000 0.74963  0.04777  0.56411  Biso   1.000  H
  H19      1.0000 0.69893  0.95822  0.56190  Biso   1.000  H
  C21      1.0000 0.26835  0.14277  0.83632  Biso   1.000  C
  C22      1.0000 0.30747  0.32052  0.93079  Biso   1.000  C
  C23      1.0000 0.43495  0.15223  0.95599  Biso   1.000  C
  H20      1.0000 0.71150  0.91596  0.66890  Biso   1.000  H
  H21      1.0000 0.74240  0.96182  0.73659  Biso   1.000  H
  N14      1.0000 0.63206  0.91575  0.72908  Biso   1.000  N
  C24      1.0000 0.43474  0.91603  0.66192  Biso   1.000  C
  C25      1.0000 0.56631  0.86281  0.69140  Biso   1.000  C
  N15      1.0000 0.31238  0.06159  0.83770  Biso   1.000  N
  H22      1.0000 0.24546  0.14740  0.87651  Biso   1.000  H
  H23      1.0000 0.22446  0.14052  0.79992  Biso   1.000  H
  H24      1.0000 0.34096  0.35277  0.96518  Biso   1.000  H
  H25      1.0000 0.27735  0.27479  0.94970  Biso   1.000  H
  H26      1.0000 0.27126  0.36230  0.90569  Biso   1.000  H
  N16      1.0000 0.43216  0.06989  0.92111  Biso   1.000  N
  H27      1.0000 0.48363  0.15339  0.98802  Biso   1.000  H
  H28      1.0000 0.38987  0.15427  0.97992  Biso   1.000  H
  C26      1.0000 0.62494  0.92501  0.79279  Biso   1.000  C
  N17      1.0000 0.43722  0.87492  0.72009  Biso   1.000  N
  O7       1.0000 0.37602  0.94726  0.62719  Biso   1.000  O
  C27      1.0000 0.51504  0.83886  0.74632  Biso   1.000  C
  C28      1.0000 0.59855  0.77863  0.65952  Biso   1.000  C
  C29      1.0000 0.31235  0.00817  0.78209  Biso   1.000  C
  C30      1.0000 0.35865  0.02042  0.89542  Biso   1.000  C
  C31      1.0000 0.49897  0.01899  0.91689  Biso   1.000  C
  N18      1.0000 0.55532  0.88445  0.80429  Biso   1.000  N
  O8       1.0000 0.67505  0.96135  0.83509  Biso   1.000  O
  C32      1.0000 0.36525  0.86397  0.75109  Biso   1.000  C
  H29      1.0000 0.51275  0.77292  0.75320  Biso   1.000  H
  H30      1.0000 0.55454  0.74576  0.63510  Biso   1.000  H
  H31      1.0000 0.62660  0.74012  0.69302  Biso   1.000  H
  H32      1.0000 0.63440  0.79775  0.63038  Biso   1.000  H
  N19      1.0000 0.35827  0.93311  0.79889  Biso   1.000  N
  O9       1.0000 0.27353  0.02531  0.72770  Biso   1.000  O
  C33      1.0000 0.38787  0.92964  0.87061  Biso   1.000  C
  H33      1.0000 0.32558  0.01048  0.92981  Biso   1.000  H
  N20      1.0000 0.47476  0.93787  0.88520  Biso   1.000  N
  O10      1.0000 0.56786  0.03797  0.93919  Biso   1.000  O
  C34      1.0000 0.53184  0.87363  0.86820  Biso   1.000  C
  H34      1.0000 0.31815  0.86567  0.71739  Biso   1.000  H
  H35      1.0000 0.36682  0.80476  0.77221  Biso   1.000  H
  C35      1.0000 0.35655  0.84886  0.90392  Biso   1.000  C
  H36      1.0000 0.50976  0.81307  0.87071  Biso   1.000  H
  H37      1.0000 0.57965  0.87724  0.90102  Biso   1.000  H
  H38      1.0000 0.37754  0.85015  0.95000  Biso   1.000  H
  H39      1.0000 0.37317  0.79374  0.88500  Biso   1.000  H
  H40      1.0000 0.29904  0.85124  0.89802  Biso   1.000  H
  C36      1.0000 0.39799  0.53331  0.36412  Biso   1.000  C
  C37      1.0000 0.42694  0.61116  0.33170  Biso   1.000  C
  H41      1.0000 0.36119  0.49929  0.33288  Biso   1.000  H
  H42      1.0000 0.44249  0.49520  0.38151  Biso   1.000  H
  H43      1.0000 0.37122  0.55366  0.39920  Biso   1.000  H
  C38      1.0000 0.47960  0.57489  0.27972  Biso   1.000  C
  N21      1.0000 0.48351  0.66798  0.37341  Biso   1.000  N
  N22      1.0000 0.36483  0.66335  0.28989  Biso   1.000  N
  H44      1.0000 0.48242  0.50827  0.27992  Biso   1.000  H
  N23      1.0000 0.55630  0.61436  0.30139  Biso   1.000  N
  N24      1.0000 0.43842  0.60871  0.21738  Biso   1.000  N
  C39      1.0000 0.46633  0.71330  0.43069  Biso   1.000  C
  C40      1.0000 0.55850  0.66444  0.35778  Biso   1.000  C
  C41      1.0000 0.30153  0.71140  0.31298  Biso   1.000  C
  C42      1.0000 0.37248  0.65825  0.22460  Biso   1.000  C
  C43      1.0000 0.62920  0.59619  0.27368  Biso   1.000  C
  C44      1.0000 0.46031  0.58986  0.15381  Biso   1.000  C
  H45      1.0000 0.42599  0.67901  0.44911  Biso   1.000  H
  H46      1.0000 0.51453  0.71501  0.46331  Biso   1.000  H
  N25      1.0000 0.43758  0.80599  0.41698  Biso   1.000  N
  O11      1.0000 0.61809  0.70065  0.38810  Biso   1.000  O
  H47      1.0000 0.25512  0.71194  0.27859  Biso   1.000  H
  H48      1.0000 0.28679  0.67907  0.35032  Biso   1.000  H
  N26      1.0000 0.32159  0.80299  0.33199  Biso   1.000  N
  O12      1.0000 0.32572  0.69316  0.17911  Biso   1.000  O
  H49      1.0000 0.62818  0.53365  0.25850  Biso   1.000  H
  H50      1.0000 0.67540  0.60306  0.30792  Biso   1.000  H
  N27      1.0000 0.63809  0.65607  0.21979  Biso   1.000  N
  H51      1.0000 0.41267  0.59360  0.12070  Biso   1.000  H
  H52      1.0000 0.48070  0.52821  0.15362  Biso   1.000  H
  N28      1.0000 0.52070  0.65206  0.13588  Biso   1.000  N
  C45      1.0000 0.48612  0.88084  0.42582  Biso   1.000  C
  C46      1.0000 0.35431  0.82838  0.39812  Biso   1.000  C
  C47      1.0000 0.29778  0.87588  0.29348  Biso   1.000  C
  C48      1.0000 0.68492  0.73311  0.22991  Biso   1.000  C
  C49      1.0000 0.60562  0.64069  0.15131  Biso   1.000  C
  C50      1.0000 0.49938  0.72446  0.09491  Biso   1.000  C
  N29      1.0000 0.44004  0.95597  0.41251  Biso   1.000  N
  O13      1.0000 0.55840  0.88105  0.44572  Biso   1.000  O
  H53      1.0000 0.32161  0.80524  0.42980  Biso   1.000  H
  C51      1.0000 0.35360  0.93528  0.39532  Biso   1.000  C
  N30      1.0000 0.32111  0.95407  0.32738  Biso   1.000  N
  O14      1.0000 0.26000  0.87315  0.23772  Biso   1.000  O
  N31      1.0000 0.68347  0.77537  0.17032  Biso   1.000  N
  O15      1.0000 0.72249  0.75931  0.28149  Biso   1.000  O
  C52      1.0000 0.63857  0.72630  0.11540  Biso   1.000  C
  H54      1.0000 0.62341  0.58265  0.13510  Biso   1.000  H
  N32      1.0000 0.56700  0.76808  0.08469  Biso   1.000  N
  O16      1.0000 0.43000  0.74610  0.07099  Biso   1.000  O
  C53      1.0000 0.47279  0.04825  0.41531  Biso   1.000  C
  C54      1.0000 0.30360  0.97700  0.44390  Biso   1.000  C
  C55      1.0000 0.30350  0.04362  0.29800  Biso   1.000  C
  C56      1.0000 0.73171  0.85716  0.16369  Biso   1.000  C
  C57      1.0000 0.69258  0.67948  0.06922  Biso   1.000  C
  C58      1.0000 0.56510  0.84777  0.04402  Biso   1.000  C
  H55      1.0000 0.52234  0.04893  0.44631  Biso   1.000  H
  H56      1.0000 0.43532  0.08860  0.43201  Biso   1.000  H
  N33      1.0000 0.48871  0.08343  0.35361  Biso   1.000  N
  H57      1.0000 0.32813  0.96298  0.48802  Biso   1.000  H
  H58      1.0000 0.25042  0.95216  0.43589  Biso   1.000  H
  H59      1.0000 0.30112  0.04171  0.43811  Biso   1.000  H
  H60      1.0000 0.28849  0.08404  0.33111  Biso   1.000  H
  H61      1.0000 0.25760  0.03811  0.26341  Biso   1.000  H
  N34      1.0000 0.36799  0.08425  0.27088  Biso   1.000  N
  H62      1.0000 0.75460  0.85260  0.12350  Biso   1.000  H
  H63      1.0000 0.77560  0.85948  0.20009  Biso   1.000  H
  N35      1.0000 0.68768  0.93835  0.16231  Biso   1.000  N
  H64      1.0000 0.65908  0.64716  0.03478  Biso   1.000  H
  H65      1.0000 0.72270  0.72514  0.05030  Biso   1.000  H
  H66      1.0000 0.72879  0.63770  0.09432  Biso   1.000  H
  H67      1.0000 0.51637  0.84655  0.01199  Biso   1.000  H
  H68      1.0000 0.61019  0.84566  0.02009  Biso   1.000  H
  N36      1.0000 0.56790  0.93004  0.07890  Biso   1.000  N
  C59      1.0000 0.56531  0.08391  0.33808  Biso   1.000  C
  C60      1.0000 0.43369  0.13712  0.30861  Biso   1.000  C
  C61      1.0000 0.37512  0.07492  0.20721  Biso   1.000  C
  C62      1.0000 0.68771  0.99177  0.21792  Biso   1.000  C
  C63      1.0000 0.64141  0.97958  0.10459  Biso   1.000  C
  C64      1.0000 0.50108  0.98095  0.08312  Biso   1.000  C
  N37      1.0000 0.56283  0.12501  0.27992  Biso   1.000  N
  O17      1.0000 0.62404  0.05274  0.37282  Biso   1.000  O
  C65      1.0000 0.48501  0.16114  0.25369  Biso   1.000  C
  C66      1.0000 0.40150  0.22130  0.34049  Biso   1.000  C
  N38      1.0000 0.44468  0.11555  0.19572  Biso   1.000  N
  O18      1.0000 0.32500  0.03865  0.16492  Biso   1.000  O
  O19      1.0000 0.72653  0.97469  0.27231  Biso   1.000  O
  N39      1.0000 0.64178  0.06683  0.20112  Biso   1.000  N
  H69      1.0000 0.67448  0.98945  0.07020  Biso   1.000  H
  C67      1.0000 0.61219  0.07030  0.12940  Biso   1.000  C
  O20      1.0000 0.43219  0.96196  0.06082  Biso   1.000  O
  N40      1.0000 0.52529  0.06213  0.11481  Biso   1.000  N
  C68      1.0000 0.63481  0.13603  0.24892  Biso   1.000  C
  H70      1.0000 0.48730  0.22702  0.24681  Biso   1.000  H
  H71      1.0000 0.44552  0.25424  0.36491  Biso   1.000  H
  H72      1.0000 0.37339  0.25982  0.30699  Biso   1.000  H
  H73      1.0000 0.36559  0.20225  0.36962  Biso   1.000  H
  C69      1.0000 0.46822  0.12630  0.13180  Biso   1.000  C
  C70      1.0000 0.64351  0.15114  0.09609  Biso   1.000  C
  H74      1.0000 0.68191  0.13433  0.28262  Biso   1.000  H
  H75      1.0000 0.63317  0.19524  0.22780  Biso   1.000  H
  H76      1.0000 0.49030  0.18693  0.12930  Biso   1.000  H
  H77      1.0000 0.42040  0.12269  0.09899  Biso   1.000  H
  H78      1.0000 0.62251  0.14985  0.05001  Biso   1.000  H
  H79      1.0000 0.62689  0.20619  0.11500  Biso   1.000  H
  H80      1.0000 0.70101  0.14876  0.10199  Biso   1.000  H
  C71      1.0000 0.76832  0.35720  0.33632  Biso   1.000  C
  H81      1.0000 0.74543  0.35257  0.37650  Biso   1.000  H
  H82      1.0000 0.72443  0.35951  0.29991  Biso   1.000  H
  N41      1.0000 0.81229  0.43838  0.33769  Biso   1.000  N
  N42      1.0000 0.81649  0.27540  0.32968  Biso   1.000  N
  C72      1.0000 0.81232  0.49180  0.28208  Biso   1.000  C
  C73      1.0000 0.85862  0.47955  0.39541  Biso   1.000  C
  C74      1.0000 0.81511  0.23307  0.27009  Biso   1.000  C
  C75      1.0000 0.86140  0.22627  0.38461  Biso   1.000  C
  N43      1.0000 0.85818  0.56686  0.29888  Biso   1.000  N
  O21      1.0000 0.77350  0.47465  0.22770  Biso   1.000  O
  C76      1.0000 0.88778  0.57040  0.37061  Biso   1.000  C
  H83      1.0000 0.82549  0.48949  0.42980  Biso   1.000  H
  N44      1.0000 0.93213  0.43008  0.42111  Biso   1.000  N
  N45      1.0000 0.86188  0.15611  0.28021  Biso   1.000  N
  O22      1.0000 0.77748  0.25927  0.21851  Biso   1.000  O
  C77      1.0000 0.89441  0.14073  0.34870  Biso   1.000  C
  C78      1.0000 0.80738  0.17952  0.43079  Biso   1.000  C
  N46      1.0000 0.93303  0.26812  0.41531  Biso   1.000  N
  C79      1.0000 0.86522  0.63607  0.25108  Biso   1.000  C
  C80      1.0000 0.85652  0.65117  0.40391  Biso   1.000  C
  N47      1.0000 0.97467  0.56216  0.38520  Biso   1.000  N
  C81      1.0000 0.99888  0.48098  0.41688  Biso   1.000  C
  C82      1.0000 0.93493  0.34781  0.45599  Biso   1.000  C
  C83      1.0000 0.87083  0.09622  0.22632  Biso   1.000  C
  H84      1.0000 0.87662  0.08268  0.36491  Biso   1.000  H
  N48      1.0000 0.97933  0.15209  0.36412  Biso   1.000  N
  H85      1.0000 0.84089  0.14719  0.46522  Biso   1.000  H
  H86      1.0000 0.77732  0.22518  0.44970  Biso   1.000  H
  H87      1.0000 0.77123  0.13767  0.40568  Biso   1.000  H
  C84      1.0000 0.00064  0.22450  0.40509  Biso   1.000  C
  H88      1.0000 0.81812  0.63437  0.21738  Biso   1.000  H
  H89      1.0000 0.86679  0.69527  0.27221  Biso   1.000  H
  N49      1.0000 0.93719  0.62511  0.22008  Biso   1.000  N
  H90      1.0000 0.87752  0.64988  0.44999  Biso   1.000  H
  H91      1.0000 0.87308  0.70629  0.38500  Biso   1.000  H
  H92      1.0000 0.79901  0.64879  0.39802  Biso   1.000  H
  C85      1.0000 0.03181  0.62640  0.36820  Biso   1.000  C
  O23      1.0000 0.06784  0.46199  0.43919  Biso   1.000  O
  H93      1.0000 0.98360  0.34658  0.48802  Biso   1.000  H
  H94      1.0000 0.88984  0.34570  0.47991  Biso   1.000  H
  H95      1.0000 0.87179  0.03368  0.24150  Biso   1.000  H
  H96      1.0000 0.82457  0.10310  0.19208  Biso   1.000  H
  N50      1.0000 0.94367  0.11439  0.19862  Biso   1.000  N
  C86      1.0000 0.03972  0.08989  0.34619  Biso   1.000  C
  O24      1.0000 0.07003  0.24607  0.42902  Biso   1.000  O
  C87      1.0000 0.93472  0.58401  0.16192  Biso   1.000  C
  C88      1.0000 0.01501  0.66118  0.24632  Biso   1.000  C
  H97      1.0000 0.00973  0.68697  0.37070  Biso   1.000  H
  H98      1.0000 0.07963  0.62280  0.40102  Biso   1.000  H
  N51      1.0000 0.05529  0.61558  0.30429  Biso   1.000  N
  C89      1.0000 0.94147  0.16448  0.14222  Biso   1.000  C
  C90      1.0000 0.02043  0.07492  0.22028  Biso   1.000  C
  H99      1.0000 0.08730  0.09357  0.37930  Biso   1.000  H
  H100     1.0000 0.01932  0.02817  0.34639  Biso   1.000  H
  N52      1.0000 0.06161  0.10868  0.28262  Biso   1.000  N
  O25      1.0000 0.87599  0.55277  0.12719  Biso   1.000  O
  N53      1.0000 0.01132  0.58346  0.14640  Biso   1.000  N
  C91      1.0000 0.06634  0.63716  0.19139  Biso   1.000  C
  H101     1.0000 0.01272  0.72705  0.25320  Biso   1.000  H
  C92      1.0000 0.12491  0.57496  0.29279  Biso   1.000  C
  O26      1.0000 0.88188  0.20068  0.11191  Biso   1.000  O
  N54      1.0000 0.01652  0.16802  0.12660  Biso   1.000  N
  H102     1.0000 0.01761  0.00830  0.22008  Biso   1.000  H
  C93      1.0000 0.07309  0.11119  0.16831  Biso   1.000  C
  C94      1.0000 0.12749  0.15829  0.27540  Biso   1.000  C
  C95      1.0000 0.02718  0.54828  0.08469  Biso   1.000  C
  C96      1.0000 0.09852  0.72140  0.15951  Biso   1.000  C
  N55      1.0000 0.13204  0.58428  0.22912  Biso   1.000  N
  O27      1.0000 0.17503  0.53869  0.33509  Biso   1.000  O
  C97      1.0000 0.03369  0.21327  0.06932  Biso   1.000  C
  C98      1.0000 0.10198  0.03328  0.13588  Biso   1.000  C
  N56      1.0000 0.13519  0.16339  0.21011  Biso   1.000  N
  O28      1.0000 0.17431  0.19319  0.32089  Biso   1.000  O
  H103     1.0000 0.97769  0.54896  0.05369  Biso   1.000  H
  H104     1.0000 0.06471  0.58870  0.06799  Biso   1.000  H
  N57      1.0000 0.05999  0.45601  0.08749  Biso   1.000  N
  H105     1.0000 0.05451  0.75427  0.13510  Biso   1.000  H
  H106     1.0000 0.12664  0.75985  0.19302  Biso   1.000  H
  H107     1.0000 0.13438  0.70228  0.13038  Biso   1.000  H
  C99      1.0000 0.19652  0.54365  0.20201  Biso   1.000  C
  H108     1.0000 0.98550  0.21497  0.03670  Biso   1.000  H
  H109     1.0000 0.07397  0.17897  0.05089  Biso   1.000  H
  N58      1.0000 0.06238  0.30602  0.08302  Biso   1.000  N
  H110     1.0000 0.13882  0.99932  0.16708  Biso   1.000  H
  H111     1.0000 0.05748  0.99524  0.11849  Biso   1.000  H
  H112     1.0000 0.12881  0.05369  0.10081  Biso   1.000  H
  C100     1.0000 0.19850  0.21136  0.18702  Biso   1.000  C
  C101     1.0000 0.01390  0.38088  0.07418  Biso   1.000  C
  C102     1.0000 0.14637  0.43532  0.10469  Biso   1.000  C
  H113     1.0000 0.21148  0.58408  0.16890  Biso   1.000  H
  H114     1.0000 0.24243  0.53821  0.23659  Biso   1.000  H
  N59      1.0000 0.17891  0.45410  0.17258  Biso   1.000  N
  C103     1.0000 0.14572  0.32841  0.10189  Biso   1.000  C
  H115     1.0000 0.24490  0.21198  0.22141  Biso   1.000  H
  H116     1.0000 0.21317  0.17911  0.14969  Biso   1.000  H
  N60      1.0000 0.17838  0.30296  0.16801  Biso   1.000  N
  O29      1.0000 0.94156  0.38108  0.05428  Biso   1.000  O
  C104     1.0000 0.19637  0.47696  0.05610  Biso   1.000  C
  C105     1.0000 0.20218  0.37591  0.20648  Biso   1.000  C
  H117     1.0000 0.17841  0.30527  0.07020  Biso   1.000  H
  H118     1.0000 0.17190  0.46301  0.01199  Biso   1.000  H
  H119     1.0000 0.19891  0.54175  0.06190  Biso   1.000  H
  H120     1.0000 0.24961  0.45219  0.06411  Biso   1.000  H
  O30      1.0000 0.24003  0.37319  0.26228  Biso   1.000  O
  C106     1.0000 0.23173  0.64280  0.66369  Biso   1.000  C
  N61      1.0000 0.18777  0.56155  0.66232  Biso   1.000  N
  H121     1.0000 0.25462  0.64736  0.62351  Biso   1.000  H
  H122     1.0000 0.27562  0.64049  0.70009  Biso   1.000  H
  N62      1.0000 0.18355  0.72460  0.67027  Biso   1.000  N
  C107     1.0000 0.14144  0.52038  0.60459  Biso   1.000  C
  C108     1.0000 0.18773  0.50820  0.71788  Biso   1.000  C
  C109     1.0000 0.18495  0.76686  0.72991  Biso   1.000  C
  C110     1.0000 0.13866  0.77366  0.61540  Biso   1.000  C
  C111     1.0000 0.11222  0.42960  0.62940  Biso   1.000  C
  H123     1.0000 0.17456  0.51051  0.57021  Biso   1.000  H
  N63      1.0000 0.06793  0.56985  0.57890  Biso   1.000  N
  N64      1.0000 0.14186  0.43307  0.70108  Biso   1.000  N
  O31      1.0000 0.22656  0.52528  0.77231  Biso   1.000  O
  N65      1.0000 0.13812  0.84389  0.71979  Biso   1.000  N
  O32      1.0000 0.22252  0.74066  0.78150  Biso   1.000  O
  N66      1.0000 0.06703  0.73188  0.58470  Biso   1.000  N
  C112     1.0000 0.10565  0.85927  0.65131  Biso   1.000  C
  C113     1.0000 0.19261  0.82048  0.56922  Biso   1.000  C
  C114     1.0000 0.14353  0.34876  0.59609  Biso   1.000  C
  N67      1.0000 0.02532  0.43777  0.61481  Biso   1.000  N
  C115     1.0000 0.00116  0.51895  0.58308  Biso   1.000  C
  C116     1.0000 0.06513  0.65219  0.54402  Biso   1.000  C
  C117     1.0000 0.13482  0.36387  0.74888  Biso   1.000  C
  C118     1.0000 0.12923  0.90378  0.77368  Biso   1.000  C
  C119     1.0000 0.99941  0.77550  0.59492  Biso   1.000  C
  N68      1.0000 0.02073  0.84784  0.63589  Biso   1.000  N
  H124     1.0000 0.12344  0.91725  0.63510  Biso   1.000  H
  H125     1.0000 0.15911  0.85274  0.53479  Biso   1.000  H
  H126     1.0000 0.22273  0.77475  0.55031  Biso   1.000  H
  H127     1.0000 0.22881  0.86227  0.59428  Biso   1.000  H
  H128     1.0000 0.12254  0.35012  0.55001  Biso   1.000  H
  H129     1.0000 0.12692  0.29371  0.61501  Biso   1.000  H
  H130     1.0000 0.20104  0.35121  0.60199  Biso   1.000  H
  C120     1.0000 0.96825  0.37360  0.63181  Biso   1.000  C
  O33      1.0000 0.93222  0.53801  0.56082  Biso   1.000  O
  H131     1.0000 0.01645  0.65335  0.51199  Biso   1.000  H
  H132     1.0000 0.11021  0.65430  0.52010  Biso   1.000  H
  H133     1.0000 0.18192  0.36557  0.78258  Biso   1.000  H
  H134     1.0000 0.13326  0.30466  0.72780  Biso   1.000  H
  N69      1.0000 0.06285  0.37489  0.77987  Biso   1.000  N
  H135     1.0000 0.12827  0.96625  0.75850  Biso   1.000  H
  H136     1.0000 0.17542  0.89684  0.80788  Biso   1.000  H
  N70      1.0000 0.05633  0.88554  0.80139  Biso   1.000  N
  O34      1.0000 0.93003  0.75386  0.57099  Biso   1.000  O
  C121     1.0000 0.96034  0.91004  0.65382  Biso   1.000  C
  H137     1.0000 0.99033  0.31296  0.62930  Biso   1.000  H
  H138     1.0000 0.92043  0.37720  0.59899  Biso   1.000  H
  N71      1.0000 0.94471  0.38442  0.69572  Biso   1.000  N
  C122     1.0000 0.06534  0.41599  0.83809  Biso   1.000  C
  C123     1.0000 0.98504  0.33875  0.75369  Biso   1.000  C
  C124     1.0000 0.05852  0.83545  0.85779  Biso   1.000  C
  C125     1.0000 0.97962  0.92508  0.77968  Biso   1.000  C
  H139     1.0000 0.91270  0.90636  0.62071  Biso   1.000  H
  H140     1.0000 0.98073  0.97176  0.65362  Biso   1.000  H
  N72      1.0000 0.93845  0.89126  0.71739  Biso   1.000  N
  C126     1.0000 0.87514  0.42497  0.70722  Biso   1.000  C
  O35      1.0000 0.12407  0.44716  0.87282  Biso   1.000  O
  N73      1.0000 0.98873  0.41647  0.85361  Biso   1.000  N
  C127     1.0000 0.93372  0.36278  0.80861  Biso   1.000  C
  H141     1.0000 0.98733  0.27288  0.74681  Biso   1.000  H
  O36      1.0000 0.11818  0.79925  0.88810  Biso   1.000  O
  N74      1.0000 0.98354  0.83198  0.87341  Biso   1.000  N
  H142     1.0000 0.98244  0.99170  0.77987  Biso   1.000  H
  C128     1.0000 0.92690  0.88874  0.83170  Biso   1.000  C
  C129     1.0000 0.87251  0.84165  0.72461  Biso   1.000  C
  N75      1.0000 0.86802  0.41572  0.77088  Biso   1.000  N
  O37      1.0000 0.82503  0.46131  0.66492  Biso   1.000  O
  C130     1.0000 0.97282  0.45172  0.91532  Biso   1.000  C
  C131     1.0000 0.90153  0.27860  0.84050  Biso   1.000  C
  C132     1.0000 0.96636  0.78666  0.93069  Biso   1.000  C
  N76      1.0000 0.86480  0.83654  0.78990  Biso   1.000  N
  C133     1.0000 0.89801  0.96666  0.86408  Biso   1.000  C
  O38      1.0000 0.82574  0.80681  0.67912  Biso   1.000  O
  C134     1.0000 0.80353  0.45628  0.79800  Biso   1.000  C
  H143     1.0000 0.02236  0.45097  0.94631  Biso   1.000  H
  H144     1.0000 0.93535  0.41130  0.93202  Biso   1.000  H
  N77      1.0000 0.94007  0.54399  0.91251  Biso   1.000  N
  H145     1.0000 0.94555  0.24566  0.86491  Biso   1.000  H
  H146     1.0000 0.87342  0.24008  0.80699  Biso   1.000  H
  H147     1.0000 0.86561  0.29772  0.86958  Biso   1.000  H
  N78      1.0000 0.93761  0.69398  0.91699  Biso   1.000  N
  H148     1.0000 0.01456  0.78496  0.96331  Biso   1.000  H
  H149     1.0000 0.92602  0.82096  0.94911  Biso   1.000  H
  C135     1.0000 0.80156  0.78857  0.81299  Biso   1.000  C
  H150     1.0000 0.87125  0.94624  0.89920  Biso   1.000  H
  H151     1.0000 0.86122  0.00061  0.83288  Biso   1.000  H
  H152     1.0000 0.94252  0.00476  0.88152  Biso   1.000  H
  H153     1.0000 0.78852  0.41586  0.83111  Biso   1.000  H
  H154     1.0000 0.75762  0.46179  0.76342  Biso   1.000  H
  N79      1.0000 0.82114  0.54590  0.82738  Biso   1.000  N
  C136     1.0000 0.98614  0.61905  0.92578  Biso   1.000  C
  C137     1.0000 0.85362  0.56468  0.89532  Biso   1.000  C
  C138     1.0000 0.85434  0.67159  0.89812  Biso   1.000  C
  N80      1.0000 0.82161  0.69697  0.83200  Biso   1.000  N
  H155     1.0000 0.75515  0.78796  0.77860  Biso   1.000  H
  H156     1.0000 0.78682  0.82089  0.85032  Biso   1.000  H
  C139     1.0000 0.79781  0.62409  0.79348  Biso   1.000  C
  O39      1.0000 0.05848  0.61885  0.94567  Biso   1.000  O
  C140     1.0000 0.80363  0.52297  0.94391  Biso   1.000  C
  H157     1.0000 0.82164  0.69466  0.92981  Biso   1.000  H
  O40      1.0000 0.76002  0.62681  0.73768  Biso   1.000  O
  H158     1.0000 0.82815  0.53699  0.98802  Biso   1.000  H
  H159     1.0000 0.80115  0.45818  0.93811  Biso   1.000  H
  H160     1.0000 0.75045  0.54781  0.93590  Biso   1.000  H
  Ne1      1.0000 0.50170  0.87057  0.24837  Biso   1.000  Ne
  He1      1.0000 0.65524  0.87642  0.35531  Biso   1.000  He
  He2      1.0000 0.34871  0.86288  0.13665  Biso   1.000  He
  Ar1      1.0000 0.50288  0.86910  0.24762  Biso   1.000  Ar
  Ne2      1.0000 0.49834  0.12939  0.75163  Biso   1.000  Ne
  He3      1.0000 0.64965  0.13700  0.86220  Biso   1.000  He
  He4      1.0000 0.34547  0.12361  0.64515  Biso   1.000  He
  Ar2      1.0000 0.49722  0.13090  0.75256  Biso   1.000  Ar
  Ne3      1.0000 0.00173  0.62936  0.74837  Biso   1.000  Ne
  He5      1.0000 0.16039  0.62342  0.85886  Biso   1.000  He
  He6      1.0000 0.84646  0.63719  0.63504  Biso   1.000  He
  Ar3      1.0000 0.00287  0.63085  0.74744  Biso   1.000  Ar
  Ne4      1.0000 0.99831  0.37060  0.25163  Biso   1.000  Ne
  He7      1.0000 0.15279  0.36285  0.36440  Biso   1.000  He
  He8      1.0000 0.84074  0.37646  0.14189  Biso   1.000  He
  Ar4      1.0000 0.99717  0.36909  0.25250  Biso   1.000  Ar
