data_image0
_cell_length_a       14.871
_cell_length_b       19.265
_cell_length_c       12.598
_cell_angle_alpha    90
_cell_angle_beta     94.69
_cell_angle_gamma    90

_symmetry_space_group_name_H-M    "P 1"
_symmetry_int_tables_number       1

loop_
  _symmetry_equiv_pos_as_xyz
  'x, y, z'

loop_
  _atom_site_label
  _atom_site_occupancy
  _atom_site_fract_x
  _atom_site_fract_y
  _atom_site_fract_z
  _atom_site_thermal_displace_type
  _atom_site_B_iso_or_equiv
  _atom_site_type_symbol
  N1       1.0000 0.38959  0.68523  0.52486  Biso   1.000  N
  C1       1.0000 0.39579  0.65071  0.42212  Biso   1.000  C
  C2       1.0000 0.32172  0.72453  0.54971  Biso   1.000  C
  C3       1.0000 0.44082  0.65720  0.61979  Biso   1.000  C
  H1       1.0000 0.40844  0.60182  0.43382  Biso   1.000  H
  H2       1.0000 0.33853  0.65471  0.37990  Biso   1.000  H
  N2       1.0000 0.46650  0.68139  0.36429  Biso   1.000  N
  N3       1.0000 0.32419  0.73413  0.65826  Biso   1.000  N
  O1       1.0000 0.25990  0.74560  0.48249  Biso   1.000  O
  H3       1.0000 0.43641  0.60659  0.62409  Biso   1.000  H
  C4       1.0000 0.39375  0.69473  0.71202  Biso   1.000  C
  N4       1.0000 0.53351  0.68139  0.63572  Biso   1.000  N
  C5       1.0000 0.55919  0.65720  0.38022  Biso   1.000  C
  C6       1.0000 0.45219  0.72510  0.28202  Biso   1.000  C
  C7       1.0000 0.25720  0.77462  0.70756  Biso   1.000  C
  C8       1.0000 0.35653  0.63862  0.78625  Biso   1.000  C
  N5       1.0000 0.46561  0.73849  0.76212  Biso   1.000  N
  C9       1.0000 0.54782  0.72510  0.71799  Biso   1.000  C
  C10      1.0000 0.60421  0.65071  0.57790  Biso   1.000  C
  H4       1.0000 0.56360  0.60659  0.37592  Biso   1.000  H
  C11      1.0000 0.60632  0.69473  0.28799  Biso   1.000  C
  N6       1.0000 0.61042  0.68523  0.47524  Biso   1.000  N
  N7       1.0000 0.53440  0.73849  0.23790  Biso   1.000  N
  O2       1.0000 0.37969  0.74721  0.24690  Biso   1.000  O
  H5       1.0000 0.23979  0.75001  0.76984  Biso   1.000  H
  H6       1.0000 0.20414  0.77882  0.65794  Biso   1.000  H
  N8       1.0000 0.28803  0.84329  0.73910  Biso   1.000  N
  H7       1.0000 0.40595  0.61313  0.82113  Biso   1.000  H
  H8       1.0000 0.31760  0.60742  0.74460  Biso   1.000  H
  H9       1.0000 0.32311  0.66084  0.83873  Biso   1.000  H
  C12      1.0000 0.46520  0.77399  0.86104  Biso   1.000  C
  O3       1.0000 0.62032  0.74721  0.75312  Biso   1.000  O
  H10      1.0000 0.59164  0.60182  0.56619  Biso   1.000  H
  H11      1.0000 0.66154  0.65471  0.62011  Biso   1.000  H
  C13      1.0000 0.64349  0.63862  0.21385  Biso   1.000  C
  N9       1.0000 0.67582  0.73413  0.34183  Biso   1.000  N
  C14      1.0000 0.67829  0.72453  0.45031  Biso   1.000  C
  C15      1.0000 0.53481  0.77399  0.13898  Biso   1.000  C
  C16      1.0000 0.25912  0.90189  0.68184  Biso   1.000  C
  C17      1.0000 0.33243  0.86239  0.83842  Biso   1.000  C
  H12      1.0000 0.52645  0.77633  0.89401  Biso   1.000  H
  H13      1.0000 0.42931  0.74773  0.90803  Biso   1.000  H
  N10      1.0000 0.42881  0.84412  0.84925  Biso   1.000  N
  H14      1.0000 0.59413  0.61313  0.17888  Biso   1.000  H
  H15      1.0000 0.68241  0.60742  0.25542  Biso   1.000  H
  H16      1.0000 0.67690  0.66084  0.16128  Biso   1.000  H
  C18      1.0000 0.74281  0.77462  0.29253  Biso   1.000  C
  O4       1.0000 0.74010  0.74560  0.51753  Biso   1.000  O
  H17      1.0000 0.47362  0.77633  0.10601  Biso   1.000  H
  H18      1.0000 0.57069  0.74773  0.09199  Biso   1.000  H
  N11      1.0000 0.57120  0.84412  0.15077  Biso   1.000  N
  N12      1.0000 0.28769  0.95873  0.73703  Biso   1.000  N
  O5       1.0000 0.21183  0.90049  0.59821  Biso   1.000  O
  H19      1.0000 0.30122  0.84339  0.89743  Biso   1.000  H
  C19      1.0000 0.33325  0.94430  0.84144  Biso   1.000  C
  C20      1.0000 0.48123  0.90112  0.85952  Biso   1.000  C
  H20      1.0000 0.76021  0.75001  0.23017  Biso   1.000  H
  H21      1.0000 0.79594  0.77882  0.34207  Biso   1.000  H
  N13      1.0000 0.71204  0.84329  0.26091  Biso   1.000  N
  C21      1.0000 0.66764  0.86239  0.16160  Biso   1.000  C
  C22      1.0000 0.51884  0.90112  0.14049  Biso   1.000  C
  C23      1.0000 0.25742  0.02678  0.70581  Biso   1.000  C
  C24      1.0000 0.28322  0.97462  0.93566  Biso   1.000  C
  N14      1.0000 0.42781  0.95889  0.84941  Biso   1.000  N
  O6       1.0000 0.56402  0.89909  0.87720  Biso   1.000  O
  C25      1.0000 0.74089  0.90189  0.31818  Biso   1.000  C
  H22      1.0000 0.69879  0.84339  0.10258  Biso   1.000  H
  C26      1.0000 0.66682  0.94430  0.15857  Biso   1.000  C
  N15      1.0000 0.57220  0.95889  0.15061  Biso   1.000  N
  O7       1.0000 0.43598  0.89909  0.12281  Biso   1.000  O
  H23      1.0000 0.24039  0.05103  0.76873  Biso   1.000  H
  H24      1.0000 0.20344  0.02222  0.65762  Biso   1.000  H
  N16      1.0000 0.32119  0.06971  0.65476  Biso   1.000  N
  H25      1.0000 0.22060  0.96200  0.92666  Biso   1.000  H
  H26      1.0000 0.30958  0.95614  0.00169  Biso   1.000  H
  H27      1.0000 0.28865  0.02429  0.93630  Biso   1.000  H
  C27      1.0000 0.46139  0.02870  0.86239  Biso   1.000  C
  N17      1.0000 0.71232  0.95873  0.26299  Biso   1.000  N
  O8       1.0000 0.78824  0.90049  0.40181  Biso   1.000  O
  C28      1.0000 0.71679  0.97462  0.06443  Biso   1.000  C
  C29      1.0000 0.53862  0.02870  0.13763  Biso   1.000  C
  C30      1.0000 0.31634  0.07828  0.54883  Biso   1.000  C
  C31      1.0000 0.39441  0.10911  0.71282  Biso   1.000  C
  H28      1.0000 0.52101  0.02710  0.89982  Biso   1.000  H
  H29      1.0000 0.42242  0.05419  0.90659  Biso   1.000  H
  N18      1.0000 0.46710  0.06691  0.76140  Biso   1.000  N
  C32      1.0000 0.74259  0.02678  0.29421  Biso   1.000  C
  H30      1.0000 0.77941  0.96200  0.07343  Biso   1.000  H
  H31      1.0000 0.69042  0.95614  0.99833  Biso   1.000  H
  H32      1.0000 0.71143  0.02429  0.06372  Biso   1.000  H
  H33      1.0000 0.47900  0.02710  0.10019  Biso   1.000  H
  H34      1.0000 0.57758  0.05419  0.09342  Biso   1.000  H
  N19      1.0000 0.53290  0.06691  0.23861  Biso   1.000  N
  N20      1.0000 0.39023  0.12032  0.52725  Biso   1.000  N
  O9       1.0000 0.26050  0.05699  0.48631  Biso   1.000  O
  C33      1.0000 0.43893  0.14342  0.61971  Biso   1.000  C
  C34      1.0000 0.35190  0.15920  0.78545  Biso   1.000  C
  C35      1.0000 0.54591  0.07708  0.72062  Biso   1.000  C
  H35      1.0000 0.75962  0.05103  0.23129  Biso   1.000  H
  H36      1.0000 0.79663  0.02222  0.34239  Biso   1.000  H
  N21      1.0000 0.67882  0.06971  0.34534  Biso   1.000  N
  C36      1.0000 0.60560  0.10911  0.28720  Biso   1.000  C
  C37      1.0000 0.45409  0.07708  0.27939  Biso   1.000  C
  C38      1.0000 0.39609  0.14788  0.42164  Biso   1.000  C
  H37      1.0000 0.43574  0.19408  0.62505  Biso   1.000  H
  N22      1.0000 0.52813  0.12131  0.63285  Biso   1.000  N
  H38      1.0000 0.30463  0.18432  0.74571  Biso   1.000  H
  H39      1.0000 0.39671  0.19112  0.81492  Biso   1.000  H
  H40      1.0000 0.32710  0.13403  0.84200  Biso   1.000  H
  O10      1.0000 0.61935  0.05419  0.75081  Biso   1.000  O
  C39      1.0000 0.68373  0.07828  0.45119  Biso   1.000  C
  C40      1.0000 0.56114  0.14342  0.38030  Biso   1.000  C
  C41      1.0000 0.64811  0.15920  0.21464  Biso   1.000  C
  N23      1.0000 0.47194  0.12131  0.36724  Biso   1.000  N
  O11      1.0000 0.38072  0.05419  0.24921  Biso   1.000  O
  H41      1.0000 0.40099  0.19803  0.42634  Biso   1.000  H
  H42      1.0000 0.34062  0.13709  0.37895  Biso   1.000  H
  C42      1.0000 0.60392  0.14788  0.57846  Biso   1.000  C
  N24      1.0000 0.60985  0.12032  0.47285  Biso   1.000  N
  O12      1.0000 0.73950  0.05699  0.51371  Biso   1.000  O
  H43      1.0000 0.56434  0.19408  0.37505  Biso   1.000  H
  H44      1.0000 0.69544  0.18432  0.25430  Biso   1.000  H
  H45      1.0000 0.60330  0.19112  0.18509  Biso   1.000  H
  H46      1.0000 0.67290  0.13403  0.15801  Biso   1.000  H
  H47      1.0000 0.59902  0.19803  0.57376  Biso   1.000  H
  H48      1.0000 0.65939  0.13709  0.62115  Biso   1.000  H
  O13      1.0000 0.23954  0.55702  0.51371  Biso   1.000  O
  C43      1.0000 0.18370  0.57830  0.45119  Biso   1.000  C
  N25      1.0000 0.17879  0.56969  0.34534  Biso   1.000  N
  N26      1.0000 0.10982  0.62030  0.47285  Biso   1.000  N
  C44      1.0000 0.24262  0.52681  0.29421  Biso   1.000  C
  C45      1.0000 0.10563  0.60908  0.28720  Biso   1.000  C
  C46      1.0000 0.06111  0.64339  0.38030  Biso   1.000  C
  C47      1.0000 0.10388  0.64791  0.57846  Biso   1.000  C
  N27      1.0000 0.21229  0.45871  0.26299  Biso   1.000  N
  H49      1.0000 0.25958  0.55100  0.23129  Biso   1.000  H
  H50      1.0000 0.29660  0.52219  0.34239  Biso   1.000  H
  N28      1.0000 0.03294  0.56688  0.23861  Biso   1.000  N
  C48      1.0000 0.14808  0.65923  0.21464  Biso   1.000  C
  H51      1.0000 0.06431  0.69411  0.37505  Biso   1.000  H
  N29      1.0000 0.97191  0.62133  0.36724  Biso   1.000  N
  H52      1.0000 0.09899  0.69800  0.57376  Biso   1.000  H
  H53      1.0000 0.15943  0.63711  0.62115  Biso   1.000  H
  N30      1.0000 0.02810  0.62133  0.63285  Biso   1.000  N
  C49      1.0000 0.24092  0.40192  0.31818  Biso   1.000  C
  C50      1.0000 0.16679  0.44433  0.15857  Biso   1.000  C
  C51      1.0000 0.03858  0.52873  0.13763  Biso   1.000  C
  C52      1.0000 0.95413  0.57711  0.27939  Biso   1.000  C
  H54      1.0000 0.19541  0.68430  0.25430  Biso   1.000  H
  H55      1.0000 0.10333  0.69110  0.18509  Biso   1.000  H
  H56      1.0000 0.17294  0.63400  0.15801  Biso   1.000  H
  C53      1.0000 0.89613  0.64791  0.42164  Biso   1.000  C
  C54      1.0000 0.04588  0.57711  0.72062  Biso   1.000  C
  C55      1.0000 0.93890  0.64339  0.61971  Biso   1.000  C
  N31      1.0000 0.21201  0.34332  0.26091  Biso   1.000  N
  O14      1.0000 0.28820  0.40052  0.40181  Biso   1.000  O
  C56      1.0000 0.16761  0.36242  0.16160  Biso   1.000  C
  C57      1.0000 0.21682  0.47459  0.06443  Biso   1.000  C
  N32      1.0000 0.07223  0.45892  0.15061  Biso   1.000  N
  H57      1.0000 0.07762  0.55422  0.09342  Biso   1.000  H
  H58      1.0000 0.97903  0.52712  0.10019  Biso   1.000  H
  O15      1.0000 0.88075  0.55422  0.24921  Biso   1.000  O
  H59      1.0000 0.90103  0.69800  0.42634  Biso   1.000  H
  H60      1.0000 0.84065  0.63711  0.37895  Biso   1.000  H
  N33      1.0000 0.89020  0.62030  0.52725  Biso   1.000  N
  O16      1.0000 0.11932  0.55422  0.75081  Biso   1.000  O
  N34      1.0000 0.96714  0.56688  0.76140  Biso   1.000  N
  C58      1.0000 0.89444  0.60908  0.71282  Biso   1.000  C
  H61      1.0000 0.93570  0.69411  0.62505  Biso   1.000  H
  C59      1.0000 0.24284  0.27459  0.29253  Biso   1.000  C
  H62      1.0000 0.19882  0.34342  0.10258  Biso   1.000  H
  N35      1.0000 0.07123  0.34410  0.15077  Biso   1.000  N
  H63      1.0000 0.27938  0.46203  0.07343  Biso   1.000  H
  H64      1.0000 0.21139  0.52432  0.06372  Biso   1.000  H
  H65      1.0000 0.19039  0.45611  0.99833  Biso   1.000  H
  C60      1.0000 0.01881  0.40109  0.14049  Biso   1.000  C
  C61      1.0000 0.81631  0.57830  0.54883  Biso   1.000  C
  C62      1.0000 0.96142  0.52873  0.86239  Biso   1.000  C
  C63      1.0000 0.85193  0.65923  0.78545  Biso   1.000  C
  N36      1.0000 0.82123  0.56969  0.65476  Biso   1.000  N
  H66      1.0000 0.26018  0.24999  0.23017  Biso   1.000  H
  H67      1.0000 0.29590  0.27880  0.34207  Biso   1.000  H
  N37      1.0000 0.17579  0.23410  0.34183  Biso   1.000  N
  C64      1.0000 0.03478  0.27402  0.13898  Biso   1.000  C
  O17      1.0000 0.93602  0.39912  0.12281  Biso   1.000  O
  O18      1.0000 0.76054  0.55702  0.48631  Biso   1.000  O
  N38      1.0000 0.92784  0.45892  0.84941  Biso   1.000  N
  H68      1.0000 0.02104  0.52712  0.89982  Biso   1.000  H
  H69      1.0000 0.92246  0.55422  0.90659  Biso   1.000  H
  H70      1.0000 0.80460  0.68430  0.74571  Biso   1.000  H
  H71      1.0000 0.89674  0.69110  0.81492  Biso   1.000  H
  H72      1.0000 0.82713  0.63400  0.84200  Biso   1.000  H
  C65      1.0000 0.75745  0.52681  0.70581  Biso   1.000  C
  C66      1.0000 0.17832  0.22450  0.45031  Biso   1.000  C
  C67      1.0000 0.10629  0.19471  0.28799  Biso   1.000  C
  N39      1.0000 0.03443  0.23852  0.23790  Biso   1.000  N
  H73      1.0000 0.07073  0.24770  0.09199  Biso   1.000  H
  H74      1.0000 0.97365  0.27630  0.10601  Biso   1.000  H
  C68      1.0000 0.98126  0.40109  0.85952  Biso   1.000  C
  C69      1.0000 0.83322  0.44433  0.84144  Biso   1.000  C
  N40      1.0000 0.78772  0.45871  0.73703  Biso   1.000  N
  H75      1.0000 0.74042  0.55100  0.76873  Biso   1.000  H
  H76      1.0000 0.70341  0.52219  0.65762  Biso   1.000  H
  N41      1.0000 0.11038  0.18521  0.47524  Biso   1.000  N
  O19      1.0000 0.24014  0.24563  0.51753  Biso   1.000  O
  C70      1.0000 0.05922  0.15723  0.38022  Biso   1.000  C
  C71      1.0000 0.14352  0.13859  0.21385  Biso   1.000  C
  C72      1.0000 0.95222  0.22512  0.28202  Biso   1.000  C
  N42      1.0000 0.92884  0.34410  0.84925  Biso   1.000  N
  O20      1.0000 0.06399  0.39912  0.87720  Biso   1.000  O
  C73      1.0000 0.83240  0.36242  0.83842  Biso   1.000  C
  C74      1.0000 0.78326  0.47459  0.93566  Biso   1.000  C
  C75      1.0000 0.75915  0.40192  0.68184  Biso   1.000  C
  C76      1.0000 0.10418  0.15069  0.57790  Biso   1.000  C
  H77      1.0000 0.06363  0.10662  0.37592  Biso   1.000  H
  N43      1.0000 0.96653  0.18142  0.36429  Biso   1.000  N
  H78      1.0000 0.09409  0.11311  0.17888  Biso   1.000  H
  H79      1.0000 0.18238  0.10740  0.25542  Biso   1.000  H
  H80      1.0000 0.17693  0.16081  0.16128  Biso   1.000  H
  O21      1.0000 0.87972  0.24718  0.24690  Biso   1.000  O
  C77      1.0000 0.96523  0.27402  0.86104  Biso   1.000  C
  N44      1.0000 0.78800  0.34332  0.73910  Biso   1.000  N
  H81      1.0000 0.80125  0.34342  0.89743  Biso   1.000  H
  H82      1.0000 0.72063  0.46203  0.92666  Biso   1.000  H
  H83      1.0000 0.78861  0.52432  0.93630  Biso   1.000  H
  H84      1.0000 0.80962  0.45611  0.00169  Biso   1.000  H
  O22      1.0000 0.71180  0.40052  0.59821  Biso   1.000  O
  H85      1.0000 0.09160  0.10179  0.56619  Biso   1.000  H
  H86      1.0000 0.16151  0.15468  0.62011  Biso   1.000  H
  N45      1.0000 0.03348  0.18142  0.63572  Biso   1.000  N
  C78      1.0000 0.89582  0.15069  0.42212  Biso   1.000  C
  N46      1.0000 0.96564  0.23852  0.76212  Biso   1.000  N
  H87      1.0000 0.02642  0.27630  0.89401  Biso   1.000  H
  H88      1.0000 0.92935  0.24770  0.90803  Biso   1.000  H
  C79      1.0000 0.75723  0.27459  0.70756  Biso   1.000  C
  C80      1.0000 0.04778  0.22512  0.71799  Biso   1.000  C
  C81      1.0000 0.94085  0.15723  0.61979  Biso   1.000  C
  H89      1.0000 0.90840  0.10179  0.43382  Biso   1.000  H
  H90      1.0000 0.83850  0.15468  0.37990  Biso   1.000  H
  N47      1.0000 0.88963  0.18521  0.52486  Biso   1.000  N
  C82      1.0000 0.89371  0.19471  0.71202  Biso   1.000  C
  N48      1.0000 0.82423  0.23410  0.65826  Biso   1.000  N
  H91      1.0000 0.73983  0.24999  0.76984  Biso   1.000  H
  H92      1.0000 0.70410  0.27880  0.65794  Biso   1.000  H
  O23      1.0000 0.12029  0.24718  0.75312  Biso   1.000  O
  H93      1.0000 0.93644  0.10662  0.62409  Biso   1.000  H
  C83      1.0000 0.82175  0.22450  0.54971  Biso   1.000  C
  C84      1.0000 0.85656  0.13859  0.78625  Biso   1.000  C
  O24      1.0000 0.75994  0.24563  0.48249  Biso   1.000  O
  H94      1.0000 0.90591  0.11311  0.82113  Biso   1.000  H
  H95      1.0000 0.81763  0.10740  0.74460  Biso   1.000  H
  H96      1.0000 0.82314  0.16081  0.83873  Biso   1.000  H
