data_image0
_cell_length_a       35.672
_cell_length_b       12.048
_cell_length_c       11.932
_cell_angle_alpha    90
_cell_angle_beta     90
_cell_angle_gamma    90

_symmetry_space_group_name_H-M    "P 1"
_symmetry_int_tables_number       1

loop_
  _symmetry_equiv_pos_as_xyz
  'x, y, z'

loop_
  _atom_site_label
  _atom_site_occupancy
  _atom_site_fract_x
  _atom_site_fract_y
  _atom_site_fract_z
  _atom_site_thermal_displace_type
  _atom_site_B_iso_or_equiv
  _atom_site_type_symbol
  C1       1.0000 0.51365  0.51428  0.57534  Biso   1.000  C
  C2       1.0000 0.51629  0.63355  0.61624  Biso   1.000  C
  H1       1.0000 0.49400  0.50921  0.51693  Biso   1.000  H
  H2       1.0000 0.50600  0.46605  0.63854  Biso   1.000  H
  C3       1.0000 0.55043  0.47228  0.52749  Biso   1.000  C
  C4       1.0000 0.50908  0.72153  0.54274  Biso   1.000  C
  C5       1.0000 0.52540  0.65795  0.72662  Biso   1.000  C
  C6       1.0000 0.57709  0.42447  0.59806  Biso   1.000  C
  C7       1.0000 0.55893  0.48191  0.41460  Biso   1.000  C
  O1       1.0000 0.49907  0.69207  0.43597  Biso   1.000  O
  C8       1.0000 0.51186  0.83093  0.58020  Biso   1.000  C
  C9       1.0000 0.52803  0.76702  0.76433  Biso   1.000  C
  H3       1.0000 0.52988  0.59885  0.77749  Biso   1.000  H
  O2       1.0000 0.56683  0.41484  0.70877  Biso   1.000  O
  C10      1.0000 0.61146  0.39011  0.55598  Biso   1.000  C
  C11      1.0000 0.59357  0.44829  0.37244  Biso   1.000  C
  H4       1.0000 0.54079  0.51204  0.36498  Biso   1.000  H
  C12      1.0000 0.48879  0.77872  0.36163  Biso   1.000  C
  H5       1.0000 0.50690  0.89002  0.52975  Biso   1.000  H
  C13      1.0000 0.52173  0.85516  0.69024  Biso   1.000  C
  O3       1.0000 0.53692  0.79723  0.87261  Biso   1.000  O
  C14      1.0000 0.59380  0.36902  0.78369  Biso   1.000  C
  H6       1.0000 0.62920  0.35724  0.60543  Biso   1.000  H
  C15      1.0000 0.62054  0.40256  0.44360  Biso   1.000  C
  O4       1.0000 0.60333  0.45958  0.26148  Biso   1.000  O
  H7       1.0000 0.48169  0.74701  0.28897  Biso   1.000  H
  H8       1.0000 0.46748  0.81972  0.39298  Biso   1.000  H
  H9       1.0000 0.51009  0.82918  0.35149  Biso   1.000  H
  C16      1.0000 0.52630  0.97460  0.72821  Biso   1.000  C
  C17      1.0000 0.53406  0.71373  0.95684  Biso   1.000  C
  H10      1.0000 0.59960  0.29258  0.76115  Biso   1.000  H
  H11      1.0000 0.61670  0.41368  0.78151  Biso   1.000  H
  H12      1.0000 0.58359  0.36902  0.86004  Biso   1.000  H
  C18      1.0000 0.65909  0.37135  0.40085  Biso   1.000  C
  C19      1.0000 0.57628  0.46531  0.18438  Biso   1.000  C
  H13      1.0000 0.51948  0.98025  0.80850  Biso   1.000  H
  H14      1.0000 0.50880  0.02216  0.68530  Biso   1.000  H
  C20      1.0000 0.56591  0.01643  0.71203  Biso   1.000  C
  H15      1.0000 0.50959  0.67538  0.95097  Biso   1.000  H
  H16      1.0000 0.55419  0.65803  0.94687  Biso   1.000  H
  C21      1.0000 0.53768  0.76859  0.07048  Biso   1.000  C
  C22      1.0000 0.68754  0.46215  0.42290  Biso   1.000  C
  H17      1.0000 0.66739  0.30204  0.43798  Biso   1.000  H
  H18      1.0000 0.65769  0.35691  0.31923  Biso   1.000  H
  H19      1.0000 0.58749  0.46713  0.10954  Biso   1.000  H
  H20      1.0000 0.55988  0.40032  0.19100  Biso   1.000  H
  H21      1.0000 0.56150  0.53295  0.19620  Biso   1.000  H
  C23      1.0000 0.59265  0.00664  0.79710  Biso   1.000  C
  C24      1.0000 0.57706  0.06449  0.61029  Biso   1.000  C
  H22      1.0000 0.51539  0.81582  0.08381  Biso   1.000  H
  H23      1.0000 0.53810  0.71049  0.12923  Biso   1.000  H
  C25      1.0000 0.57280  0.83956  0.08138  Biso   1.000  C
  C26      1.0000 0.70540  0.47062  0.52590  Biso   1.000  C
  C27      1.0000 0.69618  0.53951  0.34043  Biso   1.000  C
  H24      1.0000 0.58559  0.97551  0.86716  Biso   1.000  H
  C28      1.0000 0.62932  0.04133  0.78126  Biso   1.000  C
  O5       1.0000 0.54959  0.07420  0.52992  Biso   1.000  O
  C29      1.0000 0.61384  0.09753  0.59470  Biso   1.000  C
  H25      1.0000 0.59450  0.79598  0.05380  Biso   1.000  H
  H26      1.0000 0.57008  0.90505  0.03193  Biso   1.000  H
  C30      1.0000 0.58174  0.88056  0.20072  Biso   1.000  C
  O6       1.0000 0.69699  0.39011  0.60350  Biso   1.000  O
  C31      1.0000 0.73071  0.55627  0.54635  Biso   1.000  C
  C32      1.0000 0.72157  0.62492  0.36088  Biso   1.000  C
  H27      1.0000 0.68460  0.53403  0.26894  Biso   1.000  H
  O7       1.0000 0.65724  0.03337  0.86146  Biso   1.000  O
  C33      1.0000 0.64050  0.08574  0.67809  Biso   1.000  C
  C34      1.0000 0.55867  0.13438  0.43128  Biso   1.000  C
  H28      1.0000 0.62099  0.12923  0.52506  Biso   1.000  H
  C35      1.0000 0.59685  0.79183  0.27833  Biso   1.000  C
  H29      1.0000 0.55859  0.91185  0.23399  Biso   1.000  H
  H30      1.0000 0.60039  0.94124  0.19569  Biso   1.000  H
  C36      1.0000 0.70874  0.40754  0.71488  Biso   1.000  C
  H31      1.0000 0.74260  0.56109  0.61742  Biso   1.000  H
  C37      1.0000 0.73887  0.63488  0.46463  Biso   1.000  C
  O8       1.0000 0.73133  0.70435  0.28235  Biso   1.000  O
  C38      1.0000 0.64855  0.00008  0.96832  Biso   1.000  C
  C39      1.0000 0.68123  0.11504  0.65714  Biso   1.000  C
  H32      1.0000 0.53608  0.14351  0.38543  Biso   1.000  H
  H33      1.0000 0.56849  0.20759  0.45189  Biso   1.000  H
  H34      1.0000 0.57768  0.09371  0.38862  Biso   1.000  H
  H35      1.0000 0.57869  0.72983  0.28093  Biso   1.000  H
  H36      1.0000 0.62049  0.76262  0.24640  Biso   1.000  H
  C40      1.0000 0.60434  0.83093  0.39775  Biso   1.000  C
  H37      1.0000 0.73618  0.40471  0.71849  Biso   1.000  H
  H38      1.0000 0.70010  0.48041  0.74053  Biso   1.000  H
  H39      1.0000 0.69819  0.34960  0.76316  Biso   1.000  H
  C41      1.0000 0.76475  0.73091  0.49246  Biso   1.000  C
  C42      1.0000 0.71619  0.69348  0.17323  Biso   1.000  C
  H40      1.0000 0.63879  0.92422  0.96648  Biso   1.000  H
  H41      1.0000 0.62960  0.04988  0.99975  Biso   1.000  H
  H42      1.0000 0.67120  0.00249  0.01492  Biso   1.000  H
  H43      1.0000 0.69270  0.14177  0.72762  Biso   1.000  H
  H44      1.0000 0.68269  0.17580  0.60141  Biso   1.000  H
  C43      1.0000 0.70296  0.01577  0.61440  Biso   1.000  C
  C44      1.0000 0.62231  0.74485  0.47000  Biso   1.000  C
  H45      1.0000 0.58029  0.85375  0.43228  Biso   1.000  H
  H46      1.0000 0.62080  0.89700  0.39516  Biso   1.000  H
  C45      1.0000 0.74310  0.83018  0.53729  Biso   1.000  C
  H47      1.0000 0.78328  0.70676  0.54903  Biso   1.000  H
  H48      1.0000 0.77859  0.75324  0.42415  Biso   1.000  H
  H49      1.0000 0.72718  0.75000  0.12412  Biso   1.000  H
  H50      1.0000 0.72199  0.61952  0.14373  Biso   1.000  H
  H51      1.0000 0.68889  0.70344  0.17616  Biso   1.000  H
  C46      1.0000 0.71947  0.94190  0.68882  Biso   1.000  C
  C47      1.0000 0.70585  0.99502  0.50050  Biso   1.000  C
  H52      1.0000 0.60868  0.67405  0.45935  Biso   1.000  H
  H53      1.0000 0.64830  0.73348  0.44360  Biso   1.000  H
  C48      1.0000 0.62343  0.77025  0.59319  Biso   1.000  C
  C49      1.0000 0.73910  0.84869  0.65119  Biso   1.000  C
  C50      1.0000 0.72617  0.90388  0.46195  Biso   1.000  C
  H54      1.0000 0.71740  0.95510  0.76701  Biso   1.000  H
  O9       1.0000 0.68774  0.06873  0.42994  Biso   1.000  O
  H55      1.0000 0.63689  0.84114  0.60451  Biso   1.000  H
  H56      1.0000 0.59739  0.78038  0.62052  Biso   1.000  H
  C51      1.0000 0.64207  0.68169  0.66225  Biso   1.000  C
  O10      1.0000 0.75530  0.77299  0.72201  Biso   1.000  O
  H57      1.0000 0.72850  0.89160  0.38351  Biso   1.000  H
  C52      1.0000 0.68836  0.04598  0.31328  Biso   1.000  C
  H58      1.0000 0.66929  0.68310  0.64633  Biso   1.000  H
  H59      1.0000 0.63240  0.60848  0.63795  Biso   1.000  H
  C53      1.0000 0.63658  0.69190  0.78486  Biso   1.000  C
  C54      1.0000 0.74330  0.77183  0.83540  Biso   1.000  C
  H60      1.0000 0.67829  0.97161  0.29970  Biso   1.000  H
  H61      1.0000 0.67299  0.10101  0.27380  Biso   1.000  H
  H62      1.0000 0.71420  0.04980  0.28587  Biso   1.000  H
  O11      1.0000 0.65508  0.60276  0.84035  Biso   1.000  O
  H63      1.0000 0.60950  0.69024  0.80255  Biso   1.000  H
  H64      1.0000 0.64689  0.76361  0.81126  Biso   1.000  H
  H65      1.0000 0.71608  0.76054  0.83833  Biso   1.000  H
  H66      1.0000 0.75589  0.71140  0.87546  Biso   1.000  H
  H67      1.0000 0.74958  0.84280  0.87085  Biso   1.000  H
  C55      1.0000 0.64799  0.59719  0.95483  Biso   1.000  C
  H68      1.0000 0.65800  0.66409  0.99246  Biso   1.000  H
  H69      1.0000 0.62060  0.59421  0.96824  Biso   1.000  H
  C56      1.0000 0.46591  0.28627  0.45684  Biso   1.000  C
  O12      1.0000 0.46308  0.20277  0.37261  Biso   1.000  O
  H70      1.0000 0.49038  0.32462  0.45089  Biso   1.000  H
  H71      1.0000 0.44578  0.34205  0.44678  Biso   1.000  H
  C57      1.0000 0.46230  0.23141  0.57048  Biso   1.000  C
  C58      1.0000 0.47197  0.23298  0.26433  Biso   1.000  C
  H72      1.0000 0.48458  0.18418  0.58381  Biso   1.000  H
  H73      1.0000 0.46190  0.28951  0.62923  Biso   1.000  H
  C59      1.0000 0.42717  0.16052  0.58146  Biso   1.000  C
  C60      1.0000 0.47827  0.14492  0.19024  Biso   1.000  C
  C61      1.0000 0.47460  0.34213  0.22662  Biso   1.000  C
  H74      1.0000 0.40550  0.20402  0.55380  Biso   1.000  H
  H75      1.0000 0.42989  0.09504  0.53193  Biso   1.000  H
  C62      1.0000 0.41823  0.11952  0.70072  Biso   1.000  C
  C63      1.0000 0.47368  0.02548  0.22821  Biso   1.000  C
  C64      1.0000 0.48814  0.16907  0.08020  Biso   1.000  C
  H76      1.0000 0.47009  0.40123  0.27749  Biso   1.000  H
  C65      1.0000 0.48368  0.36653  0.11624  Biso   1.000  C
  C66      1.0000 0.40315  0.20817  0.77833  Biso   1.000  C
  H77      1.0000 0.44138  0.08823  0.73399  Biso   1.000  H
  H78      1.0000 0.39959  0.05876  0.69569  Biso   1.000  H
  C67      1.0000 0.43407  0.98357  0.21203  Biso   1.000  C
  H79      1.0000 0.48049  0.01984  0.30850  Biso   1.000  H
  H80      1.0000 0.49120  0.97784  0.18530  Biso   1.000  H
  C68      1.0000 0.49092  0.27847  0.04274  Biso   1.000  C
  H81      1.0000 0.49310  0.10998  0.02967  Biso   1.000  H
  C69      1.0000 0.48635  0.48581  0.07534  Biso   1.000  C
  H82      1.0000 0.42128  0.27017  0.78093  Biso   1.000  H
  H83      1.0000 0.37949  0.23738  0.74640  Biso   1.000  H
  C70      1.0000 0.39563  0.16907  0.89775  Biso   1.000  C
  C71      1.0000 0.40735  0.99344  0.29710  Biso   1.000  C
  C72      1.0000 0.42294  0.93559  0.11029  Biso   1.000  C
  O13      1.0000 0.50090  0.30802  0.93597  Biso   1.000  O
  C73      1.0000 0.44954  0.52772  0.02749  Biso   1.000  C
  H84      1.0000 0.50600  0.49079  0.01693  Biso   1.000  H
  H85      1.0000 0.49400  0.53403  0.13854  Biso   1.000  H
  C74      1.0000 0.37769  0.25523  0.97000  Biso   1.000  C
  H86      1.0000 0.41968  0.14633  0.93237  Biso   1.000  H
  H87      1.0000 0.37920  0.10300  0.89516  Biso   1.000  H
  C75      1.0000 0.37068  0.95875  0.28118  Biso   1.000  C
  H88      1.0000 0.41439  0.02449  0.36708  Biso   1.000  H
  C76      1.0000 0.38613  0.90247  0.09470  Biso   1.000  C
  O14      1.0000 0.45038  0.92580  0.02992  Biso   1.000  O
  C77      1.0000 0.51119  0.22128  0.86163  Biso   1.000  C
  C78      1.0000 0.42291  0.57553  0.09797  Biso   1.000  C
  C79      1.0000 0.44107  0.51809  0.91460  Biso   1.000  C
  H89      1.0000 0.39129  0.32603  0.95935  Biso   1.000  H
  H90      1.0000 0.35170  0.26652  0.94360  Biso   1.000  H
  C80      1.0000 0.37657  0.22983  0.09319  Biso   1.000  C
  C81      1.0000 0.35947  0.91426  0.17809  Biso   1.000  C
  O15      1.0000 0.34273  0.96663  0.36138  Biso   1.000  O
  H91      1.0000 0.37898  0.87085  0.02497  Biso   1.000  H
  C82      1.0000 0.44133  0.86562  0.93136  Biso   1.000  C
  H92      1.0000 0.51831  0.25299  0.78905  Biso   1.000  H
  H93      1.0000 0.53249  0.18028  0.89306  Biso   1.000  H
  H94      1.0000 0.48988  0.17082  0.85149  Biso   1.000  H
  C83      1.0000 0.38851  0.60998  0.05598  Biso   1.000  C
  O16      1.0000 0.43314  0.58516  0.20877  Biso   1.000  O
  C84      1.0000 0.40640  0.55171  0.87244  Biso   1.000  C
  H95      1.0000 0.45918  0.48805  0.86507  Biso   1.000  H
  H96      1.0000 0.36309  0.15886  0.10451  Biso   1.000  H
  H97      1.0000 0.40258  0.21962  0.12052  Biso   1.000  H
  C85      1.0000 0.35790  0.31831  0.16217  Biso   1.000  C
  C86      1.0000 0.31874  0.88504  0.15714  Biso   1.000  C
  C87      1.0000 0.35142  0.99992  0.46832  Biso   1.000  C
  H98      1.0000 0.46389  0.85649  0.88543  Biso   1.000  H
  H99      1.0000 0.43149  0.79241  0.95189  Biso   1.000  H
  H100     1.0000 0.42229  0.90629  0.88862  Biso   1.000  H
  C88      1.0000 0.37946  0.59744  0.94360  Biso   1.000  C
  H101     1.0000 0.37080  0.64285  0.10543  Biso   1.000  H
  C89      1.0000 0.40620  0.63098  0.28369  Biso   1.000  C
  O17      1.0000 0.39664  0.54050  0.76148  Biso   1.000  O
  H102     1.0000 0.33071  0.31690  0.14633  Biso   1.000  H
  H103     1.0000 0.36760  0.39152  0.13786  Biso   1.000  H
  C90      1.0000 0.36339  0.30810  0.28478  Biso   1.000  C
  C91      1.0000 0.29704  0.98431  0.11440  Biso   1.000  C
  H104     1.0000 0.30730  0.85823  0.22762  Biso   1.000  H
  H105     1.0000 0.31731  0.82420  0.10141  Biso   1.000  H
  H106     1.0000 0.36121  0.07578  0.46639  Biso   1.000  H
  H107     1.0000 0.32880  0.99751  0.51492  Biso   1.000  H
  H108     1.0000 0.37040  0.95012  0.49975  Biso   1.000  H
  C92      1.0000 0.34088  0.62874  0.90085  Biso   1.000  C
  H109     1.0000 0.40040  0.70742  0.26115  Biso   1.000  H
  H110     1.0000 0.38330  0.58632  0.28151  Biso   1.000  H
  H111     1.0000 0.41641  0.63098  0.36004  Biso   1.000  H
  C93      1.0000 0.42372  0.53469  0.68446  Biso   1.000  C
  O18      1.0000 0.34489  0.39724  0.34035  Biso   1.000  O
  H112     1.0000 0.39050  0.30984  0.30255  Biso   1.000  H
  H113     1.0000 0.35311  0.23639  0.31118  Biso   1.000  H
  C94      1.0000 0.28053  0.05810  0.18882  Biso   1.000  C
  C95      1.0000 0.29412  0.00498  0.00050  Biso   1.000  C
  C96      1.0000 0.31246  0.53793  0.92290  Biso   1.000  C
  H114     1.0000 0.33259  0.69804  0.93807  Biso   1.000  H
  H115     1.0000 0.34229  0.64309  0.81923  Biso   1.000  H
  H116     1.0000 0.41248  0.53295  0.60954  Biso   1.000  H
  H117     1.0000 0.44009  0.59968  0.69100  Biso   1.000  H
  H118     1.0000 0.43850  0.46713  0.69620  Biso   1.000  H
  C97      1.0000 0.35201  0.40281  0.45483  Biso   1.000  C
  C98      1.0000 0.26088  0.15131  0.15119  Biso   1.000  C
  H119     1.0000 0.28260  0.04490  0.26701  Biso   1.000  H
  C99      1.0000 0.27383  0.09612  0.96195  Biso   1.000  C
  O19      1.0000 0.31223  0.93127  0.93002  Biso   1.000  O
  C100     1.0000 0.29460  0.52938  0.02590  Biso   1.000  C
  C101     1.0000 0.30380  0.46049  0.84043  Biso   1.000  C
  H120     1.0000 0.34200  0.33591  0.49246  Biso   1.000  H
  H121     1.0000 0.37940  0.40579  0.46824  Biso   1.000  H
  C102     1.0000 0.33354  0.50564  0.50210  Biso   1.000  C
  O20      1.0000 0.24470  0.22701  0.22201  Biso   1.000  O
  C103     1.0000 0.25687  0.16982  0.03729  Biso   1.000  C
  H122     1.0000 0.27150  0.10840  0.88351  Biso   1.000  H
  C104     1.0000 0.31162  0.95402  0.81336  Biso   1.000  C
  C105     1.0000 0.26926  0.44373  0.04626  Biso   1.000  C
  O21      1.0000 0.30301  0.60989  0.10350  Biso   1.000  O
  C106     1.0000 0.27840  0.37508  0.86096  Biso   1.000  C
  H123     1.0000 0.31540  0.46605  0.76894  Biso   1.000  H
  H124     1.0000 0.34509  0.57180  0.46916  Biso   1.000  H
  H125     1.0000 0.30668  0.50465  0.48408  Biso   1.000  H
  H126     1.0000 0.33679  0.50714  0.58364  Biso   1.000  H
  C107     1.0000 0.25670  0.22817  0.33540  Biso   1.000  C
  C108     1.0000 0.23523  0.26909  0.99246  Biso   1.000  C
  H127     1.0000 0.32701  0.89899  0.77380  Biso   1.000  H
  H128     1.0000 0.28580  0.95020  0.78595  Biso   1.000  H
  H129     1.0000 0.32171  0.02839  0.79970  Biso   1.000  H
  C109     1.0000 0.26110  0.36512  0.96463  Biso   1.000  C
  H130     1.0000 0.25740  0.43891  0.11742  Biso   1.000  H
  C110     1.0000 0.29124  0.59255  0.21488  Biso   1.000  C
  O22      1.0000 0.26864  0.29573  0.78243  Biso   1.000  O
  H131     1.0000 0.28389  0.23954  0.33833  Biso   1.000  H
  H132     1.0000 0.24408  0.28860  0.37538  Biso   1.000  H
  H133     1.0000 0.25039  0.15720  0.37085  Biso   1.000  H
  H134     1.0000 0.21670  0.29333  0.04903  Biso   1.000  H
  H135     1.0000 0.22141  0.24685  0.92415  Biso   1.000  H
  H136     1.0000 0.26379  0.59529  0.21849  Biso   1.000  H
  H137     1.0000 0.29990  0.51959  0.24053  Biso   1.000  H
  H138     1.0000 0.30181  0.65040  0.26307  Biso   1.000  H
  C111     1.0000 0.28381  0.30652  0.67323  Biso   1.000  C
  H139     1.0000 0.27279  0.25000  0.62412  Biso   1.000  H
  H140     1.0000 0.27801  0.38048  0.64373  Biso   1.000  H
  H141     1.0000 0.31108  0.29665  0.67625  Biso   1.000  H
  C112     1.0000 0.26477  0.76909  0.49246  Biso   1.000  C
  C113     1.0000 0.24310  0.66982  0.53729  Biso   1.000  C
  H142     1.0000 0.28330  0.79333  0.54903  Biso   1.000  H
  H143     1.0000 0.27859  0.74685  0.42415  Biso   1.000  H
  C114     1.0000 0.23890  0.86512  0.46463  Biso   1.000  C
  C115     1.0000 0.22617  0.59612  0.46195  Biso   1.000  C
  C116     1.0000 0.23910  0.65131  0.65119  Biso   1.000  C
  C117     1.0000 0.23071  0.94373  0.54635  Biso   1.000  C
  C118     1.0000 0.22157  0.87508  0.36088  Biso   1.000  C
  C119     1.0000 0.20588  0.50498  0.50050  Biso   1.000  C
  H144     1.0000 0.22850  0.60840  0.38351  Biso   1.000  H
  C120     1.0000 0.21947  0.55810  0.68882  Biso   1.000  C
  O23      1.0000 0.25530  0.72701  0.72201  Biso   1.000  O
  H145     1.0000 0.24260  0.93891  0.61742  Biso   1.000  H
  C121     1.0000 0.20540  0.02938  0.52590  Biso   1.000  C
  O24      1.0000 0.23136  0.79573  0.28235  Biso   1.000  O
  C122     1.0000 0.19620  0.96049  0.34043  Biso   1.000  C
  O25      1.0000 0.18777  0.43127  0.42994  Biso   1.000  O
  C123     1.0000 0.20296  0.48431  0.61440  Biso   1.000  C
  H146     1.0000 0.21740  0.54490  0.76701  Biso   1.000  H
  C124     1.0000 0.24330  0.72825  0.83540  Biso   1.000  C
  O26      1.0000 0.19699  0.10989  0.60350  Biso   1.000  O
  C125     1.0000 0.18754  0.03793  0.42290  Biso   1.000  C
  C126     1.0000 0.21619  0.80652  0.17323  Biso   1.000  C
  H147     1.0000 0.18460  0.96605  0.26894  Biso   1.000  H
  C127     1.0000 0.18836  0.45402  0.31328  Biso   1.000  C
  C128     1.0000 0.18123  0.38496  0.65714  Biso   1.000  C
  H148     1.0000 0.21611  0.73954  0.83833  Biso   1.000  H
  H149     1.0000 0.25589  0.78860  0.87546  Biso   1.000  H
  H150     1.0000 0.24961  0.65720  0.87085  Biso   1.000  H
  C129     1.0000 0.20874  0.09246  0.71488  Biso   1.000  C
  C130     1.0000 0.15909  0.12874  0.40085  Biso   1.000  C
  H151     1.0000 0.22721  0.75000  0.12412  Biso   1.000  H
  H152     1.0000 0.22199  0.88056  0.14373  Biso   1.000  H
  H153     1.0000 0.18889  0.79665  0.17616  Biso   1.000  H
  H154     1.0000 0.17299  0.39899  0.27380  Biso   1.000  H
  H155     1.0000 0.21420  0.45020  0.28587  Biso   1.000  H
  H156     1.0000 0.17829  0.52839  0.29970  Biso   1.000  H
  C131     1.0000 0.14053  0.41426  0.67809  Biso   1.000  C
  H157     1.0000 0.19270  0.35823  0.72762  Biso   1.000  H
  H158     1.0000 0.18269  0.32420  0.60141  Biso   1.000  H
  H159     1.0000 0.23621  0.09529  0.71849  Biso   1.000  H
  H160     1.0000 0.20010  0.01959  0.74053  Biso   1.000  H
  H161     1.0000 0.19819  0.15040  0.76316  Biso   1.000  H
  H162     1.0000 0.16739  0.19804  0.43798  Biso   1.000  H
  H163     1.0000 0.15769  0.14309  0.31923  Biso   1.000  H
  C132     1.0000 0.12054  0.09744  0.44360  Biso   1.000  C
  C133     1.0000 0.12932  0.45875  0.78126  Biso   1.000  C
  C134     1.0000 0.11387  0.40247  0.59470  Biso   1.000  C
  C135     1.0000 0.11146  0.10989  0.55598  Biso   1.000  C
  C136     1.0000 0.09357  0.05171  0.37244  Biso   1.000  C
  O27      1.0000 0.15724  0.46663  0.86146  Biso   1.000  O
  C137     1.0000 0.09265  0.49344  0.79710  Biso   1.000  C
  C138     1.0000 0.07706  0.43551  0.61029  Biso   1.000  C
  H164     1.0000 0.12099  0.37085  0.52506  Biso   1.000  H
  C139     1.0000 0.07709  0.07553  0.59806  Biso   1.000  C
  H165     1.0000 0.12920  0.14276  0.60543  Biso   1.000  H
  O28      1.0000 0.10336  0.04050  0.26148  Biso   1.000  O
  C140     1.0000 0.05893  0.01809  0.41460  Biso   1.000  C
  C141     1.0000 0.14855  0.49992  0.96832  Biso   1.000  C
  H166     1.0000 0.08559  0.52449  0.86716  Biso   1.000  H
  C142     1.0000 0.06591  0.48357  0.71203  Biso   1.000  C
  O29      1.0000 0.04959  0.42580  0.52992  Biso   1.000  O
  O30      1.0000 0.06686  0.08516  0.70877  Biso   1.000  O
  C143     1.0000 0.05043  0.02772  0.52749  Biso   1.000  C
  C144     1.0000 0.07628  0.03469  0.18438  Biso   1.000  C
  H167     1.0000 0.04079  0.98805  0.36498  Biso   1.000  H
  H168     1.0000 0.13879  0.57578  0.96648  Biso   1.000  H
  H169     1.0000 0.12960  0.45012  0.99975  Biso   1.000  H
  H170     1.0000 0.17120  0.49751  0.01492  Biso   1.000  H
  C145     1.0000 0.02632  0.52548  0.72821  Biso   1.000  C
  C146     1.0000 0.05867  0.36562  0.43128  Biso   1.000  C
  C147     1.0000 0.09380  0.13098  0.78369  Biso   1.000  C
  C148     1.0000 0.01365  0.98581  0.57534  Biso   1.000  C
  H171     1.0000 0.06150  0.96713  0.19620  Biso   1.000  H
  H172     1.0000 0.08749  0.03287  0.10954  Biso   1.000  H
  H173     1.0000 0.05991  0.09968  0.19100  Biso   1.000  H
  C149     1.0000 0.02173  0.64492  0.69024  Biso   1.000  C
  H174     1.0000 0.01951  0.51984  0.80850  Biso   1.000  H
  H175     1.0000 0.00880  0.47784  0.68530  Biso   1.000  H
  H176     1.0000 0.03611  0.35649  0.38543  Biso   1.000  H
  H177     1.0000 0.06849  0.29241  0.45189  Biso   1.000  H
  H178     1.0000 0.07771  0.40629  0.38862  Biso   1.000  H
  H179     1.0000 0.09960  0.20742  0.76115  Biso   1.000  H
  H180     1.0000 0.11670  0.08632  0.78151  Biso   1.000  H
  H181     1.0000 0.08359  0.13098  0.86004  Biso   1.000  H
  C150     1.0000 0.01629  0.86653  0.61624  Biso   1.000  C
  H182     1.0000 0.99397  0.99079  0.51693  Biso   1.000  H
  H183     1.0000 0.00600  0.03403  0.63854  Biso   1.000  H
  C151     1.0000 0.02803  0.73298  0.76433  Biso   1.000  C
  C152     1.0000 0.01186  0.66907  0.58020  Biso   1.000  C
  C153     1.0000 0.02540  0.84213  0.72662  Biso   1.000  C
  C154     1.0000 0.00908  0.77855  0.54274  Biso   1.000  C
  O31      1.0000 0.03692  0.70277  0.87261  Biso   1.000  O
  H184     1.0000 0.00690  0.60998  0.52975  Biso   1.000  H
  H185     1.0000 0.02991  0.90123  0.77749  Biso   1.000  H
  O32      1.0000 0.99907  0.80802  0.43597  Biso   1.000  O
  C155     1.0000 0.03406  0.78635  0.95684  Biso   1.000  C
  C156     1.0000 0.98879  0.72128  0.36163  Biso   1.000  C
  H186     1.0000 0.00959  0.82462  0.95097  Biso   1.000  H
  H187     1.0000 0.05419  0.84205  0.94687  Biso   1.000  H
  C157     1.0000 0.03768  0.73141  0.07048  Biso   1.000  C
  H188     1.0000 0.01009  0.67082  0.35149  Biso   1.000  H
  H189     1.0000 0.98169  0.75299  0.28897  Biso   1.000  H
  H190     1.0000 0.96748  0.68028  0.39298  Biso   1.000  H
  H191     1.0000 0.01539  0.68418  0.08381  Biso   1.000  H
  H192     1.0000 0.03810  0.78951  0.12923  Biso   1.000  H
  C158     1.0000 0.07283  0.66052  0.08138  Biso   1.000  C
  H193     1.0000 0.09450  0.70402  0.05380  Biso   1.000  H
  H194     1.0000 0.07011  0.59504  0.03193  Biso   1.000  H
  C159     1.0000 0.08177  0.61952  0.20072  Biso   1.000  C
  C160     1.0000 0.09685  0.70825  0.27833  Biso   1.000  C
  H195     1.0000 0.05859  0.58823  0.23399  Biso   1.000  H
  H196     1.0000 0.10039  0.55885  0.19569  Biso   1.000  H
  H197     1.0000 0.07869  0.77025  0.28093  Biso   1.000  H
  H198     1.0000 0.12049  0.73738  0.24640  Biso   1.000  H
  C161     1.0000 0.10437  0.66916  0.39775  Biso   1.000  C
  C162     1.0000 0.12231  0.75523  0.47000  Biso   1.000  C
  H199     1.0000 0.08029  0.64633  0.43228  Biso   1.000  H
  H200     1.0000 0.12080  0.60300  0.39516  Biso   1.000  H
  H201     1.0000 0.10868  0.82603  0.45935  Biso   1.000  H
  H202     1.0000 0.14830  0.76652  0.44360  Biso   1.000  H
  C163     1.0000 0.12343  0.72983  0.59319  Biso   1.000  C
  H203     1.0000 0.13689  0.65895  0.60451  Biso   1.000  H
  H204     1.0000 0.09739  0.71962  0.62052  Biso   1.000  H
  C164     1.0000 0.14210  0.81831  0.66225  Biso   1.000  C
  H205     1.0000 0.16929  0.81690  0.64633  Biso   1.000  H
  H206     1.0000 0.13240  0.89152  0.63795  Biso   1.000  H
  C165     1.0000 0.13658  0.80810  0.78486  Biso   1.000  C
  O33      1.0000 0.15508  0.89724  0.84035  Biso   1.000  O
  H207     1.0000 0.10950  0.80984  0.80255  Biso   1.000  H
  H208     1.0000 0.14689  0.73639  0.81126  Biso   1.000  H
  C166     1.0000 0.14799  0.90281  0.95483  Biso   1.000  C
  H209     1.0000 0.15800  0.83591  0.99246  Biso   1.000  H
  H210     1.0000 0.12060  0.90579  0.96824  Biso   1.000  H
  O34      1.0000 0.74470  0.27299  0.22201  Biso   1.000  O
  C167     1.0000 0.76088  0.34869  0.15119  Biso   1.000  C
  C168     1.0000 0.75667  0.27183  0.33540  Biso   1.000  C
  C169     1.0000 0.78050  0.44190  0.18882  Biso   1.000  C
  C170     1.0000 0.75687  0.33018  0.03729  Biso   1.000  C
  H211     1.0000 0.78389  0.26054  0.33833  Biso   1.000  H
  H212     1.0000 0.74408  0.21140  0.37538  Biso   1.000  H
  H213     1.0000 0.75039  0.34280  0.37085  Biso   1.000  H
  H214     1.0000 0.78260  0.45510  0.26701  Biso   1.000  H
  C171     1.0000 0.79704  0.51577  0.11440  Biso   1.000  C
  C172     1.0000 0.77383  0.40388  0.96195  Biso   1.000  C
  C173     1.0000 0.73523  0.23091  0.99246  Biso   1.000  C
  C174     1.0000 0.81874  0.61504  0.15714  Biso   1.000  C
  C175     1.0000 0.79412  0.49502  0.00050  Biso   1.000  C
  H215     1.0000 0.77150  0.39160  0.88351  Biso   1.000  H
  H216     1.0000 0.71670  0.20667  0.04903  Biso   1.000  H
  H217     1.0000 0.72138  0.25324  0.92415  Biso   1.000  H
  C176     1.0000 0.76110  0.13488  0.96463  Biso   1.000  C
  C177     1.0000 0.85947  0.58574  0.17809  Biso   1.000  C
  H218     1.0000 0.80730  0.64185  0.22762  Biso   1.000  H
  H219     1.0000 0.81728  0.67580  0.10141  Biso   1.000  H
  O35      1.0000 0.81223  0.56873  0.93002  Biso   1.000  O
  C178     1.0000 0.76926  0.05627  0.04626  Biso   1.000  C
  C179     1.0000 0.77840  0.12492  0.86096  Biso   1.000  C
  C180     1.0000 0.87065  0.54133  0.28118  Biso   1.000  C
  C181     1.0000 0.88613  0.59753  0.09470  Biso   1.000  C
  C182     1.0000 0.81162  0.54598  0.81336  Biso   1.000  C
  H220     1.0000 0.75740  0.06109  0.11742  Biso   1.000  H
  C183     1.0000 0.79460  0.97062  0.02590  Biso   1.000  C
  O36      1.0000 0.76864  0.20427  0.78243  Biso   1.000  O
  C184     1.0000 0.80380  0.03951  0.84043  Biso   1.000  C
  O37      1.0000 0.84273  0.53345  0.36138  Biso   1.000  O
  C185     1.0000 0.90735  0.50664  0.29710  Biso   1.000  C
  C186     1.0000 0.92291  0.56449  0.11029  Biso   1.000  C
  H221     1.0000 0.87898  0.62923  0.02497  Biso   1.000  H
  H222     1.0000 0.82698  0.60101  0.77380  Biso   1.000  H
  H223     1.0000 0.78580  0.54980  0.78595  Biso   1.000  H
  H224     1.0000 0.82168  0.47161  0.79970  Biso   1.000  H
  C187     1.0000 0.81243  0.96215  0.92290  Biso   1.000  C
  O38      1.0000 0.80301  0.89011  0.10350  Biso   1.000  O
  C188     1.0000 0.78381  0.19348  0.67323  Biso   1.000  C
  H225     1.0000 0.81540  0.03403  0.76894  Biso   1.000  H
  C189     1.0000 0.85142  0.50008  0.46832  Biso   1.000  C
  H226     1.0000 0.91439  0.47551  0.36708  Biso   1.000  H
  C190     1.0000 0.93407  0.51652  0.21203  Biso   1.000  C
  O39      1.0000 0.95038  0.57420  0.02992  Biso   1.000  O
  C191     1.0000 0.84088  0.87135  0.90085  Biso   1.000  C
  C192     1.0000 0.79124  0.90754  0.21488  Biso   1.000  C
  H227     1.0000 0.77279  0.25000  0.62412  Biso   1.000  H
  H228     1.0000 0.77798  0.11952  0.64373  Biso   1.000  H
  H229     1.0000 0.81108  0.20344  0.67625  Biso   1.000  H
  H230     1.0000 0.86118  0.42422  0.46639  Biso   1.000  H
  H231     1.0000 0.82880  0.50249  0.51492  Biso   1.000  H
  H232     1.0000 0.87037  0.54988  0.49975  Biso   1.000  H
  C193     1.0000 0.97368  0.47460  0.22821  Biso   1.000  C
  C194     1.0000 0.94130  0.63438  0.93136  Biso   1.000  C
  H233     1.0000 0.83259  0.80204  0.93807  Biso   1.000  H
  H234     1.0000 0.84229  0.85691  0.81923  Biso   1.000  H
  C195     1.0000 0.87943  0.90256  0.94360  Biso   1.000  C
  H235     1.0000 0.76379  0.90471  0.21849  Biso   1.000  H
  H236     1.0000 0.79990  0.98041  0.24053  Biso   1.000  H
  H237     1.0000 0.80178  0.84960  0.26307  Biso   1.000  H
  C196     1.0000 0.97825  0.35508  0.19024  Biso   1.000  C
  H238     1.0000 0.98049  0.48025  0.30850  Biso   1.000  H
  H239     1.0000 0.99120  0.52224  0.18530  Biso   1.000  H
  H240     1.0000 0.96389  0.64351  0.88543  Biso   1.000  H
  H241     1.0000 0.93149  0.70759  0.95189  Biso   1.000  H
  H242     1.0000 0.92229  0.59371  0.88862  Biso   1.000  H
  C197     1.0000 0.90640  0.94829  0.87244  Biso   1.000  C
  C198     1.0000 0.88851  0.89011  0.05598  Biso   1.000  C
  C199     1.0000 0.97197  0.26702  0.26433  Biso   1.000  C
  C200     1.0000 0.98811  0.33093  0.08020  Biso   1.000  C
  O40      1.0000 0.89664  0.95958  0.76148  Biso   1.000  O
  C201     1.0000 0.94105  0.98191  0.91460  Biso   1.000  C
  C202     1.0000 0.92291  0.92455  0.09797  Biso   1.000  C
  H243     1.0000 0.87080  0.85724  0.10543  Biso   1.000  H
  O41      1.0000 0.96308  0.29723  0.37261  Biso   1.000  O
  C203     1.0000 0.97457  0.15795  0.22662  Biso   1.000  C
  C204     1.0000 0.99092  0.22153  0.04274  Biso   1.000  C
  H244     1.0000 0.99308  0.39002  0.02967  Biso   1.000  H
  C205     1.0000 0.92369  0.96531  0.68446  Biso   1.000  C
  C206     1.0000 0.94954  0.97228  0.02749  Biso   1.000  C
  H245     1.0000 0.95918  0.01204  0.86507  Biso   1.000  H
  O42      1.0000 0.93314  0.91484  0.20877  Biso   1.000  O
  C207     1.0000 0.96591  0.21373  0.45684  Biso   1.000  C
  H246     1.0000 0.97009  0.09877  0.27749  Biso   1.000  H
  C208     1.0000 0.98368  0.13347  0.11624  Biso   1.000  C
  O43      1.0000 0.00090  0.19207  0.93597  Biso   1.000  O
  H247     1.0000 0.91248  0.96713  0.60954  Biso   1.000  H
  H248     1.0000 0.94009  0.90032  0.69100  Biso   1.000  H
  H249     1.0000 0.93850  0.03287  0.69620  Biso   1.000  H
  C209     1.0000 0.98635  0.01419  0.07534  Biso   1.000  C
  C210     1.0000 0.90620  0.86902  0.28369  Biso   1.000  C
  H250     1.0000 0.99038  0.17538  0.45089  Biso   1.000  H
  H251     1.0000 0.94578  0.15803  0.44678  Biso   1.000  H
  C211     1.0000 0.96230  0.26859  0.57048  Biso   1.000  C
  C212     1.0000 0.01121  0.27872  0.86163  Biso   1.000  C
  H252     1.0000 0.99397  0.96605  0.13854  Biso   1.000  H
  H253     1.0000 0.00600  0.00921  0.01693  Biso   1.000  H
  H254     1.0000 0.90040  0.79258  0.26115  Biso   1.000  H
  H255     1.0000 0.88330  0.91376  0.28151  Biso   1.000  H
  H256     1.0000 0.91638  0.86902  0.36004  Biso   1.000  H
  H257     1.0000 0.98458  0.31582  0.58381  Biso   1.000  H
  H258     1.0000 0.96187  0.21049  0.62923  Biso   1.000  H
  C213     1.0000 0.92717  0.33948  0.58146  Biso   1.000  C
  H259     1.0000 0.98988  0.32918  0.85149  Biso   1.000  H
  H260     1.0000 0.01831  0.24701  0.78905  Biso   1.000  H
  H261     1.0000 0.03249  0.31972  0.89306  Biso   1.000  H
  H262     1.0000 0.90550  0.29598  0.55380  Biso   1.000  H
  H263     1.0000 0.92989  0.40505  0.53193  Biso   1.000  H
  C214     1.0000 0.91823  0.38048  0.70072  Biso   1.000  C
  C215     1.0000 0.90315  0.29183  0.77833  Biso   1.000  C
  H264     1.0000 0.94138  0.41177  0.73399  Biso   1.000  H
  H265     1.0000 0.89959  0.44124  0.69569  Biso   1.000  H
  H266     1.0000 0.92128  0.22983  0.78093  Biso   1.000  H
  H267     1.0000 0.87949  0.26262  0.74640  Biso   1.000  H
  C216     1.0000 0.89563  0.33093  0.89775  Biso   1.000  C
  C217     1.0000 0.87769  0.24477  0.97000  Biso   1.000  C
  H268     1.0000 0.91968  0.35367  0.93237  Biso   1.000  H
  H269     1.0000 0.87918  0.39700  0.89516  Biso   1.000  H
  H270     1.0000 0.89129  0.17397  0.95935  Biso   1.000  H
  H271     1.0000 0.85168  0.23348  0.94360  Biso   1.000  H
  C218     1.0000 0.87657  0.27017  0.09319  Biso   1.000  C
  H272     1.0000 0.86309  0.34114  0.10451  Biso   1.000  H
  H273     1.0000 0.90258  0.28038  0.12052  Biso   1.000  H
  C219     1.0000 0.85790  0.18169  0.16217  Biso   1.000  C
  H274     1.0000 0.83068  0.18310  0.14633  Biso   1.000  H
  H275     1.0000 0.86760  0.10848  0.13786  Biso   1.000  H
  C220     1.0000 0.86339  0.19190  0.28478  Biso   1.000  C
  O44      1.0000 0.84489  0.10276  0.34035  Biso   1.000  O
  H276     1.0000 0.89047  0.19024  0.30255  Biso   1.000  H
  H277     1.0000 0.85308  0.26361  0.31118  Biso   1.000  H
  C221     1.0000 0.85198  0.09719  0.45483  Biso   1.000  C
  C222     1.0000 0.83351  0.99444  0.50210  Biso   1.000  C
  H278     1.0000 0.84198  0.16409  0.49246  Biso   1.000  H
  H279     1.0000 0.87940  0.09421  0.46824  Biso   1.000  H
  H280     1.0000 0.84509  0.92820  0.46916  Biso   1.000  H
  H281     1.0000 0.80668  0.99543  0.48408  Biso   1.000  H
  H282     1.0000 0.83679  0.99294  0.58364  Biso   1.000  H
