data_image0
_cell_length_a       7.4
_cell_length_b       24.448
_cell_length_c       14.265
_cell_angle_alpha    90
_cell_angle_beta     99.12
_cell_angle_gamma    90

_symmetry_space_group_name_H-M    "P 1"
_symmetry_int_tables_number       1

loop_
  _symmetry_equiv_pos_as_xyz
  'x, y, z'

loop_
  _atom_site_label
  _atom_site_occupancy
  _atom_site_fract_x
  _atom_site_fract_y
  _atom_site_fract_z
  _atom_site_thermal_displace_type
  _atom_site_B_iso_or_equiv
  _atom_site_type_symbol
  C1       1.0000 0.36113  0.67089  0.43402  Biso   1.000  C
  C2       1.0000 0.20731  0.64144  0.47151  Biso   1.000  C
  C3       1.0000 0.29335  0.72125  0.37630  Biso   1.000  C
  H1       1.0000 0.41893  0.64582  0.39412  Biso   1.000  H
  H2       1.0000 0.45408  0.68190  0.48748  Biso   1.000  H
  O1       1.0000 0.27569  0.58790  0.50204  Biso   1.000  O
  H3       1.0000 0.17379  0.66181  0.52632  Biso   1.000  H
  C4       1.0000 0.03808  0.63396  0.39618  Biso   1.000  C
  C5       1.0000 0.13841  0.70529  0.30040  Biso   1.000  C
  H4       1.0000 0.39417  0.73679  0.34669  Biso   1.000  H
  O2       1.0000 0.23442  0.76076  0.43948  Biso   1.000  O
  C6       1.0000 0.26300  0.57211  0.59583  Biso   1.000  C
  H5       1.0000 0.06105  0.60361  0.35372  Biso   1.000  H
  O3       1.0000 0.99175  0.68235  0.33966  Biso   1.000  O
  C7       1.0000 0.86815  0.62111  0.43799  Biso   1.000  C
  O4       1.0000 0.21022  0.66758  0.23998  Biso   1.000  O
  H6       1.0000 0.09434  0.73822  0.26319  Biso   1.000  H
  H7       1.0000 0.19927  0.78890  0.40938  Biso   1.000  H
  C8       1.0000 0.43469  0.54021  0.63409  Biso   1.000  C
  O5       1.0000 0.10212  0.54086  0.60001  Biso   1.000  O
  H8       1.0000 0.25894  0.60549  0.63473  Biso   1.000  H
  H9       1.0000 0.76244  0.62099  0.38702  Biso   1.000  H
  H10      1.0000 0.87963  0.58438  0.46583  Biso   1.000  H
  O6       1.0000 0.83573  0.65907  0.50878  Biso   1.000  O
  C9       1.0000 0.16807  0.67572  0.13831  Biso   1.000  C
  C10      1.0000 0.43441  0.48491  0.58674  Biso   1.000  C
  H11      1.0000 0.54230  0.56111  0.62053  Biso   1.000  H
  O7       1.0000 0.44518  0.53595  0.73520  Biso   1.000  O
  C11      1.0000 0.09356  0.48969  0.54769  Biso   1.000  C
  H12      1.0000 0.80728  0.68922  0.48379  Biso   1.000  H
  C12      1.0000 0.34493  0.66582  0.10018  Biso   1.000  C
  C13      1.0000 0.01850  0.63502  0.09769  Biso   1.000  C
  H13      1.0000 0.12537  0.71360  0.12418  Biso   1.000  H
  C14      1.0000 0.25519  0.45439  0.58709  Biso   1.000  C
  H14      1.0000 0.53569  0.46290  0.61968  Biso   1.000  H
  H15      1.0000 0.45471  0.48982  0.52092  Biso   1.000  H
  H16      1.0000 0.47088  0.50409  0.75209  Biso   1.000  H
  H17      1.0000 0.09872  0.49771  0.48010  Biso   1.000  H
  C15      1.0000 0.90750  0.46613  0.55571  Biso   1.000  C
  C16      1.0000 0.31245  0.66169  0.99297  Biso   1.000  C
  H18      1.0000 0.40117  0.63179  0.12723  Biso   1.000  H
  H19      1.0000 0.43025  0.69589  0.11978  Biso   1.000  H
  O8       1.0000 0.00016  0.63363  0.99567  Biso   1.000  O
  H20      1.0000 0.05338  0.59809  0.12297  Biso   1.000  H
  C17      1.0000 0.83255  0.64917  0.12112  Biso   1.000  C
  O9       1.0000 0.26589  0.40715  0.52745  Biso   1.000  O
  H21      1.0000 0.24502  0.44261  0.65241  Biso   1.000  H
  H22      1.0000 0.81361  0.49378  0.53590  Biso   1.000  H
  H23      1.0000 0.88330  0.43488  0.51233  Biso   1.000  H
  O10      1.0000 0.89391  0.44867  0.64922  Biso   1.000  O
  C18      1.0000 0.16340  0.62026  0.96116  Biso   1.000  C
  H24      1.0000 0.42680  0.64999  0.97096  Biso   1.000  H
  O11      1.0000 0.26053  0.71466  0.95484  Biso   1.000  O
  H25      1.0000 0.74054  0.62619  0.08271  Biso   1.000  H
  H26      1.0000 0.83028  0.64071  0.18801  Biso   1.000  H
  O12      1.0000 0.78432  0.70546  0.10437  Biso   1.000  O
  C19      1.0000 0.18904  0.35721  0.55280  Biso   1.000  C
  H27      1.0000 0.92369  0.47419  0.68699  Biso   1.000  H
  O13      1.0000 0.23135  0.56884  0.99425  Biso   1.000  O
  H28      1.0000 0.13855  0.61960  0.89087  Biso   1.000  H
  H29      1.0000 0.24892  0.71360  0.89606  Biso   1.000  H
  H30      1.0000 0.77468  0.71208  0.04672  Biso   1.000  H
  C20      1.0000 0.32857  0.31299  0.54463  Biso   1.000  C
  O14      1.0000 0.02182  0.34575  0.49423  Biso   1.000  O
  H31      1.0000 0.16837  0.35950  0.61961  Biso   1.000  H
  C21      1.0000 0.22835  0.52446  0.92737  Biso   1.000  C
  C22      1.0000 0.35814  0.30866  0.44282  Biso   1.000  C
  H32      1.0000 0.44550  0.32179  0.58589  Biso   1.000  H
  O15      1.0000 0.26049  0.26117  0.57169  Biso   1.000  O
  C23      1.0000 0.03315  0.34244  0.39419  Biso   1.000  C
  C24      1.0000 0.39831  0.49088  0.96571  Biso   1.000  C
  C25      1.0000 0.05444  0.49149  0.92431  Biso   1.000  C
  H33      1.0000 0.23788  0.53890  0.86347  Biso   1.000  H
  C26      1.0000 0.18100  0.30195  0.37523  Biso   1.000  C
  H34      1.0000 0.43750  0.27720  0.43629  Biso   1.000  H
  H35      1.0000 0.42077  0.34158  0.42578  Biso   1.000  H
  H36      1.0000 0.24883  0.26211  0.62863  Biso   1.000  H
  H37      1.0000 0.06397  0.37909  0.37168  Biso   1.000  H
  C27      1.0000 0.84235  0.32751  0.34690  Biso   1.000  C
  C28      1.0000 0.39931  0.43492  0.91991  Biso   1.000  C
  H38      1.0000 0.40471  0.48630  0.03443  Biso   1.000  H
  H39      1.0000 0.50753  0.51100  0.95477  Biso   1.000  H
  O16      1.0000 0.06926  0.43910  0.87859  Biso   1.000  O
  C29      1.0000 0.88705  0.51865  0.86915  Biso   1.000  C
  H40      1.0000 0.03277  0.48499  0.99006  Biso   1.000  H
  O17      1.0000 0.22257  0.31185  0.28172  Biso   1.000  O
  H41      1.0000 0.13532  0.26411  0.37921  Biso   1.000  H
  H42      1.0000 0.75516  0.35369  0.36628  Biso   1.000  H
  H43      1.0000 0.83545  0.33029  0.27789  Biso   1.000  H
  O18      1.0000 0.79079  0.27376  0.37012  Biso   1.000  O
  C30      1.0000 0.21734  0.40682  0.92098  Biso   1.000  C
  H44      1.0000 0.49699  0.41259  0.95697  Biso   1.000  H
  O19      1.0000 0.43371  0.43881  0.82463  Biso   1.000  O
  H45      1.0000 0.78136  0.49431  0.86780  Biso   1.000  H
  H46      1.0000 0.86142  0.55252  0.90160  Biso   1.000  H
  O20      1.0000 0.91169  0.53100  0.77465  Biso   1.000  O
  C31      1.0000 0.16233  0.27397  0.20931  Biso   1.000  C
  H47      1.0000 0.78123  0.27241  0.42727  Biso   1.000  H
  O21      1.0000 0.20332  0.39578  0.01661  Biso   1.000  O
  H48      1.0000 0.21613  0.37181  0.88605  Biso   1.000  H
  H49      1.0000 0.49903  0.41279  0.81327  Biso   1.000  H
  H50      1.0000 0.94917  0.56291  0.77216  Biso   1.000  H
  H51      1.0000 0.13692  0.23859  0.23849  Biso   1.000  H
  C32      1.0000 0.31653  0.26620  0.15229  Biso   1.000  C
  O22      1.0000 0.00072  0.29238  0.15094  Biso   1.000  O
  C33      1.0000 0.17154  0.34044  0.04352  Biso   1.000  C
  H52      1.0000 0.43004  0.25638  0.19560  Biso   1.000  H
  O23      1.0000 0.26976  0.22329  0.08456  Biso   1.000  O
  C34      1.0000 0.34762  0.31794  0.09968  Biso   1.000  C
  C35      1.0000 0.02088  0.34342  0.10373  Biso   1.000  C
  H53      1.0000 0.13246  0.31782  0.98637  Biso   1.000  H
  H54      1.0000 0.30221  0.19339  0.10941  Biso   1.000  H
  H55      1.0000 0.43475  0.31050  0.05623  Biso   1.000  H
  H56      1.0000 0.40213  0.34559  0.14541  Biso   1.000  H
  H57      1.0000 0.05221  0.37230  0.15229  Biso   1.000  H
  C36      1.0000 0.83584  0.35618  0.04743  Biso   1.000  C
  O24      1.0000 0.77835  0.31643  0.97558  Biso   1.000  O
  H58      1.0000 0.74565  0.35798  0.09059  Biso   1.000  H
  H59      1.0000 0.84034  0.39210  0.01747  Biso   1.000  H
  H60      1.0000 0.78845  0.28530  0.99936  Biso   1.000  H
  O25      1.0000 0.73966  0.76117  0.42834  Biso   1.000  O
  C37      1.0000 0.67157  0.81303  0.45539  Biso   1.000  C
  H61      1.0000 0.75118  0.76211  0.37140  Biso   1.000  H
  C38      1.0000 0.81097  0.85721  0.44722  Biso   1.000  C
  H62      1.0000 0.55462  0.82179  0.41407  Biso   1.000  H
  C39      1.0000 0.64187  0.80866  0.55720  Biso   1.000  C
  O26      1.0000 0.73426  0.90715  0.47257  Biso   1.000  O
  H63      1.0000 0.83164  0.85950  0.38041  Biso   1.000  H
  O27      1.0000 0.97831  0.84575  0.50573  Biso   1.000  O
  H64      1.0000 0.56252  0.77720  0.56373  Biso   1.000  H
  H65      1.0000 0.57922  0.84162  0.57417  Biso   1.000  H
  C40      1.0000 0.81915  0.80195  0.62479  Biso   1.000  C
  C41      1.0000 0.74482  0.95439  0.41293  Biso   1.000  C
  C42      1.0000 0.96687  0.84244  0.60584  Biso   1.000  C
  O28      1.0000 0.77758  0.81185  0.71830  Biso   1.000  O
  H66      1.0000 0.86469  0.76411  0.62082  Biso   1.000  H
  C43      1.0000 0.56560  0.98491  0.41329  Biso   1.000  C
  H67      1.0000 0.75500  0.94261  0.34761  Biso   1.000  H
  C44      1.0000 0.90645  0.98973  0.45234  Biso   1.000  C
  H68      1.0000 0.93616  0.87909  0.62827  Biso   1.000  H
  C45      1.0000 0.15780  0.82751  0.65312  Biso   1.000  C
  C46      1.0000 0.83782  0.77397  0.79072  Biso   1.000  C
  H69      1.0000 0.46443  0.96290  0.38027  Biso   1.000  H
  H70      1.0000 0.54544  0.98982  0.47910  Biso   1.000  H
  C47      1.0000 0.56546  0.04021  0.36593  Biso   1.000  C
  H71      1.0000 0.90129  0.99771  0.51993  Biso   1.000  H
  O29      1.0000 0.89790  0.04086  0.40001  Biso   1.000  O
  C48      1.0000 0.09251  0.96613  0.44431  Biso   1.000  C
  H72      1.0000 0.24497  0.85369  0.63367  Biso   1.000  H
  H73      1.0000 0.16456  0.83029  0.72213  Biso   1.000  H
  O30      1.0000 0.20936  0.77376  0.62990  Biso   1.000  O
  H74      1.0000 0.86309  0.73859  0.76154  Biso   1.000  H
  C49      1.0000 0.68348  0.76620  0.84773  Biso   1.000  C
  O31      1.0000 0.99930  0.79238  0.84908  Biso   1.000  O
  C50      1.0000 0.73715  0.07211  0.40420  Biso   1.000  C
  H75      1.0000 0.45784  0.06111  0.37949  Biso   1.000  H
  O32      1.0000 0.55484  0.03595  0.26483  Biso   1.000  O
  H76      1.0000 0.18641  0.99382  0.46412  Biso   1.000  H
  H77      1.0000 0.11672  0.93492  0.48769  Biso   1.000  H
  O33      1.0000 0.10611  0.94867  0.35081  Biso   1.000  O
  H78      1.0000 0.21876  0.77241  0.57268  Biso   1.000  H
  H79      1.0000 0.56998  0.75642  0.80442  Biso   1.000  H
  O34      1.0000 0.73039  0.72329  0.91546  Biso   1.000  O
  C51      1.0000 0.65237  0.81794  0.90027  Biso   1.000  C
  C52      1.0000 0.97926  0.84346  0.89629  Biso   1.000  C
  O35      1.0000 0.72446  0.08786  0.49799  Biso   1.000  O
  H80      1.0000 0.74107  0.10549  0.36529  Biso   1.000  H
  H81      1.0000 0.52927  0.00409  0.24793  Biso   1.000  H
  H82      1.0000 0.07646  0.97419  0.31304  Biso   1.000  H
  H83      1.0000 0.69793  0.69339  0.89061  Biso   1.000  H
  H84      1.0000 0.56526  0.81050  0.94379  Biso   1.000  H
  H85      1.0000 0.59802  0.84559  0.85462  Biso   1.000  H
  C53      1.0000 0.82847  0.84044  0.95650  Biso   1.000  C
  H86      1.0000 0.94780  0.87230  0.84773  Biso   1.000  H
  C54      1.0000 0.16417  0.85618  0.95260  Biso   1.000  C
  C55      1.0000 0.79284  0.14144  0.52852  Biso   1.000  C
  O36      1.0000 0.79669  0.89578  0.98341  Biso   1.000  O
  H87      1.0000 0.86756  0.81782  0.01366  Biso   1.000  H
  H88      1.0000 0.25449  0.85798  0.90943  Biso   1.000  H
  H89      1.0000 0.15965  0.89210  0.98249  Biso   1.000  H
  O37      1.0000 0.22178  0.81643  0.02438  Biso   1.000  O
  C56      1.0000 0.63889  0.17089  0.56601  Biso   1.000  C
  H90      1.0000 0.82636  0.16181  0.47371  Biso   1.000  H
  C57      1.0000 0.96191  0.13396  0.60378  Biso   1.000  C
  C58      1.0000 0.78281  0.90686  0.07905  Biso   1.000  C
  H91      1.0000 0.21154  0.78530  0.00059  Biso   1.000  H
  C59      1.0000 0.70679  0.22125  0.62373  Biso   1.000  C
  H92      1.0000 0.58108  0.14582  0.60591  Biso   1.000  H
  H93      1.0000 0.54604  0.18190  0.51247  Biso   1.000  H
  H94      1.0000 0.93896  0.10361  0.64631  Biso   1.000  H
  O38      1.0000 0.00839  0.18235  0.66036  Biso   1.000  O
  C60      1.0000 0.13200  0.12111  0.56203  Biso   1.000  C
  H95      1.0000 0.78400  0.87181  0.11391  Biso   1.000  H
  C61      1.0000 0.60083  0.93492  0.08011  Biso   1.000  C
  O39      1.0000 0.93076  0.93910  0.12143  Biso   1.000  O
  C62      1.0000 0.86161  0.20529  0.69963  Biso   1.000  C
  H96      1.0000 0.60584  0.23679  0.65333  Biso   1.000  H
  O40      1.0000 0.76559  0.26076  0.56054  Biso   1.000  O
  H97      1.0000 0.23757  0.12099  0.61301  Biso   1.000  H
  H98      1.0000 0.12038  0.08438  0.53420  Biso   1.000  H
  O41      1.0000 0.16429  0.15907  0.49124  Biso   1.000  O
  H99      1.0000 0.50316  0.91259  0.04305  Biso   1.000  H
  O42      1.0000 0.56628  0.93881  0.17532  Biso   1.000  O
  C63      1.0000 0.60171  0.99088  0.03432  Biso   1.000  C
  C64      1.0000 0.94571  0.99149  0.07571  Biso   1.000  C
  O43      1.0000 0.78991  0.16758  0.75998  Biso   1.000  O
  H100     1.0000 0.90581  0.23822  0.73683  Biso   1.000  H
  H101     1.0000 0.80072  0.28890  0.59057  Biso   1.000  H
  H102     1.0000 0.19273  0.18922  0.51624  Biso   1.000  H
  H103     1.0000 0.50099  0.91279  0.18675  Biso   1.000  H
  H104     1.0000 0.59544  0.98630  0.96559  Biso   1.000  H
  H105     1.0000 0.49248  0.01100  0.04525  Biso   1.000  H
  C65      1.0000 0.77166  0.02446  0.07266  Biso   1.000  C
  H106     1.0000 0.96722  0.98499  0.00989  Biso   1.000  H
  C66      1.0000 0.11295  0.01865  0.13080  Biso   1.000  C
  C67      1.0000 0.83194  0.17572  0.86172  Biso   1.000  C
  H107     1.0000 0.76213  0.03890  0.13655  Biso   1.000  H
  O44      1.0000 0.76880  0.06884  0.00577  Biso   1.000  O
  H108     1.0000 0.21865  0.99431  0.13222  Biso   1.000  H
  H109     1.0000 0.13873  0.05252  0.09843  Biso   1.000  H
  O45      1.0000 0.08844  0.03100  0.22530  Biso   1.000  O
  C68      1.0000 0.65506  0.16582  0.89977  Biso   1.000  C
  H110     1.0000 0.87462  0.21360  0.87577  Biso   1.000  H
  C69      1.0000 0.98151  0.13502  0.90233  Biso   1.000  C
  C70      1.0000 0.83659  0.12026  0.03879  Biso   1.000  C
  H111     1.0000 0.05098  0.06291  0.22786  Biso   1.000  H
  H112     1.0000 0.59884  0.13179  0.87279  Biso   1.000  H
  H113     1.0000 0.56988  0.19589  0.88018  Biso   1.000  H
  C71      1.0000 0.68770  0.16169  0.00705  Biso   1.000  C
  H114     1.0000 0.94661  0.09809  0.87698  Biso   1.000  H
  C72      1.0000 0.16746  0.14917  0.87890  Biso   1.000  C
  O46      1.0000 0.99985  0.13363  0.00435  Biso   1.000  O
  H115     1.0000 0.86160  0.11960  0.10915  Biso   1.000  H
  H116     1.0000 0.57332  0.14999  0.02899  Biso   1.000  H
  O47      1.0000 0.73962  0.21466  0.04518  Biso   1.000  O
  H117     1.0000 0.25960  0.12619  0.91731  Biso   1.000  H
  H118     1.0000 0.16973  0.14071  0.81202  Biso   1.000  H
  O48      1.0000 0.21583  0.20546  0.89565  Biso   1.000  O
  H119     1.0000 0.75121  0.21360  0.10390  Biso   1.000  H
  H120     1.0000 0.22533  0.21208  0.95331  Biso   1.000  H
  Ne1      1.0000 0.13971  0.48945  0.25295  Biso   1.000  Ne
  He1      1.0000 0.18110  0.48988  0.25528  Biso   1.000  He
  He2      1.0000 0.03629  0.49000  0.24463  Biso   1.000  He
  Ar1      1.0000 0.13986  0.48966  0.25313  Biso   1.000  Ar
  Ne2      1.0000 0.86037  0.98945  0.74706  Biso   1.000  Ne
  He3      1.0000 0.96017  0.98999  0.75510  Biso   1.000  He
  He4      1.0000 0.49895  0.96532  0.71792  Biso   1.000  He
  Ar2      1.0000 0.72639  0.98958  0.73711  Biso   1.000  Ar
