data_image0
_cell_length_a       10.964
_cell_length_b       32.032
_cell_length_c       11.285
_cell_angle_alpha    90
_cell_angle_beta     117.72
_cell_angle_gamma    90

_symmetry_space_group_name_H-M    "P 1"
_symmetry_int_tables_number       1

loop_
  _symmetry_equiv_pos_as_xyz
  'x, y, z'

loop_
  _atom_site_label
  _atom_site_occupancy
  _atom_site_fract_x
  _atom_site_fract_y
  _atom_site_fract_z
  _atom_site_thermal_displace_type
  _atom_site_B_iso_or_equiv
  _atom_site_type_symbol
  C1       1.0000 0.66700  0.40200  0.34595  Biso   1.000  C
  C2       1.0000 0.58402  0.39251  0.20901  Biso   1.000  C
  C3       1.0000 0.71002  0.37250  0.43905  Biso   1.000  C
  H1       1.0000 0.68596  0.43129  0.37298  Biso   1.000  H
  C4       1.0000 0.55098  0.35680  0.16497  Biso   1.000  C
  H2       1.0000 0.56550  0.41771  0.15205  Biso   1.000  H
  C5       1.0000 0.67402  0.33429  0.39300  Biso   1.000  C
  C6       1.0000 0.78596  0.38299  0.57899  Biso   1.000  C
  C7       1.0000 0.58506  0.32689  0.24205  Biso   1.000  C
  C8       1.0000 0.45602  0.34722  0.01902  Biso   1.000  C
  H3       1.0000 0.69698  0.31241  0.45486  Biso   1.000  H
  N1       1.0000 0.92952  0.39439  0.61823  Biso   1.000  N
  H4       1.0000 0.74224  0.40859  0.58940  Biso   1.000  H
  H5       1.0000 0.78084  0.36220  0.62774  Biso   1.000  H
  H6       1.0000 0.55449  0.30189  0.20411  Biso   1.000  H
  H7       1.0000 0.38098  0.33360  0.00801  Biso   1.000  H
  N2       1.0000 0.51699  0.32311  0.95395  Biso   1.000  N
  H8       1.0000 0.43051  0.37391  0.96687  Biso   1.000  H
  H9       1.0000 0.97507  0.38561  0.56497  Biso   1.000  H
  C9       1.0000 0.00699  0.41240  0.73204  Biso   1.000  C
  C10      1.0000 0.43803  0.30551  0.83703  Biso   1.000  C
  H10      1.0000 0.61760  0.31921  0.99570  Biso   1.000  H
  O1       1.0000 0.97089  0.41999  0.82314  Biso   1.000  O
  C11      1.0000 0.14995  0.42339  0.76298  Biso   1.000  C
  O2       1.0000 0.31147  0.30270  0.78929  Biso   1.000  O
  C12      1.0000 0.51102  0.27729  0.77898  Biso   1.000  C
  C13      1.0000 0.21598  0.40300  0.69801  Biso   1.000  C
  C14      1.0000 0.21501  0.45520  0.84496  Biso   1.000  C
  C15      1.0000 0.64601  0.29171  0.79900  Biso   1.000  C
  C16      1.0000 0.45198  0.24491  0.70500  Biso   1.000  C
  C17      1.0000 0.35105  0.41440  0.72504  Biso   1.000  C
  H11      1.0000 0.17800  0.37900  0.64726  Biso   1.000  H
  C18      1.0000 0.35603  0.47009  0.88500  Biso   1.000  C
  H12      1.0000 0.15984  0.47290  0.87469  Biso   1.000  H
  C19      1.0000 0.70600  0.26470  0.73703  Biso   1.000  C
  H13      1.0000 0.70358  0.31490  0.85886  Biso   1.000  H
  C20      1.0000 0.51496  0.21610  0.65595  Biso   1.000  C
  H14      1.0000 0.34925  0.24279  0.66266  Biso   1.000  H
  C21      1.0000 0.42394  0.39251  0.65897  Biso   1.000  C
  C22      1.0000 0.41806  0.44640  0.82404  Biso   1.000  C
  H15      1.0000 0.39646  0.49519  0.94086  Biso   1.000  H
  C23      1.0000 0.64500  0.22999  0.66696  Biso   1.000  C
  C24      1.0000 0.85794  0.27301  0.76997  Biso   1.000  C
  H16      1.0000 0.48334  0.19050  0.62192  Biso   1.000  H
  O3       1.0000 0.54787  0.39139  0.70902  Biso   1.000  O
  N3       1.0000 0.34505  0.37341  0.54105  Biso   1.000  N
  H17      1.0000 0.51547  0.44571  0.86938  Biso   1.000  H
  H18      1.0000 0.69864  0.21550  0.63783  Biso   1.000  H
  O4       1.0000 0.88726  0.27060  0.68128  Biso   1.000  O
  N4       1.0000 0.93399  0.29099  0.88498  Biso   1.000  N
  C25      1.0000 0.41003  0.34840  0.47198  Biso   1.000  C
  H19      1.0000 0.24616  0.37531  0.50501  Biso   1.000  H
  H20      1.0000 0.89986  0.29549  0.95125  Biso   1.000  H
  C26      1.0000 0.07503  0.30800  0.92202  Biso   1.000  C
  C27      1.0000 0.31106  0.34110  0.32603  Biso   1.000  C
  H21      1.0000 0.47683  0.36460  0.46768  Biso   1.000  H
  H22      1.0000 0.43017  0.32340  0.50682  Biso   1.000  H
  H23      1.0000 0.06693  0.33161  0.86737  Biso   1.000  H
  H24      1.0000 0.12490  0.28681  0.90901  Biso   1.000  H
  C28      1.0000 0.15697  0.31981  0.06897  Biso   1.000  C
  C29      1.0000 0.26099  0.37069  0.22203  Biso   1.000  C
  C30      1.0000 0.27899  0.29929  0.30000  Biso   1.000  C
  C31      1.0000 0.18496  0.36030  0.08799  Biso   1.000  C
  C32      1.0000 0.19397  0.28699  0.15996  Biso   1.000  C
  H25      1.0000 0.28342  0.40200  0.25116  Biso   1.000  H
  H26      1.0000 0.31693  0.28141  0.37298  Biso   1.000  H
  H27      1.0000 0.15753  0.38349  0.01812  Biso   1.000  H
  H28      1.0000 0.17292  0.25821  0.13123  Biso   1.000  H
  C33      1.0000 0.32601  0.83429  0.60702  Biso   1.000  C
  C34      1.0000 0.29001  0.87250  0.56097  Biso   1.000  C
  C35      1.0000 0.41497  0.82689  0.75797  Biso   1.000  C
  H29      1.0000 0.30300  0.81241  0.54505  Biso   1.000  H
  C36      1.0000 0.21398  0.88299  0.42103  Biso   1.000  C
  C37      1.0000 0.33298  0.90200  0.65396  Biso   1.000  C
  C38      1.0000 0.44905  0.85680  0.83505  Biso   1.000  C
  H30      1.0000 0.44554  0.80189  0.79591  Biso   1.000  H
  N5       1.0000 0.07051  0.89439  0.38179  Biso   1.000  N
  H31      1.0000 0.25779  0.90859  0.41062  Biso   1.000  H
  H32      1.0000 0.21919  0.86220  0.37228  Biso   1.000  H
  C39      1.0000 0.41601  0.89251  0.79100  Biso   1.000  C
  H33      1.0000 0.31398  0.93129  0.62704  Biso   1.000  H
  C40      1.0000 0.54401  0.84722  0.98100  Biso   1.000  C
  H34      1.0000 0.02496  0.88561  0.43504  Biso   1.000  H
  C41      1.0000 0.99294  0.91240  0.26797  Biso   1.000  C
  H35      1.0000 0.43448  0.91771  0.84786  Biso   1.000  H
  H36      1.0000 0.61896  0.83360  0.99201  Biso   1.000  H
  N6       1.0000 0.48299  0.82311  0.04596  Biso   1.000  N
  H37      1.0000 0.56947  0.87391  0.03305  Biso   1.000  H
  O5       1.0000 0.02905  0.91999  0.17688  Biso   1.000  O
  C42      1.0000 0.84999  0.92339  0.23704  Biso   1.000  C
  C43      1.0000 0.56200  0.80551  0.16298  Biso   1.000  C
  H38      1.0000 0.38243  0.81921  0.00432  Biso   1.000  H
  C44      1.0000 0.78405  0.90300  0.30201  Biso   1.000  C
  C45      1.0000 0.78497  0.95520  0.15496  Biso   1.000  C
  O6       1.0000 0.68847  0.80270  0.21073  Biso   1.000  O
  C46      1.0000 0.48901  0.77729  0.22104  Biso   1.000  C
  C47      1.0000 0.64898  0.91440  0.27498  Biso   1.000  C
  H39      1.0000 0.82198  0.87900  0.35266  Biso   1.000  H
  C48      1.0000 0.64399  0.97009  0.11502  Biso   1.000  C
  H40      1.0000 0.84019  0.97290  0.12533  Biso   1.000  H
  C49      1.0000 0.35402  0.79171  0.20102  Biso   1.000  C
  C50      1.0000 0.54805  0.74491  0.29502  Biso   1.000  C
  C51      1.0000 0.57600  0.89251  0.34105  Biso   1.000  C
  C52      1.0000 0.58197  0.94640  0.17598  Biso   1.000  C
  H41      1.0000 0.60352  0.99519  0.05906  Biso   1.000  H
  C53      1.0000 0.29403  0.76470  0.26298  Biso   1.000  C
  H42      1.0000 0.29640  0.81490  0.14106  Biso   1.000  H
  C54      1.0000 0.48502  0.71610  0.34397  Biso   1.000  C
  H43      1.0000 0.65064  0.74279  0.33726  Biso   1.000  H
  O7       1.0000 0.45207  0.89139  0.29100  Biso   1.000  O
  N7       1.0000 0.65498  0.87341  0.45897  Biso   1.000  N
  H44      1.0000 0.48456  0.94571  0.13063  Biso   1.000  H
  C55      1.0000 0.35498  0.72999  0.33295  Biso   1.000  C
  C56      1.0000 0.14195  0.77301  0.22995  Biso   1.000  C
  H45      1.0000 0.51669  0.69050  0.37810  Biso   1.000  H
  C57      1.0000 0.59000  0.84840  0.52804  Biso   1.000  C
  H46      1.0000 0.75377  0.87531  0.49500  Biso   1.000  H
  H47      1.0000 0.30139  0.71550  0.36218  Biso   1.000  H
  O8       1.0000 0.11268  0.77060  0.31874  Biso   1.000  O
  N8       1.0000 0.06604  0.79099  0.11503  Biso   1.000  N
  C58      1.0000 0.68897  0.84110  0.67399  Biso   1.000  C
  H48      1.0000 0.52320  0.86460  0.53234  Biso   1.000  H
  H49      1.0000 0.56977  0.82340  0.49320  Biso   1.000  H
  C59      1.0000 0.92500  0.80800  0.07800  Biso   1.000  C
  H50      1.0000 0.10012  0.79549  0.04867  Biso   1.000  H
  C60      1.0000 0.73895  0.87069  0.77799  Biso   1.000  C
  C61      1.0000 0.72104  0.79929  0.70001  Biso   1.000  C
  C62      1.0000 0.84306  0.81981  0.93105  Biso   1.000  C
  H51      1.0000 0.93306  0.83161  0.13255  Biso   1.000  H
  H52      1.0000 0.87513  0.78681  0.09101  Biso   1.000  H
  C63      1.0000 0.81498  0.86030  0.91203  Biso   1.000  C
  H53      1.0000 0.71657  0.90200  0.74876  Biso   1.000  H
  C64      1.0000 0.80601  0.78699  0.83995  Biso   1.000  C
  H54      1.0000 0.68310  0.78141  0.62704  Biso   1.000  H
  H55      1.0000 0.84250  0.88349  0.98190  Biso   1.000  H
  H56      1.0000 0.82711  0.75821  0.86878  Biso   1.000  H
