data_image0
_cell_length_a       10.362
_cell_length_b       12.552
_cell_length_c       17.85
_cell_angle_alpha    70.79
_cell_angle_beta     86.49
_cell_angle_gamma    66.81

_symmetry_space_group_name_H-M    "P 1"
_symmetry_int_tables_number       1

loop_
  _symmetry_equiv_pos_as_xyz
  'x, y, z'

loop_
  _atom_site_label
  _atom_site_occupancy
  _atom_site_fract_x
  _atom_site_fract_y
  _atom_site_fract_z
  _atom_site_thermal_displace_type
  _atom_site_B_iso_or_equiv
  _atom_site_type_symbol
  C1       1.0000 0.58961  0.52337  0.41503  Biso   1.000  C
  C2       1.0000 0.55165  0.46190  0.37402  Biso   1.000  C
  C3       1.0000 0.72037  0.46201  0.45841  Biso   1.000  C
  C4       1.0000 0.49184  0.65139  0.41348  Biso   1.000  C
  O1       1.0000 0.42192  0.52114  0.33052  Biso   1.000  O
  C5       1.0000 0.64093  0.34475  0.37581  Biso   1.000  C
  C6       1.0000 0.81091  0.34521  0.46037  Biso   1.000  C
  H1       1.0000 0.74833  0.50153  0.48763  Biso   1.000  H
  H2       1.0000 0.39492  0.66718  0.39640  Biso   1.000  H
  H3       1.0000 0.49106  0.65514  0.46799  Biso   1.000  H
  C7       1.0000 0.53381  0.75144  0.35819  Biso   1.000  C
  H4       1.0000 0.41372  0.59111  0.30041  Biso   1.000  H
  C8       1.0000 0.77192  0.28476  0.41806  Biso   1.000  C
  H5       1.0000 0.61178  0.30469  0.34748  Biso   1.000  H
  O2       1.0000 0.94007  0.28283  0.50239  Biso   1.000  O
  C9       1.0000 0.50009  0.79696  0.27625  Biso   1.000  C
  C10      1.0000 0.61102  0.79870  0.38872  Biso   1.000  C
  C11      1.0000 0.87329  0.16010  0.41509  Biso   1.000  C
  H6       1.0000 0.95168  0.32474  0.52762  Biso   1.000  H
  O3       1.0000 0.42582  0.75499  0.23965  Biso   1.000  O
  C12      1.0000 0.54181  0.88806  0.22810  Biso   1.000  C
  C13      1.0000 0.65505  0.88811  0.34100  Biso   1.000  C
  H7       1.0000 0.63469  0.76852  0.44448  Biso   1.000  H
  C14      1.0000 0.97851  0.17540  0.35385  Biso   1.000  C
  H8       1.0000 0.82004  0.11804  0.40110  Biso   1.000  H
  H9       1.0000 0.92395  0.10853  0.46811  Biso   1.000  H
  H10      1.0000 0.34427  0.80915  0.22447  Biso   1.000  H
  H11      1.0000 0.51742  0.91873  0.17240  Biso   1.000  H
  C15      1.0000 0.61883  0.93559  0.25929  Biso   1.000  C
  O4       1.0000 0.72923  0.92961  0.37783  Biso   1.000  O
  C16      1.0000 0.93762  0.21718  0.27262  Biso   1.000  C
  C17      1.0000 0.11412  0.15495  0.37664  Biso   1.000  C
  C18      1.0000 0.66628  0.03253  0.20448  Biso   1.000  C
  H12      1.0000 0.79759  0.93554  0.35159  Biso   1.000  H
  O5       1.0000 0.80348  0.23462  0.25316  Biso   1.000  O
  C19      1.0000 0.03141  0.23957  0.21632  Biso   1.000  C
  H13      1.0000 0.14417  0.12430  0.43163  Biso   1.000  H
  C20      1.0000 0.20715  0.17859  0.32011  Biso   1.000  C
  C21      1.0000 0.79670  0.97558  0.16431  Biso   1.000  C
  H14      1.0000 0.58916  0.09284  0.16330  Biso   1.000  H
  H15      1.0000 0.68692  0.07706  0.23560  Biso   1.000  H
  C22      1.0000 0.75397  0.28700  0.17187  Biso   1.000  C
  C23      1.0000 0.16637  0.22162  0.23947  Biso   1.000  C
  H16      1.0000 0.00283  0.26756  0.16127  Biso   1.000  H
  O6       1.0000 0.34014  0.16739  0.33957  Biso   1.000  O
  C24      1.0000 0.93194  0.92490  0.20192  Biso   1.000  C
  C25      1.0000 0.78130  0.96811  0.08968  Biso   1.000  C
  H17      1.0000 0.65374  0.30337  0.16699  Biso   1.000  H
  H18      1.0000 0.76700  0.36421  0.14842  Biso   1.000  H
  H19      1.0000 0.80698  0.22982  0.14378  Biso   1.000  H
  C26      1.0000 0.26365  0.25343  0.17698  Biso   1.000  C
  C27      1.0000 0.39930  0.09889  0.41883  Biso   1.000  C
  O7       1.0000 0.94270  0.93825  0.27470  Biso   1.000  O
  C28      1.0000 0.04739  0.86392  0.16639  Biso   1.000  C
  C29      1.0000 0.89775  0.90829  0.05410  Biso   1.000  C
  H20      1.0000 0.69021  0.00440  0.06272  Biso   1.000  H
  C30      1.0000 0.23652  0.38909  0.14824  Biso   1.000  C
  H21      1.0000 0.36251  0.20488  0.19948  Biso   1.000  H
  H22      1.0000 0.25122  0.22997  0.13098  Biso   1.000  H
  H23      1.0000 0.34540  0.14207  0.45460  Biso   1.000  H
  H24      1.0000 0.39586  0.01754  0.43413  Biso   1.000  H
  H25      1.0000 0.49732  0.08942  0.42258  Biso   1.000  H
  C31      1.0000 0.08084  0.89327  0.31219  Biso   1.000  C
  C32      1.0000 0.03149  0.85322  0.09284  Biso   1.000  C
  H26      1.0000 0.13877  0.82918  0.19269  Biso   1.000  H
  O8       1.0000 0.88851  0.89866  0.97929  Biso   1.000  O
  C33      1.0000 0.14269  0.46903  0.08248  Biso   1.000  C
  C34      1.0000 0.30163  0.43855  0.18561  Biso   1.000  C
  H27      1.0000 0.07378  0.90792  0.36319  Biso   1.000  H
  H28      1.0000 0.12841  0.80487  0.32130  Biso   1.000  H
  H29      1.0000 0.13505  0.93595  0.27768  Biso   1.000  H
  C35      1.0000 0.15871  0.77755  0.05874  Biso   1.000  C
  C36      1.0000 0.75538  0.96197  0.93412  Biso   1.000  C
  C37      1.0000 0.11569  0.59344  0.05302  Biso   1.000  C
  H30      1.0000 0.09541  0.43768  0.05677  Biso   1.000  H
  O9       1.0000 0.39568  0.36809  0.25215  Biso   1.000  O
  C38      1.0000 0.27642  0.56260  0.15550  Biso   1.000  C
  C39      1.0000 0.18422  0.64240  0.08867  Biso   1.000  C
  H31      1.0000 0.14401  0.80905  0.99988  Biso   1.000  H
  H32      1.0000 0.24312  0.78707  0.07361  Biso   1.000  H
  H33      1.0000 0.68918  0.92661  0.96132  Biso   1.000  H
  H34      1.0000 0.76663  0.95374  0.88110  Biso   1.000  H
  H35      1.0000 0.71874  0.04925  0.92888  Biso   1.000  H
  O10      1.0000 0.02308  0.66326  0.98673  Biso   1.000  O
  H36      1.0000 0.38243  0.30357  0.27518  Biso   1.000  H
  H37      1.0000 0.32334  0.59407  0.18133  Biso   1.000  H
  H38      1.0000 0.98934  0.73720  0.98417  Biso   1.000  H
  C40      1.0000 0.41048  0.47653  0.58499  Biso   1.000  C
  C41      1.0000 0.50825  0.34850  0.58654  Biso   1.000  C
  C42      1.0000 0.44848  0.53791  0.62599  Biso   1.000  C
  C43      1.0000 0.27963  0.53788  0.54160  Biso   1.000  C
  C44      1.0000 0.46628  0.24845  0.64182  Biso   1.000  C
  H39      1.0000 0.60518  0.33272  0.60361  Biso   1.000  H
  H40      1.0000 0.50903  0.34476  0.53202  Biso   1.000  H
  O11      1.0000 0.57808  0.47875  0.66949  Biso   1.000  O
  C45      1.0000 0.35916  0.65514  0.62421  Biso   1.000  C
  H41      1.0000 0.25176  0.49836  0.51239  Biso   1.000  H
  C46      1.0000 0.18919  0.65468  0.53964  Biso   1.000  C
  C47      1.0000 0.38907  0.20120  0.61129  Biso   1.000  C
  C48      1.0000 0.50000  0.20293  0.72377  Biso   1.000  C
  H42      1.0000 0.58631  0.40869  0.69961  Biso   1.000  H
  C49      1.0000 0.22817  0.71513  0.58195  Biso   1.000  C
  H43      1.0000 0.38821  0.69520  0.65253  Biso   1.000  H
  O12      1.0000 0.05996  0.71698  0.49763  Biso   1.000  O
  C50      1.0000 0.34504  0.11178  0.65902  Biso   1.000  C
  H44      1.0000 0.36544  0.23129  0.55553  Biso   1.000  H
  C51      1.0000 0.45828  0.11183  0.77191  Biso   1.000  C
  O13      1.0000 0.57417  0.24490  0.76037  Biso   1.000  O
  C52      1.0000 0.12679  0.83983  0.58487  Biso   1.000  C
  H45      1.0000 0.04832  0.67515  0.47239  Biso   1.000  H
  O14      1.0000 0.27086  0.07028  0.62218  Biso   1.000  O
  C53      1.0000 0.38127  0.06430  0.74073  Biso   1.000  C
  H46      1.0000 0.48271  0.08108  0.82761  Biso   1.000  H
  H47      1.0000 0.65586  0.19069  0.77548  Biso   1.000  H
  C54      1.0000 0.02158  0.82449  0.64616  Biso   1.000  C
  H48      1.0000 0.18005  0.88185  0.59891  Biso   1.000  H
  H49      1.0000 0.07614  0.89137  0.53190  Biso   1.000  H
  H50      1.0000 0.20240  0.06435  0.64843  Biso   1.000  H
  C55      1.0000 0.33385  0.96727  0.79554  Biso   1.000  C
  C56      1.0000 0.06251  0.78263  0.72740  Biso   1.000  C
  C57      1.0000 0.88597  0.84494  0.62337  Biso   1.000  C
  C58      1.0000 0.20339  0.02431  0.83571  Biso   1.000  C
  H51      1.0000 0.41093  0.90705  0.83672  Biso   1.000  H
  H52      1.0000 0.31317  0.92284  0.76441  Biso   1.000  H
  O15      1.0000 0.19651  0.76528  0.74686  Biso   1.000  O
  C59      1.0000 0.96872  0.76024  0.78369  Biso   1.000  C
  H53      1.0000 0.85596  0.87550  0.56838  Biso   1.000  H
  C60      1.0000 0.79299  0.82122  0.67991  Biso   1.000  C
  C61      1.0000 0.06815  0.07499  0.79809  Biso   1.000  C
  C62      1.0000 0.21883  0.03169  0.91033  Biso   1.000  C
  C63      1.0000 0.24612  0.71290  0.82815  Biso   1.000  C
  C64      1.0000 0.83372  0.77827  0.76054  Biso   1.000  C
  H54      1.0000 0.99730  0.73228  0.83868  Biso   1.000  H
  O16      1.0000 0.65985  0.83250  0.66045  Biso   1.000  O
  O17      1.0000 0.05743  0.06155  0.72531  Biso   1.000  O
  C65      1.0000 0.95265  0.13589  0.83362  Biso   1.000  C
  C66      1.0000 0.10234  0.09161  0.94592  Biso   1.000  C
  H55      1.0000 0.30988  0.99550  0.93729  Biso   1.000  H
  H56      1.0000 0.34635  0.69652  0.83303  Biso   1.000  H
  H57      1.0000 0.23309  0.63569  0.85159  Biso   1.000  H
  H58      1.0000 0.19311  0.77007  0.85624  Biso   1.000  H
  C67      1.0000 0.73648  0.74638  0.82303  Biso   1.000  C
  C68      1.0000 0.60079  0.90101  0.58118  Biso   1.000  C
  C69      1.0000 0.91925  0.10662  0.68782  Biso   1.000  C
  C70      1.0000 0.96860  0.14668  0.90718  Biso   1.000  C
  H59      1.0000 0.86132  0.17071  0.80732  Biso   1.000  H
  O18      1.0000 0.11157  0.10126  0.02066  Biso   1.000  O
  C71      1.0000 0.76347  0.61081  0.85177  Biso   1.000  C
  H60      1.0000 0.63758  0.79502  0.80053  Biso   1.000  H
  H61      1.0000 0.74887  0.76992  0.86903  Biso   1.000  H
  H62      1.0000 0.65470  0.85782  0.54541  Biso   1.000  H
  H63      1.0000 0.60414  0.98235  0.56589  Biso   1.000  H
  H64      1.0000 0.50282  0.91038  0.57743  Biso   1.000  H
  H65      1.0000 0.92635  0.09189  0.63682  Biso   1.000  H
  H66      1.0000 0.87168  0.19502  0.67872  Biso   1.000  H
  H67      1.0000 0.86503  0.06398  0.72228  Biso   1.000  H
  C72      1.0000 0.84142  0.22226  0.94128  Biso   1.000  C
  C73      1.0000 0.24471  0.03792  0.06589  Biso   1.000  C
  C74      1.0000 0.85740  0.53086  0.91753  Biso   1.000  C
  C75      1.0000 0.69845  0.56137  0.81434  Biso   1.000  C
  H68      1.0000 0.75697  0.21282  0.92640  Biso   1.000  H
  C76      1.0000 0.81587  0.35749  0.91134  Biso   1.000  C
  H69      1.0000 0.85608  0.19084  0.00013  Biso   1.000  H
  H70      1.0000 0.28135  0.95064  0.07113  Biso   1.000  H
  H71      1.0000 0.31091  0.07329  0.03870  Biso   1.000  H
  H72      1.0000 0.23346  0.04616  0.11892  Biso   1.000  H
  C77      1.0000 0.88430  0.40645  0.94699  Biso   1.000  C
  H73      1.0000 0.90467  0.56225  0.94318  Biso   1.000  H
  C78      1.0000 0.72371  0.43720  0.84451  Biso   1.000  C
  O19      1.0000 0.60441  0.63180  0.74787  Biso   1.000  O
  O20      1.0000 0.97701  0.33663  0.01328  Biso   1.000  O
  H74      1.0000 0.67665  0.40582  0.81869  Biso   1.000  H
  H75      1.0000 0.61765  0.69635  0.72478  Biso   1.000  H
  H76      1.0000 0.01075  0.26272  0.01578  Biso   1.000  H
