data_image0
_cell_length_a       11.585
_cell_length_b       12.458
_cell_length_c       20.496
_cell_angle_alpha    78.16
_cell_angle_beta     85.05
_cell_angle_gamma    63.56

_symmetry_space_group_name_H-M    "P 1"
_symmetry_int_tables_number       1

loop_
  _symmetry_equiv_pos_as_xyz
  'x, y, z'

loop_
  _atom_site_label
  _atom_site_occupancy
  _atom_site_fract_x
  _atom_site_fract_y
  _atom_site_fract_z
  _atom_site_thermal_displace_type
  _atom_site_B_iso_or_equiv
  _atom_site_type_symbol
  C1       1.0000 0.58959  0.68014  0.57269  Biso   1.000  C
  C2       1.0000 0.57540  0.79484  0.57389  Biso   1.000  C
  H1       1.0000 0.51528  0.66786  0.56930  Biso   1.000  H
  C3       1.0000 0.70970  0.58206  0.57638  Biso   1.000  C
  C4       1.0000 0.44497  0.90044  0.57180  Biso   1.000  C
  C5       1.0000 0.68476  0.81507  0.57608  Biso   1.000  C
  H2       1.0000 0.71727  0.50289  0.57668  Biso   1.000  H
  C6       1.0000 0.81928  0.59899  0.57957  Biso   1.000  C
  H3       1.0000 0.39103  0.90058  0.53680  Biso   1.000  H
  H4       1.0000 0.45264  0.97817  0.56158  Biso   1.000  H
  O1       1.0000 0.38613  0.88739  0.63745  Biso   1.000  O
  C7       1.0000 0.80637  0.71712  0.57808  Biso   1.000  C
  H5       1.0000 0.67587  0.89451  0.57628  Biso   1.000  H
  O2       1.0000 0.94254  0.51014  0.58406  Biso   1.000  O
  C8       1.0000 0.25807  0.95012  0.63830  Biso   1.000  C
  O3       1.0000 0.92050  0.72548  0.57773  Biso   1.000  O
  C9       1.0000 0.96646  0.39079  0.57549  Biso   1.000  C
  C10      1.0000 0.20057  0.93189  0.70520  Biso   1.000  C
  O4       1.0000 0.19297  0.01596  0.59024  Biso   1.000  O
  C11      1.0000 0.91733  0.84525  0.56831  Biso   1.000  C
  H6       1.0000 0.92078  0.35619  0.61008  Biso   1.000  H
  H7       1.0000 0.93594  0.39443  0.53107  Biso   1.000  H
  C12      1.0000 0.10812  0.31413  0.58182  Biso   1.000  C
  C13      1.0000 0.06889  0.96497  0.70859  Biso   1.000  C
  N1       1.0000 0.27796  0.88508  0.75894  Biso   1.000  N
  H8       1.0000 0.86627  0.89855  0.52808  Biso   1.000  H
  H9       1.0000 0.87824  0.88399  0.60729  Biso   1.000  H
  C14      1.0000 0.05361  0.82585  0.56028  Biso   1.000  C
  H10      1.0000 0.15352  0.35857  0.55440  Biso   1.000  H
  H11      1.0000 0.13150  0.23796  0.56522  Biso   1.000  H
  O5       1.0000 0.14736  0.28537  0.64961  Biso   1.000  O
  H12      1.0000 0.01719  0.99984  0.66931  Biso   1.000  H
  C15      1.0000 0.01468  0.94632  0.76991  Biso   1.000  C
  C16      1.0000 0.22176  0.87047  0.81841  Biso   1.000  C
  H13      1.0000 0.05665  0.90566  0.55131  Biso   1.000  H
  H14      1.0000 0.09210  0.78514  0.52180  Biso   1.000  H
  O6       1.0000 0.12577  0.75288  0.61896  Biso   1.000  O
  C17      1.0000 0.27800  0.25163  0.65679  Biso   1.000  C
  C18      1.0000 0.09193  0.89828  0.82569  Biso   1.000  C
  H15      1.0000 0.92535  0.96643  0.77350  Biso   1.000  H
  C19      1.0000 0.30424  0.82029  0.87938  Biso   1.000  C
  C20      1.0000 0.23824  0.66317  0.60918  Biso   1.000  C
  H16      1.0000 0.32610  0.20489  0.62180  Biso   1.000  H
  H17      1.0000 0.29123  0.32652  0.64961  Biso   1.000  H
  C21      1.0000 0.33068  0.18011  0.72040  Biso   1.000  C
  H18      1.0000 0.05715  0.88425  0.86851  Biso   1.000  H
  O7       1.0000 0.27070  0.77515  0.93137  Biso   1.000  O
  O8       1.0000 0.41217  0.83591  0.87145  Biso   1.000  O
  C22      1.0000 0.31975  0.58794  0.66741  Biso   1.000  C
  H19      1.0000 0.22241  0.60859  0.58610  Biso   1.000  H
  H20      1.0000 0.28802  0.69900  0.57838  Biso   1.000  H
  H21      1.0000 0.41096  0.18622  0.72718  Biso   1.000  H
  H22      1.0000 0.35490  0.09368  0.71911  Biso   1.000  H
  O9       1.0000 0.25393  0.20970  0.77409  Biso   1.000  O
  C23      1.0000 0.49585  0.79468  0.93038  Biso   1.000  C
  H23      1.0000 0.35495  0.63746  0.68301  Biso   1.000  H
  H24      1.0000 0.39366  0.51886  0.65211  Biso   1.000  H
  O10      1.0000 0.27066  0.54325  0.71811  Biso   1.000  O
  C24      1.0000 0.31132  0.14736  0.83681  Biso   1.000  C
  H25      1.0000 0.52784  0.85569  0.93207  Biso   1.000  H
  H26      1.0000 0.44510  0.78869  0.97121  Biso   1.000  H
  C25      1.0000 0.60773  0.67370  0.92868  Biso   1.000  C
  C26      1.0000 0.34207  0.48269  0.77220  Biso   1.000  C
  H27      1.0000 0.35696  0.05890  0.83621  Biso   1.000  H
  H28      1.0000 0.37606  0.17461  0.84518  Biso   1.000  H
  C27      1.0000 0.21970  0.16697  0.89030  Biso   1.000  C
  C28      1.0000 0.73220  0.66583  0.92340  Biso   1.000  C
  C29      1.0000 0.58949  0.57073  0.93068  Biso   1.000  C
  C30      1.0000 0.30296  0.50669  0.83436  Biso   1.000  C
  H29      1.0000 0.36383  0.39558  0.77449  Biso   1.000  H
  H30      1.0000 0.42386  0.49004  0.76407  Biso   1.000  H
  H31      1.0000 0.17888  0.25466  0.89289  Biso   1.000  H
  H32      1.0000 0.26623  0.12079  0.93277  Biso   1.000  H
  O11      1.0000 0.12657  0.13277  0.88337  Biso   1.000  O
  H33      1.0000 0.74553  0.73638  0.92130  Biso   1.000  H
  C31      1.0000 0.83654  0.55299  0.92120  Biso   1.000  C
  C32      1.0000 0.69283  0.45880  0.92769  Biso   1.000  C
  H34      1.0000 0.50465  0.57680  0.93417  Biso   1.000  H
  H35      1.0000 0.33926  0.42838  0.86647  Biso   1.000  H
  H36      1.0000 0.34167  0.55765  0.84498  Biso   1.000  H
  O12      1.0000 0.17053  0.56483  0.84548  Biso   1.000  O
  C33      1.0000 0.04484  0.12832  0.93960  Biso   1.000  C
  C34      1.0000 0.82011  0.44731  0.92380  Biso   1.000  C
  O13      1.0000 0.96351  0.53342  0.91762  Biso   1.000  O
  H37      1.0000 0.67811  0.38944  0.92838  Biso   1.000  H
  C35      1.0000 0.13556  0.58385  0.91198  Biso   1.000  C
  C36      1.0000 0.91428  0.23298  0.93058  Biso   1.000  C
  H38      1.0000 0.03618  0.05123  0.94638  Biso   1.000  H
  H39      1.0000 0.08547  0.12863  0.98008  Biso   1.000  H
  O14      1.0000 0.92682  0.34422  0.92300  Biso   1.000  O
  C37      1.0000 0.99309  0.63280  0.91931  Biso   1.000  C
  H40      1.0000 0.17830  0.50577  0.94369  Biso   1.000  H
  H41      1.0000 0.16441  0.64232  0.92240  Biso   1.000  H
  H42      1.0000 0.86027  0.22579  0.96991  Biso   1.000  H
  H43      1.0000 0.87210  0.23300  0.89070  Biso   1.000  H
  H44      1.0000 0.94906  0.70159  0.88227  Biso   1.000  H
  H45      1.0000 0.96559  0.66186  0.96198  Biso   1.000  H
  C38      1.0000 0.41049  0.31995  0.42728  Biso   1.000  C
  C39      1.0000 0.42468  0.20525  0.42608  Biso   1.000  C
  H46      1.0000 0.48480  0.33222  0.43072  Biso   1.000  H
  C40      1.0000 0.29038  0.41803  0.42359  Biso   1.000  C
  C41      1.0000 0.55511  0.09965  0.42817  Biso   1.000  C
  C42      1.0000 0.31532  0.18503  0.42389  Biso   1.000  C
  C43      1.0000 0.18080  0.40110  0.42040  Biso   1.000  C
  H47      1.0000 0.28273  0.49720  0.42329  Biso   1.000  H
  O15      1.0000 0.61383  0.11278  0.36257  Biso   1.000  O
  H48      1.0000 0.60901  0.09960  0.46317  Biso   1.000  H
  H49      1.0000 0.54735  0.02193  0.43839  Biso   1.000  H
  C44      1.0000 0.19372  0.28296  0.42194  Biso   1.000  C
  H50      1.0000 0.32422  0.10558  0.42369  Biso   1.000  H
  O16      1.0000 0.05754  0.48994  0.41596  Biso   1.000  O
  C45      1.0000 0.74192  0.04997  0.36167  Biso   1.000  C
  O17      1.0000 0.07958  0.27461  0.42224  Biso   1.000  O
  C46      1.0000 0.03362  0.60930  0.42449  Biso   1.000  C
  C47      1.0000 0.79951  0.06820  0.29477  Biso   1.000  C
  O18      1.0000 0.80711  0.98413  0.40973  Biso   1.000  O
  C48      1.0000 0.08275  0.15483  0.43171  Biso   1.000  C
  C49      1.0000 0.89197  0.68594  0.41820  Biso   1.000  C
  H51      1.0000 0.07930  0.64391  0.38989  Biso   1.000  H
  H52      1.0000 0.06414  0.60566  0.46890  Biso   1.000  H
  N2       1.0000 0.72212  0.11501  0.24103  Biso   1.000  N
  C50      1.0000 0.93119  0.03512  0.29138  Biso   1.000  C
  C51      1.0000 0.94647  0.17424  0.43969  Biso   1.000  C
  H53      1.0000 0.13381  0.10154  0.47189  Biso   1.000  H
  H54      1.0000 0.12180  0.11619  0.39268  Biso   1.000  H
  O19      1.0000 0.85272  0.71470  0.35041  Biso   1.000  O
  H55      1.0000 0.84656  0.64153  0.44557  Biso   1.000  H
  H56      1.0000 0.86859  0.76211  0.43480  Biso   1.000  H
  C52      1.0000 0.77832  0.12961  0.18161  Biso   1.000  C
  C53      1.0000 0.98531  0.05375  0.23011  Biso   1.000  C
  H57      1.0000 0.98289  0.00023  0.33071  Biso   1.000  H
  O20      1.0000 0.87431  0.24719  0.38106  Biso   1.000  O
  H58      1.0000 0.94335  0.09441  0.44871  Biso   1.000  H
  H59      1.0000 0.90799  0.21495  0.47818  Biso   1.000  H
  C54      1.0000 0.72200  0.74846  0.34318  Biso   1.000  C
  C55      1.0000 0.69576  0.17980  0.12059  Biso   1.000  C
  C56      1.0000 0.90816  0.10182  0.17428  Biso   1.000  C
  H60      1.0000 0.07473  0.03366  0.22648  Biso   1.000  H
  C57      1.0000 0.76185  0.33692  0.39079  Biso   1.000  C
  C58      1.0000 0.66941  0.81997  0.27962  Biso   1.000  C
  H61      1.0000 0.67399  0.79521  0.37817  Biso   1.000  H
  H62      1.0000 0.70885  0.67355  0.35041  Biso   1.000  H
  O21      1.0000 0.58791  0.16418  0.12852  Biso   1.000  O
  O22      1.0000 0.72939  0.22494  0.06860  Biso   1.000  O
  H63      1.0000 0.94294  0.11582  0.13151  Biso   1.000  H
  C59      1.0000 0.68033  0.41214  0.33261  Biso   1.000  C
  H64      1.0000 0.77759  0.39149  0.41392  Biso   1.000  H
  H65      1.0000 0.71202  0.30119  0.42159  Biso   1.000  H
  O23      1.0000 0.74615  0.79038  0.22593  Biso   1.000  O
  H66      1.0000 0.58912  0.81388  0.27279  Biso   1.000  H
  H67      1.0000 0.64518  0.90639  0.28091  Biso   1.000  H
  C60      1.0000 0.50423  0.20541  0.06959  Biso   1.000  C
  O24      1.0000 0.72942  0.45683  0.28191  Biso   1.000  O
  H68      1.0000 0.64514  0.36261  0.31701  Biso   1.000  H
  H69      1.0000 0.60642  0.48122  0.34791  Biso   1.000  H
  C61      1.0000 0.68876  0.85272  0.16321  Biso   1.000  C
  C62      1.0000 0.39235  0.32639  0.07129  Biso   1.000  C
  H70      1.0000 0.47215  0.14440  0.06790  Biso   1.000  H
  H71      1.0000 0.55498  0.21139  0.02881  Biso   1.000  H
  C63      1.0000 0.65802  0.51738  0.22782  Biso   1.000  C
  C64      1.0000 0.78038  0.83310  0.10972  Biso   1.000  C
  H72      1.0000 0.64312  0.94117  0.16381  Biso   1.000  H
  H73      1.0000 0.62393  0.82548  0.15479  Biso   1.000  H
  C65      1.0000 0.26784  0.33434  0.07662  Biso   1.000  C
  C66      1.0000 0.41051  0.42936  0.06929  Biso   1.000  C
  C67      1.0000 0.69713  0.49340  0.16561  Biso   1.000  C
  H74      1.0000 0.63625  0.60452  0.22548  Biso   1.000  H
  H75      1.0000 0.57622  0.51005  0.23590  Biso   1.000  H
  O25      1.0000 0.87352  0.86732  0.11660  Biso   1.000  O
  H76      1.0000 0.82120  0.74543  0.10708  Biso   1.000  H
  H77      1.0000 0.73385  0.87930  0.06720  Biso   1.000  H
  H78      1.0000 0.25456  0.26370  0.07872  Biso   1.000  H
  C68      1.0000 0.16354  0.44708  0.07882  Biso   1.000  C
  C69      1.0000 0.30726  0.54129  0.07228  Biso   1.000  C
  H79      1.0000 0.49543  0.42329  0.06580  Biso   1.000  H
  O26      1.0000 0.82951  0.43535  0.15449  Biso   1.000  O
  H80      1.0000 0.66082  0.57171  0.13350  Biso   1.000  H
  H81      1.0000 0.65841  0.44244  0.15499  Biso   1.000  H
  C70      1.0000 0.95524  0.87176  0.06042  Biso   1.000  C
  C71      1.0000 0.17997  0.55277  0.07622  Biso   1.000  C
  O27      1.0000 0.03657  0.46667  0.08235  Biso   1.000  O
  H82      1.0000 0.32193  0.61074  0.07159  Biso   1.000  H
  C72      1.0000 0.86452  0.41624  0.08799  Biso   1.000  C
  C73      1.0000 0.08580  0.76712  0.06939  Biso   1.000  C
  H83      1.0000 0.96391  0.94886  0.05359  Biso   1.000  H
  H84      1.0000 0.91453  0.87146  0.01989  Biso   1.000  H
  O28      1.0000 0.07326  0.65587  0.07697  Biso   1.000  O
  C74      1.0000 0.00699  0.36727  0.08071  Biso   1.000  C
  H85      1.0000 0.82179  0.49433  0.05628  Biso   1.000  H
  H86      1.0000 0.83558  0.35775  0.07762  Biso   1.000  H
  H87      1.0000 0.13981  0.77428  0.03011  Biso   1.000  H
  H88      1.0000 0.12798  0.76710  0.10927  Biso   1.000  H
  H89      1.0000 0.05102  0.29850  0.11770  Biso   1.000  H
  H90      1.0000 0.03449  0.33824  0.03799  Biso   1.000  H
