data_image0
_cell_length_a       13.901
_cell_length_b       17.299
_cell_length_c       26.7
_cell_angle_alpha    84.77
_cell_angle_beta     76.05
_cell_angle_gamma    85.38

_symmetry_space_group_name_H-M    "P 1"
_symmetry_int_tables_number       1

loop_
  _symmetry_equiv_pos_as_xyz
  'x, y, z'

loop_
  _atom_site_label
  _atom_site_occupancy
  _atom_site_fract_x
  _atom_site_fract_y
  _atom_site_fract_z
  _atom_site_thermal_displace_type
  _atom_site_B_iso_or_equiv
  _atom_site_type_symbol
  C1       1.0000 0.32255  0.45130  0.56789  Biso   1.000  C
  O1       1.0000 0.35295  0.38972  0.60009  Biso   1.000  O
  C2       1.0000 0.21761  0.48068  0.59212  Biso   1.000  C
  H1       1.0000 0.36796  0.49412  0.56309  Biso   1.000  H
  H2       1.0000 0.32536  0.43298  0.53349  Biso   1.000  H
  C3       1.0000 0.45230  0.36242  0.57911  Biso   1.000  C
  O2       1.0000 0.22325  0.51882  0.63646  Biso   1.000  O
  H3       1.0000 0.17363  0.43690  0.60241  Biso   1.000  H
  H4       1.0000 0.19126  0.51759  0.56739  Biso   1.000  H
  H5       1.0000 0.45661  0.33927  0.54591  Biso   1.000  H
  H6       1.0000 0.49644  0.40617  0.57219  Biso   1.000  H
  C4       1.0000 0.48412  0.30268  0.61669  Biso   1.000  C
  C5       1.0000 0.13344  0.56269  0.65608  Biso   1.000  C
  O3       1.0000 0.49296  0.34031  0.66046  Biso   1.000  O
  H7       1.0000 0.54873  0.27671  0.60040  Biso   1.000  H
  H8       1.0000 0.43456  0.26279  0.62749  Biso   1.000  H
  C6       1.0000 0.13567  0.58851  0.70690  Biso   1.000  C
  H9       1.0000 0.12603  0.60841  0.63190  Biso   1.000  H
  H10      1.0000 0.07611  0.53037  0.65980  Biso   1.000  H
  C7       1.0000 0.53506  0.28762  0.69451  Biso   1.000  C
  O4       1.0000 0.20861  0.64471  0.70016  Biso   1.000  O
  H11      1.0000 0.15191  0.54330  0.72961  Biso   1.000  H
  H12      1.0000 0.06956  0.61171  0.72361  Biso   1.000  H
  H13      1.0000 0.50365  0.23733  0.69881  Biso   1.000  H
  H14      1.0000 0.60705  0.27822  0.67950  Biso   1.000  H
  C8       1.0000 0.51975  0.32012  0.74586  Biso   1.000  C
  C9       1.0000 0.21664  0.67647  0.74354  Biso   1.000  C
  O5       1.0000 0.58494  0.38199  0.74176  Biso   1.000  O
  H15      1.0000 0.53366  0.27867  0.77171  Biso   1.000  H
  H16      1.0000 0.44984  0.34011  0.75751  Biso   1.000  H
  C10      1.0000 0.27763  0.74030  0.73642  Biso   1.000  C
  C11      1.0000 0.16594  0.65251  0.79358  Biso   1.000  C
  C12      1.0000 0.58536  0.41091  0.78727  Biso   1.000  C
  O6       1.0000 0.32355  0.76026  0.68592  Biso   1.000  O
  C13      1.0000 0.28461  0.77817  0.77810  Biso   1.000  C
  C14      1.0000 0.17417  0.69102  0.83522  Biso   1.000  C
  H17      1.0000 0.12553  0.60939  0.79900  Biso   1.000  H
  C15      1.0000 0.65436  0.46709  0.78580  Biso   1.000  C
  C16      1.0000 0.52407  0.38782  0.83468  Biso   1.000  C
  C17      1.0000 0.37542  0.83048  0.67613  Biso   1.000  C
  H18      1.0000 0.32514  0.82120  0.77291  Biso   1.000  H
  C18      1.0000 0.23227  0.75432  0.82872  Biso   1.000  C
  H19      1.0000 0.13923  0.67391  0.86900  Biso   1.000  H
  O7       1.0000 0.71223  0.48686  0.73747  Biso   1.000  O
  C19      1.0000 0.66155  0.49672  0.83065  Biso   1.000  C
  C20      1.0000 0.53064  0.41920  0.87987  Biso   1.000  C
  H20      1.0000 0.47709  0.35017  0.83630  Biso   1.000  H
  H21      1.0000 0.32876  0.87566  0.68650  Biso   1.000  H
  H22      1.0000 0.42744  0.82751  0.69602  Biso   1.000  H
  C21      1.0000 0.42132  0.83890  0.61932  Biso   1.000  C
  C22      1.0000 0.23312  0.79980  0.87233  Biso   1.000  C
  C23      1.0000 0.77464  0.54998  0.73367  Biso   1.000  C
  H23      1.0000 0.70958  0.53341  0.82930  Biso   1.000  H
  C24      1.0000 0.59924  0.47359  0.87840  Biso   1.000  C
  H24      1.0000 0.48778  0.40311  0.91192  Biso   1.000  H
  O8       1.0000 0.49435  0.77691  0.60411  Biso   1.000  O
  H25      1.0000 0.45270  0.88918  0.61042  Biso   1.000  H
  H26      1.0000 0.36896  0.83880  0.59990  Biso   1.000  H
  O9       1.0000 0.31827  0.77371  0.89512  Biso   1.000  O
  H27      1.0000 0.23745  0.85560  0.86022  Biso   1.000  H
  H28      1.0000 0.17045  0.79397  0.89911  Biso   1.000  H
  C25      1.0000 0.82382  0.56822  0.67772  Biso   1.000  C
  H29      1.0000 0.73445  0.59629  0.74799  Biso   1.000  H
  H30      1.0000 0.82557  0.53557  0.75372  Biso   1.000  H
  C26      1.0000 0.61255  0.50407  0.92651  Biso   1.000  C
  C27      1.0000 0.45716  0.71289  0.58380  Biso   1.000  C
  C28      1.0000 0.55416  0.78602  0.55470  Biso   1.000  C
  C29      1.0000 0.32352  0.81312  0.93444  Biso   1.000  C
  O10      1.0000 0.75489  0.59540  0.64827  Biso   1.000  O
  H31      1.0000 0.86065  0.52070  0.66332  Biso   1.000  H
  H32      1.0000 0.87248  0.60807  0.67509  Biso   1.000  H
  O11      1.0000 0.56023  0.58163  0.93212  Biso   1.000  O
  H33      1.0000 0.68410  0.50789  0.92449  Biso   1.000  H
  H34      1.0000 0.58504  0.46839  0.95681  Biso   1.000  H
  H35      1.0000 0.41017  0.68447  0.61189  Biso   1.000  H
  H36      1.0000 0.42153  0.73328  0.55690  Biso   1.000  H
  C30      1.0000 0.54316  0.65939  0.56112  Biso   1.000  C
  C31      1.0000 0.60966  0.70958  0.54320  Biso   1.000  C
  H37      1.0000 0.51313  0.80130  0.52939  Biso   1.000  H
  H38      1.0000 0.60112  0.82689  0.55272  Biso   1.000  H
  O12      1.0000 0.26212  0.86385  0.95228  Biso   1.000  O
  C32      1.0000 0.41157  0.79131  0.95626  Biso   1.000  C
  C33      1.0000 0.71486  0.53772  0.62509  Biso   1.000  C
  C34      1.0000 0.81147  0.61117  0.59521  Biso   1.000  C
  C35      1.0000 0.57967  0.62020  0.96896  Biso   1.000  C
  H39      1.0000 0.59320  0.68920  0.53562  Biso   1.000  H
  H40      1.0000 0.52041  0.61961  0.54289  Biso   1.000  H
  O13      1.0000 0.58702  0.62208  0.60140  Biso   1.000  O
  H41      1.0000 0.64092  0.70947  0.50570  Biso   1.000  H
  H42      1.0000 0.56321  0.66720  0.55249  Biso   1.000  H
  O14      1.0000 0.68182  0.69740  0.57130  Biso   1.000  O
  N1       1.0000 0.45608  0.71979  0.94911  Biso   1.000  N
  C36      1.0000 0.43983  0.84432  0.98490  Biso   1.000  C
  C37      1.0000 0.67247  0.57429  0.58209  Biso   1.000  C
  H43      1.0000 0.76792  0.49798  0.61170  Biso   1.000  H
  H44      1.0000 0.66244  0.51152  0.65152  Biso   1.000  H
  C38      1.0000 0.73685  0.62410  0.56139  Biso   1.000  C
  H45      1.0000 0.84931  0.65810  0.59250  Biso   1.000  H
  H46      1.0000 0.85885  0.56669  0.58422  Biso   1.000  H
  O15      1.0000 0.63428  0.59399  0.99651  Biso   1.000  O
  C39      1.0000 0.52887  0.69999  0.97376  Biso   1.000  C
  H47      1.0000 0.40706  0.89461  0.98792  Biso   1.000  H
  C40      1.0000 0.51669  0.82304  0.00932  Biso   1.000  C
  H48      1.0000 0.65493  0.53329  0.56282  Biso   1.000  H
  H49      1.0000 0.72251  0.60571  0.55779  Biso   1.000  H
  H50      1.0000 0.69074  0.58141  0.56921  Biso   1.000  H
  H51      1.0000 0.77202  0.62422  0.52440  Biso   1.000  H
  C41      1.0000 0.56081  0.74884  0.00437  Biso   1.000  C
  H52      1.0000 0.53829  0.85851  0.02878  Biso   1.000  H
  H53      1.0000 0.61202  0.73138  0.02151  Biso   1.000  H
  C42      1.0000 0.67752  0.54867  0.43210  Biso   1.000  C
  O16      1.0000 0.64711  0.61032  0.39990  Biso   1.000  O
  C43      1.0000 0.78245  0.51930  0.40791  Biso   1.000  C
  H54      1.0000 0.63210  0.50592  0.43690  Biso   1.000  H
  H55      1.0000 0.67472  0.56699  0.46650  Biso   1.000  H
  C44      1.0000 0.54775  0.63761  0.42092  Biso   1.000  C
  O17      1.0000 0.77682  0.48121  0.36353  Biso   1.000  O
  H56      1.0000 0.82642  0.56307  0.39762  Biso   1.000  H
  H57      1.0000 0.80881  0.48239  0.43260  Biso   1.000  H
  C45      1.0000 0.51595  0.69730  0.38330  Biso   1.000  C
  H58      1.0000 0.54344  0.66070  0.45412  Biso   1.000  H
  H59      1.0000 0.50363  0.59381  0.42781  Biso   1.000  H
  C46      1.0000 0.86663  0.43729  0.34391  Biso   1.000  C
  O18      1.0000 0.50711  0.65967  0.33954  Biso   1.000  O
  H60      1.0000 0.45134  0.72327  0.39959  Biso   1.000  H
  H61      1.0000 0.56551  0.73719  0.37251  Biso   1.000  H
  C47      1.0000 0.86440  0.41152  0.29310  Biso   1.000  C
  H62      1.0000 0.87404  0.39162  0.36809  Biso   1.000  H
  H63      1.0000 0.92396  0.46960  0.34019  Biso   1.000  H
  C48      1.0000 0.46499  0.71241  0.30552  Biso   1.000  C
  O19      1.0000 0.79146  0.35527  0.29983  Biso   1.000  O
  H64      1.0000 0.84816  0.45668  0.27038  Biso   1.000  H
  H65      1.0000 0.93049  0.38827  0.27642  Biso   1.000  H
  C49      1.0000 0.48030  0.67991  0.25417  Biso   1.000  C
  H66      1.0000 0.49641  0.76271  0.30119  Biso   1.000  H
  H67      1.0000 0.39301  0.72182  0.32050  Biso   1.000  H
  C50      1.0000 0.78342  0.32350  0.25649  Biso   1.000  C
  O20      1.0000 0.41511  0.61798  0.25827  Biso   1.000  O
  H68      1.0000 0.46639  0.72130  0.22832  Biso   1.000  H
  H69      1.0000 0.55021  0.65987  0.24252  Biso   1.000  H
  C51      1.0000 0.72244  0.25967  0.26357  Biso   1.000  C
  C52      1.0000 0.83413  0.34747  0.20641  Biso   1.000  C
  C53      1.0000 0.41472  0.58907  0.21272  Biso   1.000  C
  O21      1.0000 0.67653  0.23972  0.31407  Biso   1.000  O
  C54      1.0000 0.71546  0.22181  0.22189  Biso   1.000  C
  C55      1.0000 0.82588  0.30902  0.16481  Biso   1.000  C
  H70      1.0000 0.87454  0.39058  0.20100  Biso   1.000  H
  C56      1.0000 0.34570  0.53288  0.21423  Biso   1.000  C
  C57      1.0000 0.47598  0.61221  0.16536  Biso   1.000  C
  C58      1.0000 0.62465  0.16950  0.32386  Biso   1.000  C
  C59      1.0000 0.76778  0.24571  0.17132  Biso   1.000  C
  H71      1.0000 0.67492  0.17877  0.22712  Biso   1.000  H
  H72      1.0000 0.86083  0.32612  0.13099  Biso   1.000  H
  O22      1.0000 0.28784  0.51311  0.26253  Biso   1.000  O
  C60      1.0000 0.33850  0.50331  0.16938  Biso   1.000  C
  C61      1.0000 0.46943  0.58077  0.12012  Biso   1.000  C
  H73      1.0000 0.52298  0.64980  0.16369  Biso   1.000  H
  C62      1.0000 0.57874  0.16108  0.38071  Biso   1.000  C
  H74      1.0000 0.67131  0.12432  0.31349  Biso   1.000  H
  H75      1.0000 0.57260  0.17252  0.30401  Biso   1.000  H
  C63      1.0000 0.76695  0.20018  0.12766  Biso   1.000  C
  C64      1.0000 0.22543  0.45000  0.26632  Biso   1.000  C
  H76      1.0000 0.29049  0.46657  0.17070  Biso   1.000  H
  C65      1.0000 0.40083  0.52639  0.12159  Biso   1.000  C
  H77      1.0000 0.51228  0.59687  0.08812  Biso   1.000  H
  O23      1.0000 0.50571  0.22312  0.39588  Biso   1.000  O
  H78      1.0000 0.54736  0.11079  0.38961  Biso   1.000  H
  H79      1.0000 0.63111  0.16118  0.40010  Biso   1.000  H
  O24      1.0000 0.68178  0.22632  0.10491  Biso   1.000  O
  H80      1.0000 0.76260  0.14437  0.13982  Biso   1.000  H
  H81      1.0000 0.82962  0.20601  0.10089  Biso   1.000  H
  C66      1.0000 0.17624  0.43182  0.32228  Biso   1.000  C
  H82      1.0000 0.26562  0.40369  0.25200  Biso   1.000  H
  H83      1.0000 0.17448  0.46441  0.24631  Biso   1.000  H
  C67      1.0000 0.38751  0.49590  0.07353  Biso   1.000  C
  C68      1.0000 0.54291  0.28709  0.41620  Biso   1.000  C
  C69      1.0000 0.44591  0.21402  0.44530  Biso   1.000  C
  C70      1.0000 0.67654  0.18692  0.06555  Biso   1.000  C
  O25      1.0000 0.24518  0.40458  0.35173  Biso   1.000  O
  H84      1.0000 0.13941  0.47927  0.33671  Biso   1.000  H
  H85      1.0000 0.12759  0.39191  0.32491  Biso   1.000  H
  O26      1.0000 0.43982  0.41835  0.06791  Biso   1.000  O
  H86      1.0000 0.31598  0.49209  0.07550  Biso   1.000  H
  H87      1.0000 0.41503  0.53159  0.04319  Biso   1.000  H
  C71      1.0000 0.45689  0.34058  0.43891  Biso   1.000  C
  H88      1.0000 0.58991  0.31551  0.38810  Biso   1.000  H
  H89      1.0000 0.57854  0.26669  0.44309  Biso   1.000  H
  C72      1.0000 0.39041  0.29040  0.45679  Biso   1.000  C
  H90      1.0000 0.48695  0.19867  0.47061  Biso   1.000  H
  H91      1.0000 0.39894  0.17308  0.44731  Biso   1.000  H
  C73      1.0000 0.58848  0.20872  0.04377  Biso   1.000  C
  O27      1.0000 0.73795  0.13613  0.04771  Biso   1.000  O
  C74      1.0000 0.28521  0.46231  0.37491  Biso   1.000  C
  C75      1.0000 0.18859  0.38881  0.40482  Biso   1.000  C
  C76      1.0000 0.42041  0.37977  0.03104  Biso   1.000  C
  O28      1.0000 0.41305  0.37790  0.39859  Biso   1.000  O
  H92      1.0000 0.40685  0.31077  0.46441  Biso   1.000  H
  H93      1.0000 0.47966  0.38037  0.45710  Biso   1.000  H
  O29      1.0000 0.31825  0.30257  0.42870  Biso   1.000  O
  H94      1.0000 0.35916  0.29051  0.49429  Biso   1.000  H
  H95      1.0000 0.43687  0.33278  0.44750  Biso   1.000  H
  N2       1.0000 0.54399  0.28019  0.05089  Biso   1.000  N
  C77      1.0000 0.56024  0.15572  0.01509  Biso   1.000  C
  C78      1.0000 0.32760  0.42568  0.41790  Biso   1.000  C
  H96      1.0000 0.23215  0.50200  0.38830  Biso   1.000  H
  H97      1.0000 0.33760  0.48851  0.34851  Biso   1.000  H
  C79      1.0000 0.26323  0.37588  0.43860  Biso   1.000  C
  H98      1.0000 0.15076  0.34188  0.40749  Biso   1.000  H
  H99      1.0000 0.14120  0.43328  0.41581  Biso   1.000  H
  O30      1.0000 0.36579  0.40598  0.00348  Biso   1.000  O
  C80      1.0000 0.47118  0.29998  0.02628  Biso   1.000  C
  C81      1.0000 0.48338  0.17700  0.99067  Biso   1.000  C
  H100     1.0000 0.59299  0.10542  0.01211  Biso   1.000  H
  H101     1.0000 0.34512  0.46668  0.43721  Biso   1.000  H
  H102     1.0000 0.27756  0.39427  0.44220  Biso   1.000  H
  H103     1.0000 0.30932  0.41862  0.43079  Biso   1.000  H
  H104     1.0000 0.22805  0.37581  0.47560  Biso   1.000  H
  C82      1.0000 0.43926  0.25120  0.99563  Biso   1.000  C
  H105     1.0000 0.46178  0.14147  0.97121  Biso   1.000  H
  H106     1.0000 0.38803  0.26859  0.97852  Biso   1.000  H
  C83      1.0000 0.13120  0.67906  0.31539  Biso   1.000  C
  C84      1.0000 0.08033  0.65177  0.28029  Biso   1.000  C
  O31      1.0000 0.12807  0.71428  0.27832  Biso   1.000  O
  C85      1.0000 0.02924  0.63009  0.33799  Biso   1.000  C
  H107     1.0000 0.13802  0.71420  0.34151  Biso   1.000  H
  H108     1.0000 0.19019  0.64209  0.30939  Biso   1.000  H
  H109     1.0000 0.12702  0.60859  0.26601  Biso   1.000  H
  H110     1.0000 0.02977  0.66151  0.25951  Biso   1.000  H
  C86      1.0000 0.19603  0.73990  0.23474  Biso   1.000  C
  H111     1.0000 0.00464  0.57727  0.34151  Biso   1.000  H
  H112     1.0000 0.07815  0.62990  0.35950  Biso   1.000  H
  O32      1.0000 0.94872  0.68450  0.35563  Biso   1.000  O
  C87      1.0000 0.25542  0.79968  0.24004  Biso   1.000  C
  C88      1.0000 0.20367  0.71208  0.18776  Biso   1.000  C
  C89      1.0000 0.95834  0.72487  0.39820  Biso   1.000  C
  O33      1.0000 0.24413  0.82169  0.28873  Biso   1.000  O
  C90      1.0000 0.32270  0.82947  0.19597  Biso   1.000  C
  C91      1.0000 0.27032  0.74238  0.14322  Biso   1.000  C
  H113     1.0000 0.16346  0.67161  0.18501  Biso   1.000  H
  H114     1.0000 0.00397  0.76729  0.38601  Biso   1.000  H
  H115     1.0000 0.98547  0.68881  0.42308  Biso   1.000  H
  C92      1.0000 0.85562  0.75792  0.42382  Biso   1.000  C
  C93      1.0000 0.29417  0.88737  0.29569  Biso   1.000  C
  H116     1.0000 0.36382  0.86947  0.19871  Biso   1.000  H
  C94      1.0000 0.32945  0.80066  0.14848  Biso   1.000  C
  C95      1.0000 0.27969  0.70868  0.09284  Biso   1.000  C
  O34      1.0000 0.82494  0.81868  0.39116  Biso   1.000  O
  H117     1.0000 0.80807  0.71637  0.43079  Biso   1.000  H
  H118     1.0000 0.85694  0.77780  0.45722  Biso   1.000  H
  H119     1.0000 0.26870  0.93500  0.27839  Biso   1.000  H
  H120     1.0000 0.36639  0.87960  0.28060  Biso   1.000  H
  C96      1.0000 0.27489  0.89468  0.35238  Biso   1.000  C
  H121     1.0000 0.37538  0.82130  0.11892  Biso   1.000  H
  O35      1.0000 0.18981  0.73148  0.07399  Biso   1.000  O
  H122     1.0000 0.33868  0.72781  0.06741  Biso   1.000  H
  H123     1.0000 0.28799  0.65129  0.09729  Biso   1.000  H
  C97      1.0000 0.73100  0.85718  0.41418  Biso   1.000  C
  O36      1.0000 0.17113  0.90850  0.37305  Biso   1.000  O
  H124     1.0000 0.29915  0.84627  0.36949  Biso   1.000  H
  H125     1.0000 0.31099  0.93830  0.35912  Biso   1.000  H
  C98      1.0000 0.18218  0.69461  0.03382  Biso   1.000  C
  H126     1.0000 0.73742  0.88458  0.44410  Biso   1.000  H
  H127     1.0000 0.68050  0.81830  0.42680  Biso   1.000  H
  C99      1.0000 0.69852  0.91426  0.37502  Biso   1.000  C
  C100     1.0000 0.14641  0.91170  0.42761  Biso   1.000  C
  O37      1.0000 0.24330  0.64549  0.01405  Biso   1.000  O
  C101     1.0000 0.09152  0.71846  0.01440  Biso   1.000  C
  O38      1.0000 0.66419  0.87278  0.34023  Biso   1.000  O
  H128     1.0000 0.64470  0.95059  0.39251  Biso   1.000  H
  H129     1.0000 0.75489  0.94497  0.35602  Biso   1.000  H
  H130     1.0000 0.17964  0.95458  0.43729  Biso   1.000  H
  H131     1.0000 0.16889  0.86229  0.44429  Biso   1.000  H
  C102     1.0000 0.03701  0.92461  0.44499  Biso   1.000  C
  N3       1.0000 0.04166  0.78608  0.02852  Biso   1.000  N
  C103     1.0000 0.06511  0.67227  0.98030  Biso   1.000  C
  C104     1.0000 0.61478  0.92036  0.30676  Biso   1.000  C
  H132     1.0000 0.00369  0.88816  0.42912  Biso   1.000  H
  H133     1.0000 0.01588  0.91549  0.48310  Biso   1.000  H
  O39      1.0000 0.01037  0.00313  0.42943  Biso   1.000  O
  C105     1.0000 0.96568  0.80919  0.00693  Biso   1.000  C
  C106     1.0000 0.98556  0.69709  0.95952  Biso   1.000  C
  H134     1.0000 0.10147  0.62458  0.97160  Biso   1.000  H
  H135     1.0000 0.59099  0.97030  0.32232  Biso   1.000  H
  H136     1.0000 0.55603  0.89427  0.30351  Biso   1.000  H
  C107     1.0000 0.68049  0.93670  0.25374  Biso   1.000  C
  C108     1.0000 0.90651  0.01753  0.43450  Biso   1.000  C
  C109     1.0000 0.93498  0.76699  0.97191  Biso   1.000  C
  C110     1.0000 0.91340  0.88707  0.01846  Biso   1.000  C
  H137     1.0000 0.96556  0.66599  0.93673  Biso   1.000  H
  O40      1.0000 0.75181  0.98980  0.25819  Biso   1.000  O
  H138     1.0000 0.71492  0.88780  0.24031  Biso   1.000  H
  H139     1.0000 0.64029  0.95987  0.22959  Biso   1.000  H
  H140     1.0000 0.88136  0.97889  0.41639  Biso   1.000  H
  H141     1.0000 0.87136  0.01289  0.47150  Biso   1.000  H
  C111     1.0000 0.88832  0.09711  0.41151  Biso   1.000  C
  H142     1.0000 0.88104  0.78597  0.95720  Biso   1.000  H
  O41      1.0000 0.86327  0.91982  0.99098  Biso   1.000  O
  O42      1.0000 0.92990  0.91643  0.05990  Biso   1.000  O
  C112     1.0000 0.81654  0.01319  0.21276  Biso   1.000  C
  O43      1.0000 0.93244  0.09902  0.35792  Biso   1.000  O
  H143     1.0000 0.81610  0.11038  0.41732  Biso   1.000  H
  H144     1.0000 0.91781  0.13541  0.42792  Biso   1.000  H
  C113     1.0000 0.88254  0.99427  0.06919  Biso   1.000  C
  C114     1.0000 0.81849  0.98959  0.16536  Biso   1.000  C
  C115     1.0000 0.88467  0.06710  0.21818  Biso   1.000  C
  C116     1.0000 0.90700  0.16658  0.32831  Biso   1.000  C
  H145     1.0000 0.81211  0.99498  0.06749  Biso   1.000  H
  C117     1.0000 0.88829  0.01654  0.12078  Biso   1.000  C
  H146     1.0000 0.91613  0.03251  0.04199  Biso   1.000  H
  H147     1.0000 0.77184  0.95427  0.16218  Biso   1.000  H
  O44      1.0000 0.87370  0.08979  0.26647  Biso   1.000  O
  C118     1.0000 0.95411  0.09252  0.17426  Biso   1.000  C
  H148     1.0000 0.94300  0.21110  0.33369  Biso   1.000  H
  H149     1.0000 0.83482  0.18020  0.33880  Biso   1.000  H
  C119     1.0000 0.93598  0.14871  0.27270  Biso   1.000  C
  C120     1.0000 0.95650  0.06694  0.12646  Biso   1.000  C
  H150     1.0000 0.00065  0.12810  0.17712  Biso   1.000  H
  H151     1.0000 0.92653  0.19600  0.25010  Biso   1.000  H
  H152     1.0000 0.00667  0.12982  0.26318  Biso   1.000  H
  H153     1.0000 0.00564  0.08413  0.09709  Biso   1.000  H
  C121     1.0000 0.86888  0.32091  0.68461  Biso   1.000  C
  O45      1.0000 0.87198  0.28569  0.72172  Biso   1.000  O
  C122     1.0000 0.91974  0.34820  0.71970  Biso   1.000  C
  C123     1.0000 0.97083  0.36989  0.66201  Biso   1.000  C
  H154     1.0000 0.86203  0.28578  0.65852  Biso   1.000  H
  H155     1.0000 0.80988  0.35789  0.69060  Biso   1.000  H
  C124     1.0000 0.80404  0.26008  0.76525  Biso   1.000  C
  H156     1.0000 0.87303  0.39138  0.73402  Biso   1.000  H
  H157     1.0000 0.97027  0.33852  0.74052  Biso   1.000  H
  H158     1.0000 0.99542  0.42270  0.65852  Biso   1.000  H
  H159     1.0000 0.92200  0.37008  0.64049  Biso   1.000  H
  O46      1.0000 0.05135  0.31548  0.64436  Biso   1.000  O
  C125     1.0000 0.74465  0.20030  0.75995  Biso   1.000  C
  C126     1.0000 0.79640  0.28790  0.81223  Biso   1.000  C
  C127     1.0000 0.04173  0.27511  0.60179  Biso   1.000  C
  O47      1.0000 0.75594  0.17829  0.71127  Biso   1.000  O
  C128     1.0000 0.67737  0.17050  0.80403  Biso   1.000  C
  C129     1.0000 0.72975  0.25759  0.85677  Biso   1.000  C
  H160     1.0000 0.83658  0.32842  0.81502  Biso   1.000  H
  H161     1.0000 0.99608  0.23268  0.61402  Biso   1.000  H
  H162     1.0000 0.01461  0.31117  0.57691  Biso   1.000  H
  C130     1.0000 0.14443  0.24212  0.57621  Biso   1.000  C
  C131     1.0000 0.70588  0.11260  0.70434  Biso   1.000  C
  H163     1.0000 0.63624  0.13050  0.80132  Biso   1.000  H
  C132     1.0000 0.67070  0.19931  0.85151  Biso   1.000  C
  C133     1.0000 0.72038  0.29130  0.90716  Biso   1.000  C
  O48      1.0000 0.17511  0.18129  0.60887  Biso   1.000  O
  H164     1.0000 0.19200  0.28361  0.56921  Biso   1.000  H
  H165     1.0000 0.14312  0.22218  0.54282  Biso   1.000  H
  C134     1.0000 0.72519  0.10529  0.64761  Biso   1.000  C
  H166     1.0000 0.73137  0.06498  0.72160  Biso   1.000  H
  H167     1.0000 0.63368  0.12038  0.71939  Biso   1.000  H
  H168     1.0000 0.62467  0.17867  0.88111  Biso   1.000  H
  O49      1.0000 0.81026  0.26849  0.92600  Biso   1.000  O
  H169     1.0000 0.66137  0.27222  0.93262  Biso   1.000  H
  H170     1.0000 0.71208  0.34869  0.90271  Biso   1.000  H
  C135     1.0000 0.26907  0.14280  0.58581  Biso   1.000  C
  O50      1.0000 0.82894  0.09147  0.62695  Biso   1.000  O
  H171     1.0000 0.70099  0.15371  0.63051  Biso   1.000  H
  H172     1.0000 0.68906  0.06167  0.64092  Biso   1.000  H
  C136     1.0000 0.81789  0.30543  0.96617  Biso   1.000  C
  H173     1.0000 0.26265  0.11540  0.55590  Biso   1.000  H
  H174     1.0000 0.31957  0.18167  0.57319  Biso   1.000  H
  C137     1.0000 0.30153  0.08572  0.62501  Biso   1.000  C
  C138     1.0000 0.85364  0.08827  0.57242  Biso   1.000  C
  O51      1.0000 0.75675  0.35449  0.98598  Biso   1.000  O
  C139     1.0000 0.90862  0.28151  0.98560  Biso   1.000  C
  O52      1.0000 0.33588  0.12720  0.65976  Biso   1.000  O
  H175     1.0000 0.35535  0.04939  0.60752  Biso   1.000  H
  H176     1.0000 0.24517  0.05501  0.64401  Biso   1.000  H
  H177     1.0000 0.82043  0.04539  0.56271  Biso   1.000  H
  H178     1.0000 0.83118  0.13769  0.55570  Biso   1.000  H
  C140     1.0000 0.96306  0.07542  0.55501  Biso   1.000  C
  N4       1.0000 0.95839  0.21389  0.97151  Biso   1.000  N
  C141     1.0000 0.93496  0.32771  0.01969  Biso   1.000  C
  C142     1.0000 0.38527  0.07962  0.69327  Biso   1.000  C
  H179     1.0000 0.99636  0.11181  0.57091  Biso   1.000  H
  H180     1.0000 0.98419  0.08448  0.51689  Biso   1.000  H
  O53      1.0000 0.98968  0.99690  0.57060  Biso   1.000  O
  C143     1.0000 0.03437  0.19078  0.99311  Biso   1.000  C
  H181     1.0000 0.89860  0.37539  0.02840  Biso   1.000  H
  C144     1.0000 0.01449  0.30294  0.04051  Biso   1.000  C
  C145     1.0000 0.31957  0.06333  0.74625  Biso   1.000  C
  H182     1.0000 0.40906  0.02968  0.67772  Biso   1.000  H
  H183     1.0000 0.44404  0.10570  0.69649  Biso   1.000  H
  C146     1.0000 0.09356  0.98245  0.56549  Biso   1.000  C
  C147     1.0000 0.08667  0.11291  0.98153  Biso   1.000  C
  C148     1.0000 0.06516  0.23305  0.02809  Biso   1.000  C
  H184     1.0000 0.03449  0.33404  0.06330  Biso   1.000  H
  O54      1.0000 0.24826  0.01018  0.74180  Biso   1.000  O
  H185     1.0000 0.28513  0.11217  0.75972  Biso   1.000  H
  H186     1.0000 0.35978  0.04011  0.77040  Biso   1.000  H
  H187     1.0000 0.12878  0.98709  0.52850  Biso   1.000  H
  C149     1.0000 0.11174  0.90286  0.58852  Biso   1.000  C
  H188     1.0000 0.11878  0.02108  0.58360  Biso   1.000  H
  O55      1.0000 0.07018  0.08354  0.94009  Biso   1.000  O
  O56      1.0000 0.13680  0.08015  0.00901  Biso   1.000  O
  H189     1.0000 0.11903  0.21401  0.04279  Biso   1.000  H
  C150     1.0000 0.18360  0.98679  0.78723  Biso   1.000  C
  O57      1.0000 0.06763  0.90095  0.64208  Biso   1.000  O
  H190     1.0000 0.18395  0.88959  0.58271  Biso   1.000  H
  H191     1.0000 0.08224  0.86456  0.57211  Biso   1.000  H
  C151     1.0000 0.11753  0.00571  0.93080  Biso   1.000  C
  C152     1.0000 0.11539  0.93288  0.78185  Biso   1.000  C
  C153     1.0000 0.18158  0.01039  0.83464  Biso   1.000  C
  C154     1.0000 0.09305  0.83339  0.67172  Biso   1.000  C
  C155     1.0000 0.11175  0.98350  0.87926  Biso   1.000  C
  H192     1.0000 0.08395  0.96747  0.95801  Biso   1.000  H
  H193     1.0000 0.18796  0.00499  0.93250  Biso   1.000  H
  O58      1.0000 0.12637  0.91019  0.73352  Biso   1.000  O
  C156     1.0000 0.04596  0.90745  0.82574  Biso   1.000  C
  H194     1.0000 0.22823  0.04570  0.83781  Biso   1.000  H
  H195     1.0000 0.05707  0.78888  0.66630  Biso   1.000  H
  H196     1.0000 0.16526  0.81978  0.66119  Biso   1.000  H
  C157     1.0000 0.06409  0.85127  0.72729  Biso   1.000  C
  C158     1.0000 0.04356  0.93310  0.87353  Biso   1.000  C
  H197     1.0000 0.99940  0.87187  0.82291  Biso   1.000  H
  H198     1.0000 0.99340  0.87016  0.73681  Biso   1.000  H
  H199     1.0000 0.07354  0.80398  0.74989  Biso   1.000  H
  H200     1.0000 0.99443  0.91585  0.90290  Biso   1.000  H
