data_image0
_cell_length_a       12.436
_cell_length_b       20.83
_cell_length_c       14.261
_cell_angle_alpha    90
_cell_angle_beta     113.35
_cell_angle_gamma    90

_symmetry_space_group_name_H-M    "P 1"
_symmetry_int_tables_number       1

loop_
  _symmetry_equiv_pos_as_xyz
  'x, y, z'

loop_
  _atom_site_label
  _atom_site_occupancy
  _atom_site_fract_x
  _atom_site_fract_y
  _atom_site_fract_z
  _atom_site_thermal_displace_type
  _atom_site_B_iso_or_equiv
  _atom_site_type_symbol
  C1       1.0000 0.53839  0.32784  0.31887  Biso   1.000  C
  N1       1.0000 0.42346  0.33682  0.25869  Biso   1.000  N
  N2       1.0000 0.54638  0.28334  0.39219  Biso   1.000  N
  O1       1.0000 0.62181  0.35358  0.30833  Biso   1.000  O
  C2       1.0000 0.34541  0.29976  0.29183  Biso   1.000  C
  C3       1.0000 0.38047  0.37700  0.16887  Biso   1.000  C
  C4       1.0000 0.43133  0.26337  0.38692  Biso   1.000  C
  C5       1.0000 0.65493  0.26476  0.47499  Biso   1.000  C
  N3       1.0000 0.27830  0.33913  0.33277  Biso   1.000  N
  H1       1.0000 0.29508  0.27019  0.23807  Biso   1.000  H
  N4       1.0000 0.33272  0.43783  0.18323  Biso   1.000  N
  H2       1.0000 0.44493  0.38541  0.14741  Biso   1.000  H
  H3       1.0000 0.31971  0.35348  0.11357  Biso   1.000  H
  N5       1.0000 0.40356  0.28824  0.46949  Biso   1.000  N
  H4       1.0000 0.42064  0.21632  0.37951  Biso   1.000  H
  N6       1.0000 0.68053  0.30019  0.56862  Biso   1.000  N
  H5       1.0000 0.71948  0.27091  0.45299  Biso   1.000  H
  H6       1.0000 0.65112  0.21892  0.48889  Biso   1.000  H
  C6       1.0000 0.16486  0.36567  0.27037  Biso   1.000  C
  C7       1.0000 0.30990  0.32976  0.43451  Biso   1.000  C
  C8       1.0000 0.38326  0.49448  0.17360  Biso   1.000  C
  C9       1.0000 0.20667  0.44590  0.15588  Biso   1.000  C
  C10      1.0000 0.43823  0.25641  0.56771  Biso   1.000  C
  C11      1.0000 0.65859  0.27355  0.65394  Biso   1.000  C
  C12      1.0000 0.76732  0.34551  0.60070  Biso   1.000  C
  N7       1.0000 0.17008  0.43034  0.23692  Biso   1.000  N
  H7       1.0000 0.11549  0.36500  0.30948  Biso   1.000  H
  H8       1.0000 0.12765  0.33831  0.21026  Biso   1.000  H
  O2       1.0000 0.26367  0.35478  0.48652  Biso   1.000  O
  O3       1.0000 0.48387  0.50010  0.17842  Biso   1.000  O
  N8       1.0000 0.30451  0.54316  0.15779  Biso   1.000  N
  C13      1.0000 0.18894  0.51944  0.14412  Biso   1.000  C
  H9       1.0000 0.15948  0.42300  0.09188  Biso   1.000  H
  N9       1.0000 0.54012  0.28339  0.64699  Biso   1.000  N
  H10      1.0000 0.37271  0.25828  0.58932  Biso   1.000  H
  H11      1.0000 0.45352  0.21109  0.55923  Biso   1.000  H
  H12      1.0000 0.68269  0.22799  0.66661  Biso   1.000  H
  C14      1.0000 0.73280  0.31743  0.74467  Biso   1.000  C
  O4       1.0000 0.81140  0.37096  0.54731  Biso   1.000  O
  N10      1.0000 0.79483  0.35828  0.70121  Biso   1.000  N
  C15      1.0000 0.14289  0.48325  0.27954  Biso   1.000  C
  C16      1.0000 0.32902  0.60879  0.14130  Biso   1.000  C
  N11      1.0000 0.15384  0.53562  0.22684  Biso   1.000  N
  H13      1.0000 0.12842  0.53130  0.07661  Biso   1.000  H
  C17      1.0000 0.53384  0.32832  0.71420  Biso   1.000  C
  N12      1.0000 0.64465  0.35036  0.77010  Biso   1.000  N
  H14      1.0000 0.78718  0.29222  0.80310  Biso   1.000  H
  C18      1.0000 0.88755  0.40163  0.76033  Biso   1.000  C
  O5       1.0000 0.11341  0.48363  0.35179  Biso   1.000  O
  N13      1.0000 0.35537  0.64964  0.22989  Biso   1.000  N
  H15      1.0000 0.39569  0.60951  0.12098  Biso   1.000  H
  H16      1.0000 0.26120  0.62640  0.08463  Biso   1.000  H
  C19      1.0000 0.11247  0.59837  0.23967  Biso   1.000  C
  O6       1.0000 0.44462  0.34441  0.72489  Biso   1.000  O
  C20      1.0000 0.67101  0.39121  0.85870  Biso   1.000  C
  N14      1.0000 0.84622  0.46438  0.77324  Biso   1.000  N
  H17      1.0000 0.93083  0.38272  0.82777  Biso   1.000  H
  H18      1.0000 0.94213  0.40629  0.72649  Biso   1.000  H
  C21      1.0000 0.46618  0.67168  0.28580  Biso   1.000  C
  C22      1.0000 0.26722  0.68257  0.25533  Biso   1.000  C
  N15      1.0000 0.20520  0.64172  0.29878  Biso   1.000  N
  H19      1.0000 0.06919  0.61728  0.17223  Biso   1.000  H
  H20      1.0000 0.05789  0.59371  0.27350  Biso   1.000  H
  N16      1.0000 0.69551  0.45684  0.84220  Biso   1.000  N
  H21      1.0000 0.60433  0.39049  0.87902  Biso   1.000  H
  H22      1.0000 0.73882  0.37360  0.91537  Biso   1.000  H
  C23      1.0000 0.81109  0.48056  0.85587  Biso   1.000  C
  C24      1.0000 0.85708  0.51675  0.72054  Biso   1.000  C
  O7       1.0000 0.55540  0.65559  0.27511  Biso   1.000  O
  N17      1.0000 0.45990  0.71661  0.35301  Biso   1.000  N
  C25      1.0000 0.34139  0.72645  0.34614  Biso   1.000  C
  H23      1.0000 0.21276  0.70778  0.19690  Biso   1.000  H
  C26      1.0000 0.23271  0.65449  0.39930  Biso   1.000  C
  C27      1.0000 0.61668  0.50552  0.82639  Biso   1.000  C
  H24      1.0000 0.87161  0.46870  0.92339  Biso   1.000  H
  C28      1.0000 0.79328  0.55410  0.84411  Biso   1.000  C
  O8       1.0000 0.88661  0.51637  0.64821  Biso   1.000  O
  N18      1.0000 0.82986  0.56966  0.76308  Biso   1.000  N
  C29      1.0000 0.56179  0.74359  0.43229  Biso   1.000  C
  N19      1.0000 0.31953  0.69981  0.43145  Biso   1.000  N
  H25      1.0000 0.31734  0.77201  0.33338  Biso   1.000  H
  O9       1.0000 0.18862  0.62904  0.45268  Biso   1.000  O
  O10      1.0000 0.51615  0.49990  0.82158  Biso   1.000  O
  N20      1.0000 0.66731  0.56217  0.81677  Biso   1.000  N
  H26      1.0000 0.84054  0.57700  0.90812  Biso   1.000  H
  C30      1.0000 0.83508  0.63433  0.72962  Biso   1.000  C
  N21      1.0000 0.59638  0.71176  0.53051  Biso   1.000  N
  H27      1.0000 0.62731  0.74172  0.41068  Biso   1.000  H
  H28      1.0000 0.54651  0.78891  0.44077  Biso   1.000  H
  C31      1.0000 0.34509  0.73524  0.52501  Biso   1.000  C
  C32      1.0000 0.61956  0.62300  0.83113  Biso   1.000  C
  N22      1.0000 0.72172  0.66087  0.66722  Biso   1.000  N
  H29      1.0000 0.88453  0.63500  0.69052  Biso   1.000  H
  H30      1.0000 0.87229  0.66169  0.78973  Biso   1.000  H
  C33      1.0000 0.56869  0.73663  0.61307  Biso   1.000  C
  C34      1.0000 0.69012  0.67024  0.56549  Biso   1.000  C
  N23      1.0000 0.45364  0.71666  0.60780  Biso   1.000  N
  H31      1.0000 0.28054  0.72909  0.54701  Biso   1.000  H
  H32      1.0000 0.34890  0.78108  0.51111  Biso   1.000  H
  N24      1.0000 0.57648  0.66318  0.74131  Biso   1.000  N
  H33      1.0000 0.55509  0.61459  0.85259  Biso   1.000  H
  H34      1.0000 0.68031  0.64652  0.88643  Biso   1.000  H
  C35      1.0000 0.65465  0.70024  0.70824  Biso   1.000  C
  H35      1.0000 0.57938  0.78368  0.62048  Biso   1.000  H
  O11      1.0000 0.73628  0.64522  0.51348  Biso   1.000  O
  C36      1.0000 0.46164  0.67216  0.68113  Biso   1.000  C
  H36      1.0000 0.70494  0.72981  0.76193  Biso   1.000  H
  O12      1.0000 0.37822  0.64642  0.69167  Biso   1.000  O
  N25      1.0000 0.54013  0.21661  0.14702  Biso   1.000  N
  C37      1.0000 0.53385  0.17168  0.21424  Biso   1.000  C
  C38      1.0000 0.43820  0.24359  0.06767  Biso   1.000  C
  C39      1.0000 0.65856  0.22645  0.15390  Biso   1.000  C
  O13      1.0000 0.44459  0.15559  0.22485  Biso   1.000  O
  N26      1.0000 0.64462  0.14964  0.27007  Biso   1.000  N
  H37      1.0000 0.37268  0.24172  0.08928  Biso   1.000  H
  H38      1.0000 0.45349  0.28891  0.05919  Biso   1.000  H
  N27      1.0000 0.40357  0.21176  0.96953  Biso   1.000  N
  C40      1.0000 0.73281  0.18257  0.24471  Biso   1.000  C
  N28      1.0000 0.68050  0.19981  0.06859  Biso   1.000  N
  H39      1.0000 0.68266  0.27201  0.16658  Biso   1.000  H
  C41      1.0000 0.67101  0.10879  0.35874  Biso   1.000  C
  C42      1.0000 0.43130  0.23663  0.88689  Biso   1.000  C
  C43      1.0000 0.30991  0.17024  0.93455  Biso   1.000  C
  N29      1.0000 0.79480  0.14172  0.20118  Biso   1.000  N
  H40      1.0000 0.78718  0.20778  0.30314  Biso   1.000  H
  C44      1.0000 0.76729  0.15449  0.10066  Biso   1.000  C
  C45      1.0000 0.65486  0.23524  0.97502  Biso   1.000  C
  N30      1.0000 0.69548  0.04316  0.34217  Biso   1.000  N
  H41      1.0000 0.60430  0.10951  0.37898  Biso   1.000  H
  H42      1.0000 0.73883  0.12640  0.41541  Biso   1.000  H
  N31      1.0000 0.54639  0.21666  0.89223  Biso   1.000  N
  C46      1.0000 0.34538  0.20024  0.79180  Biso   1.000  C
  H43      1.0000 0.42062  0.28368  0.87948  Biso   1.000  H
  O14      1.0000 0.26367  0.14522  0.98656  Biso   1.000  O
  N32      1.0000 0.27831  0.16087  0.83281  Biso   1.000  N
  C47      1.0000 0.88752  0.09837  0.26029  Biso   1.000  C
  O15      1.0000 0.81137  0.12904  0.04728  Biso   1.000  O
  H44      1.0000 0.71948  0.22909  0.95303  Biso   1.000  H
  H45      1.0000 0.65113  0.28108  0.98893  Biso   1.000  H
  C48      1.0000 0.81109  0.01944  0.35591  Biso   1.000  C
  C49      1.0000 0.61669  0.99448  0.32643  Biso   1.000  C
  C50      1.0000 0.53839  0.17216  0.81891  Biso   1.000  C
  N33      1.0000 0.42347  0.16318  0.75873  Biso   1.000  N
  H46      1.0000 0.29509  0.22981  0.73811  Biso   1.000  H
  C51      1.0000 0.16487  0.13433  0.77041  Biso   1.000  C
  N34      1.0000 0.84619  0.03562  0.27320  Biso   1.000  N
  H47      1.0000 0.93084  0.11728  0.32781  Biso   1.000  H
  H48      1.0000 0.94214  0.09371  0.22653  Biso   1.000  H
  H49      1.0000 0.87161  0.03130  0.42343  Biso   1.000  H
  C52      1.0000 0.79333  0.94590  0.34408  Biso   1.000  C
  O16      1.0000 0.51612  0.00010  0.32154  Biso   1.000  O
  N35      1.0000 0.66731  0.93783  0.31681  Biso   1.000  N
  O17      1.0000 0.62181  0.14642  0.80837  Biso   1.000  O
  C53      1.0000 0.38047  0.12300  0.66891  Biso   1.000  C
  N36      1.0000 0.17005  0.06966  0.73688  Biso   1.000  N
  H50      1.0000 0.11550  0.13500  0.80952  Biso   1.000  H
  H51      1.0000 0.12766  0.16169  0.71030  Biso   1.000  H
  C54      1.0000 0.85713  0.98325  0.22050  Biso   1.000  C
  N37      1.0000 0.82987  0.93034  0.26312  Biso   1.000  N
  H52      1.0000 0.84051  0.92300  0.40808  Biso   1.000  H
  C55      1.0000 0.61953  0.87700  0.33109  Biso   1.000  C
  N38      1.0000 0.33269  0.06217  0.68319  Biso   1.000  N
  H53      1.0000 0.44490  0.11459  0.64737  Biso   1.000  H
  H54      1.0000 0.31972  0.14652  0.61361  Biso   1.000  H
  C56      1.0000 0.20667  0.05410  0.65592  Biso   1.000  C
  C57      1.0000 0.14287  0.01675  0.77950  Biso   1.000  C
  O18      1.0000 0.88658  0.98363  0.14817  Biso   1.000  O
  C58      1.0000 0.83513  0.86567  0.22959  Biso   1.000  C
  N39      1.0000 0.57645  0.83682  0.24127  Biso   1.000  N
  H55      1.0000 0.55510  0.88541  0.35263  Biso   1.000  H
  H56      1.0000 0.68028  0.85348  0.38639  Biso   1.000  H
  C59      1.0000 0.38327  0.00552  0.67364  Biso   1.000  C
  C60      1.0000 0.18891  0.98056  0.64409  Biso   1.000  C
  H57      1.0000 0.15949  0.07700  0.59192  Biso   1.000  H
  N40      1.0000 0.15381  0.96438  0.72680  Biso   1.000  N
  O19      1.0000 0.11342  0.01637  0.85183  Biso   1.000  O
  N41      1.0000 0.72169  0.83913  0.16719  Biso   1.000  N
  H58      1.0000 0.88450  0.86500  0.19048  Biso   1.000  H
  H59      1.0000 0.87226  0.83831  0.28970  Biso   1.000  H
  C61      1.0000 0.46161  0.82784  0.18109  Biso   1.000  C
  C62      1.0000 0.65462  0.79976  0.20820  Biso   1.000  C
  O20      1.0000 0.48388  0.99990  0.67846  Biso   1.000  O
  N42      1.0000 0.30452  0.95684  0.65783  Biso   1.000  N
  H60      1.0000 0.12842  0.96870  0.57665  Biso   1.000  H
  C63      1.0000 0.11248  0.90163  0.73971  Biso   1.000  C
  C64      1.0000 0.69013  0.82976  0.06553  Biso   1.000  C
  O21      1.0000 0.37822  0.85358  0.19170  Biso   1.000  O
  N43      1.0000 0.45361  0.78334  0.10777  Biso   1.000  N
  H61      1.0000 0.70491  0.77019  0.26189  Biso   1.000  H
  C65      1.0000 0.56870  0.76337  0.11311  Biso   1.000  C
  C66      1.0000 0.32902  0.89121  0.64134  Biso   1.000  C
  N44      1.0000 0.20520  0.85828  0.79882  Biso   1.000  N
  H62      1.0000 0.06916  0.88272  0.67219  Biso   1.000  H
  H63      1.0000 0.05790  0.90629  0.77354  Biso   1.000  H
  O22      1.0000 0.73625  0.85478  0.01344  Biso   1.000  O
  N45      1.0000 0.59635  0.78824  0.03047  Biso   1.000  N
  C67      1.0000 0.34506  0.76476  0.02498  Biso   1.000  C
  H64      1.0000 0.57938  0.71632  0.12052  Biso   1.000  H
  N46      1.0000 0.35538  0.85036  0.72993  Biso   1.000  N
  H65      1.0000 0.39570  0.89049  0.62102  Biso   1.000  H
  H66      1.0000 0.26117  0.87360  0.58459  Biso   1.000  H
  C68      1.0000 0.26719  0.81743  0.75529  Biso   1.000  C
  C69      1.0000 0.23271  0.84551  0.89934  Biso   1.000  C
  C70      1.0000 0.56180  0.75641  0.93233  Biso   1.000  C
  N47      1.0000 0.31950  0.80019  0.93141  Biso   1.000  N
  H67      1.0000 0.28052  0.77091  0.04697  Biso   1.000  H
  H68      1.0000 0.34887  0.71892  0.01107  Biso   1.000  H
  C71      1.0000 0.46619  0.82832  0.78584  Biso   1.000  C
  C72      1.0000 0.34136  0.77355  0.84610  Biso   1.000  C
  H69      1.0000 0.21277  0.79222  0.69694  Biso   1.000  H
  O23      1.0000 0.18863  0.87096  0.95272  Biso   1.000  O
  N48      1.0000 0.45987  0.78339  0.85298  Biso   1.000  N
  H70      1.0000 0.62732  0.75828  0.91072  Biso   1.000  H
  H71      1.0000 0.54651  0.71109  0.94081  Biso   1.000  H
  O24      1.0000 0.55541  0.84441  0.77515  Biso   1.000  O
  H72      1.0000 0.31726  0.72799  0.83342  Biso   1.000  H
  Ne1      1.0000 0.50000  0.50000  0.50000  Biso   1.000  Ne
  He1      1.0000 0.33745  0.50199  0.57690  Biso   1.000  He
  He2      1.0000 0.69311  0.50003  0.41075  Biso   1.000  He
  Ar1      1.0000 0.50001  0.50000  0.50000  Biso   1.000  Ar
  Ne2      1.0000 0.49999  0.00000  0.00001  Biso   1.000  Ne
  He3      1.0000 0.28701  0.00071  0.09798  Biso   1.000  He
  He4      1.0000 0.69408  0.99994  0.91032  Biso   1.000  He
  Ar2      1.0000 0.50000  0.99999  0.00001  Biso   1.000  Ar
