data_image0
_cell_length_a       18.667
_cell_length_b       16.351
_cell_length_c       18.913
_cell_angle_alpha    90
_cell_angle_beta     102.78
_cell_angle_gamma    90

_symmetry_space_group_name_H-M    "P 1"
_symmetry_int_tables_number       1

loop_
  _symmetry_equiv_pos_as_xyz
  'x, y, z'

loop_
  _atom_site_label
  _atom_site_occupancy
  _atom_site_fract_x
  _atom_site_fract_y
  _atom_site_fract_z
  _atom_site_thermal_displace_type
  _atom_site_B_iso_or_equiv
  _atom_site_type_symbol
  O1       1.0000 0.63782  0.62112  0.54694  Biso   1.000  O
  C1       1.0000 0.68641  0.66926  0.57492  Biso   1.000  C
  N1       1.0000 0.75693  0.66919  0.56592  Biso   1.000  N
  N2       1.0000 0.67825  0.73384  0.61834  Biso   1.000  N
  C2       1.0000 0.78384  0.61256  0.51891  Biso   1.000  C
  C3       1.0000 0.79925  0.73818  0.60126  Biso   1.000  C
  C4       1.0000 0.74452  0.78228  0.63987  Biso   1.000  C
  C5       1.0000 0.60790  0.75745  0.63260  Biso   1.000  C
  N3       1.0000 0.82781  0.54737  0.55805  Biso   1.000  N
  H1       1.0000 0.74148  0.58853  0.48432  Biso   1.000  H
  H2       1.0000 0.81369  0.64302  0.49050  Biso   1.000  H
  N4       1.0000 0.85989  0.71696  0.66079  Biso   1.000  N
  H3       1.0000 0.81549  0.77481  0.56548  Biso   1.000  H
  N5       1.0000 0.78030  0.77683  0.71631  Biso   1.000  N
  H4       1.0000 0.73632  0.84038  0.62360  Biso   1.000  H
  N6       1.0000 0.59634  0.73005  0.70151  Biso   1.000  N
  H5       1.0000 0.60389  0.81781  0.63049  Biso   1.000  H
  H6       1.0000 0.56832  0.73500  0.59367  Biso   1.000  H
  C6       1.0000 0.80186  0.46884  0.55626  Biso   1.000  C
  C7       1.0000 0.90752  0.55122  0.58196  Biso   1.000  C
  C8       1.0000 0.92957  0.68607  0.65142  Biso   1.000  C
  C9       1.0000 0.84977  0.74485  0.72656  Biso   1.000  C
  C10      1.0000 0.75300  0.81824  0.77308  Biso   1.000  C
  C11      1.0000 0.55720  0.66094  0.70997  Biso   1.000  C
  C12      1.0000 0.61988  0.77585  0.76831  Biso   1.000  C
  O2       1.0000 0.73864  0.44658  0.53235  Biso   1.000  O
  N7       1.0000 0.85933  0.41887  0.58684  Biso   1.000  N
  C13      1.0000 0.92836  0.46217  0.60631  Biso   1.000  C
  N8       1.0000 0.93354  0.59801  0.64762  Biso   1.000  N
  H7       1.0000 0.93133  0.56902  0.54211  Biso   1.000  H
  H8       1.0000 0.96857  0.70552  0.69229  Biso   1.000  H
  H9       1.0000 0.93961  0.70938  0.60631  Biso   1.000  H
  O3       1.0000 0.89564  0.74191  0.78398  Biso   1.000  O
  N9       1.0000 0.69859  0.77121  0.79991  Biso   1.000  N
  H10      1.0000 0.79491  0.83010  0.81401  Biso   1.000  H
  H11      1.0000 0.73113  0.87108  0.75410  Biso   1.000  H
  O4       1.0000 0.53028  0.61299  0.66155  Biso   1.000  O
  N10      1.0000 0.55231  0.65660  0.78110  Biso   1.000  N
  C14      1.0000 0.58516  0.72729  0.82274  Biso   1.000  C
  H12      1.0000 0.60211  0.83371  0.76310  Biso   1.000  H
  C15      1.0000 0.85268  0.33111  0.58440  Biso   1.000  C
  N11      1.0000 0.95680  0.47012  0.68422  Biso   1.000  N
  H13      1.0000 0.96591  0.43899  0.58148  Biso   1.000  H
  C16      1.0000 0.96462  0.55006  0.70547  Biso   1.000  C
  C17      1.0000 0.71250  0.73702  0.86796  Biso   1.000  C
  C18      1.0000 0.50281  0.60076  0.80599  Biso   1.000  C
  N12      1.0000 0.64782  0.70724  0.88026  Biso   1.000  N
  H14      1.0000 0.54790  0.76038  0.84079  Biso   1.000  H
  N13      1.0000 0.84813  0.29429  0.65255  Biso   1.000  N
  H15      1.0000 0.89560  0.30787  0.56868  Biso   1.000  H
  H16      1.0000 0.80819  0.31619  0.54748  Biso   1.000  H
  C19      1.0000 0.99447  0.40383  0.72754  Biso   1.000  C
  O5       1.0000 0.99561  0.57495  0.76608  Biso   1.000  O
  O6       1.0000 0.77226  0.73384  0.91084  Biso   1.000  O
  N14      1.0000 0.54110  0.53495  0.85061  Biso   1.000  N
  H17      1.0000 0.46863  0.57691  0.76343  Biso   1.000  H
  H18      1.0000 0.47321  0.63170  0.83429  Biso   1.000  H
  C20      1.0000 0.64105  0.67513  0.94977  Biso   1.000  C
  C21      1.0000 0.78301  0.26445  0.66557  Biso   1.000  C
  C22      1.0000 0.91069  0.27760  0.71084  Biso   1.000  C
  N15      1.0000 0.94464  0.34762  0.75258  Biso   1.000  N
  H19      1.0000 0.02921  0.42689  0.77020  Biso   1.000  H
  H20      1.0000 0.02350  0.37300  0.69858  Biso   1.000  H
  C23      1.0000 0.53173  0.45477  0.82935  Biso   1.000  C
  C24      1.0000 0.56691  0.54217  0.92873  Biso   1.000  C
  N16      1.0000 0.63432  0.58736  0.95199  Biso   1.000  N
  H21      1.0000 0.68468  0.69201  0.98691  Biso   1.000  H
  H22      1.0000 0.59742  0.70002  0.96278  Biso   1.000  H
  O7       1.0000 0.72341  0.26616  0.62333  Biso   1.000  O
  N17      1.0000 0.79824  0.23093  0.73372  Biso   1.000  N
  H23      1.0000 0.94813  0.24408  0.69332  Biso   1.000  H
  C25      1.0000 0.87649  0.22855  0.76570  Biso   1.000  C
  C26      1.0000 0.94294  0.34041  0.82485  Biso   1.000  C
  N18      1.0000 0.55946  0.40640  0.88807  Biso   1.000  N
  O8       1.0000 0.50287  0.43019  0.76847  Biso   1.000  O
  C27      1.0000 0.58985  0.45337  0.95270  Biso   1.000  C
  H24      1.0000 0.52752  0.56290  0.95232  Biso   1.000  H
  C28      1.0000 0.69329  0.53752  0.97943  Biso   1.000  C
  C29      1.0000 0.74408  0.18555  0.76218  Biso   1.000  C
  N19      1.0000 0.89960  0.27478  0.83223  Biso   1.000  N
  H25      1.0000 0.89542  0.17112  0.77129  Biso   1.000  H
  O9       1.0000 0.97592  0.38310  0.87425  Biso   1.000  O
  C30      1.0000 0.56811  0.31919  0.88124  Biso   1.000  C
  N20      1.0000 0.67003  0.45783  0.97243  Biso   1.000  N
  H26      1.0000 0.56898  0.43581  0.99461  Biso   1.000  H
  O10      1.0000 0.75559  0.56125  0.00545  Biso   1.000  O
  N21      1.0000 0.71826  0.22898  0.81813  Biso   1.000  N
  H27      1.0000 0.70168  0.17308  0.72190  Biso   1.000  H
  H28      1.0000 0.76590  0.13290  0.78208  Biso   1.000  H
  C31      1.0000 0.89010  0.24684  0.90244  Biso   1.000  C
  N22      1.0000 0.64003  0.29399  0.87159  Biso   1.000  N
  H29      1.0000 0.53047  0.29949  0.83928  Biso   1.000  H
  H30      1.0000 0.55868  0.29228  0.92521  Biso   1.000  H
  C32      1.0000 0.71375  0.39374  0.01505  Biso   1.000  C
  C33      1.0000 0.64988  0.26482  0.80604  Biso   1.000  C
  C34      1.0000 0.75293  0.22311  0.89463  Biso   1.000  C
  N23      1.0000 0.82028  0.26977  0.91789  Biso   1.000  N
  H31      1.0000 0.89458  0.18647  0.90450  Biso   1.000  H
  H32      1.0000 0.93010  0.26971  0.94061  Biso   1.000  H
  C35      1.0000 0.69790  0.26867  0.93188  Biso   1.000  C
  N24      1.0000 0.74192  0.33496  0.97054  Biso   1.000  N
  H33      1.0000 0.75549  0.41912  0.04947  Biso   1.000  H
  H34      1.0000 0.68315  0.36469  0.04367  Biso   1.000  H
  O11      1.0000 0.60595  0.26940  0.74798  Biso   1.000  O
  H35      1.0000 0.75960  0.16482  0.91079  Biso   1.000  H
  C36      1.0000 0.81338  0.33123  0.96528  Biso   1.000  C
  H36      1.0000 0.67883  0.23191  0.96582  Biso   1.000  H
  O12      1.0000 0.86403  0.37319  0.99932  Biso   1.000  O
  O13      1.0000 0.36221  0.37888  0.45304  Biso   1.000  O
  C37      1.0000 0.31358  0.33074  0.42511  Biso   1.000  C
  N25      1.0000 0.32172  0.26616  0.38163  Biso   1.000  N
  N26      1.0000 0.24310  0.33081  0.43406  Biso   1.000  N
  C38      1.0000 0.25546  0.21772  0.36011  Biso   1.000  C
  C39      1.0000 0.39213  0.24255  0.36737  Biso   1.000  C
  C40      1.0000 0.20073  0.26182  0.39871  Biso   1.000  C
  C41      1.0000 0.21614  0.38744  0.48107  Biso   1.000  C
  N27      1.0000 0.21969  0.22317  0.28372  Biso   1.000  N
  H37      1.0000 0.26371  0.15962  0.37637  Biso   1.000  H
  N28      1.0000 0.40365  0.26995  0.29852  Biso   1.000  N
  H38      1.0000 0.39609  0.18219  0.36949  Biso   1.000  H
  H39      1.0000 0.43172  0.26500  0.40630  Biso   1.000  H
  N29      1.0000 0.14014  0.28304  0.33918  Biso   1.000  N
  H40      1.0000 0.18449  0.22519  0.43449  Biso   1.000  H
  N30      1.0000 0.17218  0.45263  0.44198  Biso   1.000  N
  H41      1.0000 0.25851  0.41147  0.51571  Biso   1.000  H
  H42      1.0000 0.18629  0.35698  0.50948  Biso   1.000  H
  C42      1.0000 0.15022  0.25515  0.27347  Biso   1.000  C
  C43      1.0000 0.24697  0.18176  0.22690  Biso   1.000  C
  C44      1.0000 0.38011  0.22415  0.23172  Biso   1.000  C
  C45      1.0000 0.44278  0.33906  0.29001  Biso   1.000  C
  C46      1.0000 0.07042  0.31393  0.34861  Biso   1.000  C
  C47      1.0000 0.09251  0.44878  0.41801  Biso   1.000  C
  C48      1.0000 0.19818  0.53116  0.44371  Biso   1.000  C
  O14      1.0000 0.10440  0.25809  0.21605  Biso   1.000  O
  N31      1.0000 0.30139  0.22879  0.20006  Biso   1.000  N
  H43      1.0000 0.20508  0.16990  0.18602  Biso   1.000  H
  H44      1.0000 0.26891  0.12892  0.24587  Biso   1.000  H
  C49      1.0000 0.41482  0.27271  0.17723  Biso   1.000  C
  H45      1.0000 0.39787  0.16629  0.23687  Biso   1.000  H
  N32      1.0000 0.44767  0.34340  0.21887  Biso   1.000  N
  O15      1.0000 0.46970  0.38701  0.33842  Biso   1.000  O
  N33      1.0000 0.06644  0.40199  0.35236  Biso   1.000  N
  H46      1.0000 0.03141  0.29448  0.30768  Biso   1.000  H
  H47      1.0000 0.06039  0.29062  0.39372  Biso   1.000  H
  H48      1.0000 0.06872  0.43098  0.45792  Biso   1.000  H
  C50      1.0000 0.07162  0.53783  0.39367  Biso   1.000  C
  O16      1.0000 0.26134  0.55342  0.46762  Biso   1.000  O
  N34      1.0000 0.14066  0.58113  0.41319  Biso   1.000  N
  C51      1.0000 0.28749  0.26298  0.13207  Biso   1.000  C
  N35      1.0000 0.35216  0.29276  0.11971  Biso   1.000  N
  H49      1.0000 0.45208  0.23962  0.15918  Biso   1.000  H
  C52      1.0000 0.49717  0.39924  0.19399  Biso   1.000  C
  C53      1.0000 0.03538  0.44994  0.29456  Biso   1.000  C
  N36      1.0000 0.04323  0.52988  0.31576  Biso   1.000  N
  H50      1.0000 0.03412  0.56101  0.41850  Biso   1.000  H
  C54      1.0000 0.14730  0.66889  0.41557  Biso   1.000  C
  O17      1.0000 0.22774  0.26616  0.08919  Biso   1.000  O
  C55      1.0000 0.35892  0.32487  0.05020  Biso   1.000  C
  N37      1.0000 0.45895  0.46505  0.14942  Biso   1.000  N
  H51      1.0000 0.53141  0.42309  0.23660  Biso   1.000  H
  H52      1.0000 0.52682  0.36830  0.16569  Biso   1.000  H
  O18      1.0000 0.00443  0.42505  0.23395  Biso   1.000  O
  C56      1.0000 0.00551  0.59617  0.27244  Biso   1.000  C
  N38      1.0000 0.15185  0.70571  0.34742  Biso   1.000  N
  H53      1.0000 0.10438  0.69213  0.43129  Biso   1.000  H
  H54      1.0000 0.19179  0.68381  0.45249  Biso   1.000  H
  N39      1.0000 0.36567  0.41264  0.04804  Biso   1.000  N
  H55      1.0000 0.31531  0.30799  0.01312  Biso   1.000  H
  H56      1.0000 0.40261  0.29998  0.03719  Biso   1.000  H
  C57      1.0000 0.43307  0.45783  0.07124  Biso   1.000  C
  C58      1.0000 0.46830  0.54523  0.17062  Biso   1.000  C
  N40      1.0000 0.05534  0.65238  0.24739  Biso   1.000  N
  H57      1.0000 0.97083  0.57311  0.22983  Biso   1.000  H
  H58      1.0000 0.97648  0.62700  0.30139  Biso   1.000  H
  C59      1.0000 0.08930  0.72240  0.28919  Biso   1.000  C
  C60      1.0000 0.21696  0.73555  0.33441  Biso   1.000  C
  C61      1.0000 0.30669  0.46248  0.02055  Biso   1.000  C
  C62      1.0000 0.41012  0.54663  0.04728  Biso   1.000  C
  H59      1.0000 0.47252  0.43710  0.04771  Biso   1.000  H
  O19      1.0000 0.49716  0.56981  0.23151  Biso   1.000  O
  N41      1.0000 0.44052  0.59360  0.11190  Biso   1.000  N
  C63      1.0000 0.05710  0.65959  0.17517  Biso   1.000  C
  H60      1.0000 0.05192  0.75592  0.30670  Biso   1.000  H
  C64      1.0000 0.12350  0.77145  0.23433  Biso   1.000  C
  O20      1.0000 0.27657  0.73384  0.37664  Biso   1.000  O
  N42      1.0000 0.20180  0.76907  0.26626  Biso   1.000  N
  N43      1.0000 0.32996  0.54217  0.02760  Biso   1.000  N
  O21      1.0000 0.24445  0.43875  0.99452  Biso   1.000  O
  H61      1.0000 0.43101  0.56419  0.00542  Biso   1.000  H
  C65      1.0000 0.43188  0.68081  0.11879  Biso   1.000  C
  O22      1.0000 0.02405  0.61690  0.12573  Biso   1.000  O
  N44      1.0000 0.10039  0.72522  0.16780  Biso   1.000  N
  H62      1.0000 0.10461  0.82888  0.22869  Biso   1.000  H
  C66      1.0000 0.25591  0.81445  0.23785  Biso   1.000  C
  C67      1.0000 0.28624  0.60626  0.98498  Biso   1.000  C
  N45      1.0000 0.36000  0.70601  0.12839  Biso   1.000  N
  H63      1.0000 0.46951  0.70051  0.16070  Biso   1.000  H
  H64      1.0000 0.44131  0.70772  0.07482  Biso   1.000  H
  C68      1.0000 0.10988  0.75316  0.09754  Biso   1.000  C
  N46      1.0000 0.28172  0.77102  0.18184  Biso   1.000  N
  H65      1.0000 0.29830  0.82692  0.27808  Biso   1.000  H
  H66      1.0000 0.23408  0.86710  0.21790  Biso   1.000  H
  N47      1.0000 0.25807  0.66504  0.02949  Biso   1.000  N
  H67      1.0000 0.24449  0.58088  0.95050  Biso   1.000  H
  H68      1.0000 0.31683  0.63531  0.95630  Biso   1.000  H
  C69      1.0000 0.30208  0.73133  0.06810  Biso   1.000  C
  C70      1.0000 0.35016  0.73518  0.19393  Biso   1.000  C
  N48      1.0000 0.17970  0.73023  0.08208  Biso   1.000  N
  H69      1.0000 0.10540  0.81353  0.09548  Biso   1.000  H
  H70      1.0000 0.06989  0.73029  0.05942  Biso   1.000  H
  C71      1.0000 0.24712  0.77689  0.10540  Biso   1.000  C
  C72      1.0000 0.18660  0.66877  0.03470  Biso   1.000  C
  H71      1.0000 0.32122  0.76809  0.03421  Biso   1.000  H
  O23      1.0000 0.39403  0.73060  0.25200  Biso   1.000  O
  H72      1.0000 0.24038  0.83518  0.08919  Biso   1.000  H
  O24      1.0000 0.13596  0.62681  0.00070  Biso   1.000  O
  C73      1.0000 0.58517  0.77274  0.32275  Biso   1.000  C
  C74      1.0000 0.61989  0.72418  0.26832  Biso   1.000  C
  N49      1.0000 0.55232  0.84343  0.28111  Biso   1.000  N
  N50      1.0000 0.64783  0.79280  0.38028  Biso   1.000  N
  H73      1.0000 0.54791  0.73959  0.34081  Biso   1.000  H
  N51      1.0000 0.59634  0.76992  0.20147  Biso   1.000  N
  N52      1.0000 0.69860  0.72876  0.29993  Biso   1.000  N
  H74      1.0000 0.60212  0.66632  0.26311  Biso   1.000  H
  C75      1.0000 0.55721  0.83909  0.20998  Biso   1.000  C
  C76      1.0000 0.50282  0.89927  0.30600  Biso   1.000  C
  C77      1.0000 0.71251  0.76301  0.36797  Biso   1.000  C
  C78      1.0000 0.64106  0.82484  0.44978  Biso   1.000  C
  C79      1.0000 0.60791  0.74258  0.13261  Biso   1.000  C
  C80      1.0000 0.75301  0.68179  0.27309  Biso   1.000  C
  O25      1.0000 0.53029  0.88704  0.16157  Biso   1.000  O
  N53      1.0000 0.54110  0.96508  0.35057  Biso   1.000  N
  H75      1.0000 0.46858  0.92312  0.26339  Biso   1.000  H
  H76      1.0000 0.47322  0.86833  0.33430  Biso   1.000  H
  O26      1.0000 0.77225  0.76619  0.41080  Biso   1.000  O
  N54      1.0000 0.63432  0.91267  0.45195  Biso   1.000  N
  H77      1.0000 0.68469  0.80802  0.48692  Biso   1.000  H
  H78      1.0000 0.59737  0.80001  0.46279  Biso   1.000  H
  N55      1.0000 0.67826  0.76613  0.11836  Biso   1.000  N
  H79      1.0000 0.60390  0.68222  0.13050  Biso   1.000  H
  H80      1.0000 0.56827  0.76503  0.09369  Biso   1.000  H
  N56      1.0000 0.78030  0.72314  0.21627  Biso   1.000  N
  H81      1.0000 0.79492  0.66993  0.31402  Biso   1.000  H
  H82      1.0000 0.73108  0.62889  0.25411  Biso   1.000  H
  C81      1.0000 0.56692  0.95786  0.42875  Biso   1.000  C
  C82      1.0000 0.53169  0.04526  0.32937  Biso   1.000  C
  C83      1.0000 0.69330  0.96251  0.47944  Biso   1.000  C
  C84      1.0000 0.68641  0.83077  0.07487  Biso   1.000  C
  C85      1.0000 0.74453  0.71769  0.13988  Biso   1.000  C
  C86      1.0000 0.84977  0.75518  0.22652  Biso   1.000  C
  H83      1.0000 0.52752  0.93713  0.45228  Biso   1.000  H
  C87      1.0000 0.58986  0.04666  0.45271  Biso   1.000  C
  O27      1.0000 0.50283  0.06984  0.26848  Biso   1.000  O
  N57      1.0000 0.55947  0.09357  0.38808  Biso   1.000  N
  O28      1.0000 0.75560  0.93872  0.50546  Biso   1.000  O
  N58      1.0000 0.67004  0.04220  0.47245  Biso   1.000  N
  O29      1.0000 0.63783  0.87885  0.04695  Biso   1.000  O
  N59      1.0000 0.75689  0.83084  0.06593  Biso   1.000  N
  H84      1.0000 0.73628  0.65959  0.12361  Biso   1.000  H
  C88      1.0000 0.79926  0.76185  0.10128  Biso   1.000  C
  O30      1.0000 0.89560  0.75812  0.28399  Biso   1.000  O
  N60      1.0000 0.85990  0.78301  0.16081  Biso   1.000  N
  H85      1.0000 0.56899  0.06422  0.49462  Biso   1.000  H
  C89      1.0000 0.56811  0.18078  0.38120  Biso   1.000  C
  C90      1.0000 0.71377  0.10623  0.51506  Biso   1.000  C
  C91      1.0000 0.78385  0.88747  0.01892  Biso   1.000  C
  H86      1.0000 0.81550  0.72522  0.06549  Biso   1.000  H
  C92      1.0000 0.92957  0.81390  0.15137  Biso   1.000  C
  N61      1.0000 0.63999  0.20598  0.37160  Biso   1.000  N
  H87      1.0000 0.53048  0.20048  0.33929  Biso   1.000  H
  H88      1.0000 0.55869  0.20769  0.42522  Biso   1.000  H
  N62      1.0000 0.74192  0.16501  0.47049  Biso   1.000  N
  H89      1.0000 0.75550  0.08091  0.54949  Biso   1.000  H
  H90      1.0000 0.68322  0.13528  0.54369  Biso   1.000  H
  N63      1.0000 0.82782  0.95266  0.05807  Biso   1.000  N
  H91      1.0000 0.74155  0.91150  0.98433  Biso   1.000  H
  H92      1.0000 0.81370  0.85701  0.99051  Biso   1.000  H
  N64      1.0000 0.93355  0.90196  0.14763  Biso   1.000  N
  H93      1.0000 0.96858  0.79451  0.19231  Biso   1.000  H
  H94      1.0000 0.93962  0.79059  0.10632  Biso   1.000  H
  C93      1.0000 0.64989  0.23515  0.30605  Biso   1.000  C
  C94      1.0000 0.69791  0.23130  0.43189  Biso   1.000  C
  C95      1.0000 0.81339  0.16880  0.46529  Biso   1.000  C
  C96      1.0000 0.90748  0.94875  0.08198  Biso   1.000  C
  C97      1.0000 0.80187  0.03113  0.05628  Biso   1.000  C
  C98      1.0000 0.96463  0.94991  0.20548  Biso   1.000  C
  O31      1.0000 0.60596  0.23057  0.24799  Biso   1.000  O
  N65      1.0000 0.71827  0.27105  0.31814  Biso   1.000  N
  C99      1.0000 0.75287  0.27692  0.39459  Biso   1.000  C
  H95      1.0000 0.67877  0.26812  0.46578  Biso   1.000  H
  O32      1.0000 0.86404  0.12678  0.49934  Biso   1.000  O
  N66      1.0000 0.82029  0.23020  0.41790  Biso   1.000  N
  H96      1.0000 0.93128  0.93101  0.04213  Biso   1.000  H
  C100     1.0000 0.92837  0.03780  0.10632  Biso   1.000  C
  O33      1.0000 0.73865  0.05339  0.03237  Biso   1.000  O
  N67      1.0000 0.85933  0.08116  0.08680  Biso   1.000  N
  O34      1.0000 0.99561  0.92502  0.26604  Biso   1.000  O
  N68      1.0000 0.95676  0.02991  0.18423  Biso   1.000  N
  C101     1.0000 0.74409  0.31448  0.26219  Biso   1.000  C
  H97      1.0000 0.75961  0.33521  0.41080  Biso   1.000  H
  C102     1.0000 0.89011  0.25320  0.40245  Biso   1.000  C
  H98      1.0000 0.96587  0.06097  0.08149  Biso   1.000  H
  C103     1.0000 0.85269  0.16892  0.08442  Biso   1.000  C
  C104     1.0000 0.99448  0.09614  0.22755  Biso   1.000  C
  N69      1.0000 0.79819  0.26910  0.23373  Biso   1.000  N
  H99      1.0000 0.70169  0.32689  0.22191  Biso   1.000  H
  H100     1.0000 0.76591  0.36707  0.28209  Biso   1.000  H
  N70      1.0000 0.89960  0.22519  0.33219  Biso   1.000  N
  H101     1.0000 0.89459  0.31350  0.40451  Biso   1.000  H
  H102     1.0000 0.93011  0.23032  0.44062  Biso   1.000  H
  N71      1.0000 0.84814  0.20568  0.15257  Biso   1.000  N
  H103     1.0000 0.89561  0.19210  0.06869  Biso   1.000  H
  H104     1.0000 0.80820  0.18378  0.04749  Biso   1.000  H
  N72      1.0000 0.94465  0.15235  0.25260  Biso   1.000  N
  H105     1.0000 0.02922  0.07308  0.27022  Biso   1.000  H
  H106     1.0000 0.02351  0.12703  0.19860  Biso   1.000  H
  C105     1.0000 0.78303  0.23558  0.16558  Biso   1.000  C
  C106     1.0000 0.87650  0.27148  0.26572  Biso   1.000  C
  C107     1.0000 0.94294  0.15962  0.32481  Biso   1.000  C
  C108     1.0000 0.91069  0.22243  0.21079  Biso   1.000  C
  O35      1.0000 0.72342  0.23381  0.12334  Biso   1.000  O
  H107     1.0000 0.89538  0.32891  0.27130  Biso   1.000  H
  O36      1.0000 0.97594  0.11687  0.37426  Biso   1.000  O
  H108     1.0000 0.94807  0.25589  0.19328  Biso   1.000  H
  C109     1.0000 0.41482  0.22726  0.67728  Biso   1.000  C
  N73      1.0000 0.35215  0.20720  0.61970  Biso   1.000  N
  N74      1.0000 0.44767  0.15657  0.71892  Biso   1.000  N
  H109     1.0000 0.45208  0.26041  0.65922  Biso   1.000  H
  C110     1.0000 0.38010  0.27582  0.73171  Biso   1.000  C
  C111     1.0000 0.35893  0.17516  0.55025  Biso   1.000  C
  C112     1.0000 0.28753  0.23699  0.63206  Biso   1.000  C
  C113     1.0000 0.49715  0.10073  0.69398  Biso   1.000  C
  C114     1.0000 0.44282  0.16091  0.78999  Biso   1.000  C
  N75      1.0000 0.30138  0.27124  0.70005  Biso   1.000  N
  N76      1.0000 0.40364  0.23008  0.79851  Biso   1.000  N
  H110     1.0000 0.39792  0.33368  0.73691  Biso   1.000  H
  N77      1.0000 0.36566  0.08733  0.54802  Biso   1.000  N
  H111     1.0000 0.31530  0.19198  0.51311  Biso   1.000  H
  H112     1.0000 0.40260  0.19999  0.53718  Biso   1.000  H
  O37      1.0000 0.22778  0.23381  0.58917  Biso   1.000  O
  N78      1.0000 0.45893  0.03492  0.64941  Biso   1.000  N
  H113     1.0000 0.53140  0.07688  0.73659  Biso   1.000  H
  H114     1.0000 0.52681  0.13167  0.66567  Biso   1.000  H
  O38      1.0000 0.46974  0.11296  0.83841  Biso   1.000  O
  C115     1.0000 0.24696  0.31821  0.72688  Biso   1.000  C
  C116     1.0000 0.39214  0.25742  0.86741  Biso   1.000  C
  C117     1.0000 0.30668  0.03749  0.52054  Biso   1.000  C
  C118     1.0000 0.43311  0.04214  0.57123  Biso   1.000  C
  C119     1.0000 0.46829  0.95474  0.67061  Biso   1.000  C
  N79      1.0000 0.21968  0.27686  0.78370  Biso   1.000  N
  H115     1.0000 0.20512  0.33007  0.68601  Biso   1.000  H
  H116     1.0000 0.26891  0.37111  0.74591  Biso   1.000  H
  N80      1.0000 0.32171  0.23387  0.88162  Biso   1.000  N
  H117     1.0000 0.39608  0.31778  0.86948  Biso   1.000  H
  H118     1.0000 0.43171  0.23497  0.90629  Biso   1.000  H
  O39      1.0000 0.24444  0.06128  0.49451  Biso   1.000  O
  N81      1.0000 0.32995  0.95780  0.52758  Biso   1.000  N
  C120     1.0000 0.41013  0.95334  0.54732  Biso   1.000  C
  H119     1.0000 0.47251  0.06287  0.54770  Biso   1.000  H
  N82      1.0000 0.44052  0.90643  0.61195  Biso   1.000  N
  O40      1.0000 0.49715  0.93016  0.73149  Biso   1.000  O
  C121     1.0000 0.25544  0.28231  0.86010  Biso   1.000  C
  C122     1.0000 0.15026  0.24482  0.77346  Biso   1.000  C
  C123     1.0000 0.31362  0.16923  0.92510  Biso   1.000  C
  C124     1.0000 0.28623  0.89377  0.48497  Biso   1.000  C
  H120     1.0000 0.43100  0.93578  0.50541  Biso   1.000  H
  C125     1.0000 0.43187  0.81922  0.61878  Biso   1.000  C
  H121     1.0000 0.26371  0.34041  0.87641  Biso   1.000  H
  C126     1.0000 0.20072  0.23815  0.89870  Biso   1.000  C
  O41      1.0000 0.10439  0.24188  0.71604  Biso   1.000  O
  N83      1.0000 0.14014  0.21699  0.83922  Biso   1.000  N
  O42      1.0000 0.36220  0.12115  0.95302  Biso   1.000  O
  N84      1.0000 0.24309  0.16916  0.93405  Biso   1.000  N
  N85      1.0000 0.25811  0.83499  0.52948  Biso   1.000  N
  H122     1.0000 0.24448  0.91909  0.45049  Biso   1.000  H
  H123     1.0000 0.31681  0.86472  0.45629  Biso   1.000  H
  N86      1.0000 0.36000  0.79402  0.62843  Biso   1.000  N
  H124     1.0000 0.46950  0.79952  0.66069  Biso   1.000  H
  H125     1.0000 0.44130  0.79231  0.57481  Biso   1.000  H
  H126     1.0000 0.18448  0.27478  0.93448  Biso   1.000  H
  C127     1.0000 0.07046  0.18610  0.84860  Biso   1.000  C
  C128     1.0000 0.21613  0.11253  0.98105  Biso   1.000  C
  C129     1.0000 0.30207  0.76870  0.56808  Biso   1.000  C
  C130     1.0000 0.18658  0.83120  0.53469  Biso   1.000  C
  C131     1.0000 0.35016  0.76485  0.69398  Biso   1.000  C
  N87      1.0000 0.06642  0.09804  0.85234  Biso   1.000  N
  H127     1.0000 0.03141  0.20549  0.80772  Biso   1.000  H
  H128     1.0000 0.06043  0.20941  0.89371  Biso   1.000  H
  N88      1.0000 0.17217  0.04734  0.94196  Biso   1.000  N
  H129     1.0000 0.25850  0.08850  0.01570  Biso   1.000  H
  H130     1.0000 0.18628  0.14299  0.00946  Biso   1.000  H
  C132     1.0000 0.24711  0.72308  0.60538  Biso   1.000  C
  H131     1.0000 0.32120  0.73188  0.53420  Biso   1.000  H
  O43      1.0000 0.13595  0.87322  0.50069  Biso   1.000  O
  N89      1.0000 0.17970  0.76980  0.58213  Biso   1.000  N
  N90      1.0000 0.28172  0.72895  0.68188  Biso   1.000  N
  O44      1.0000 0.39402  0.76943  0.75199  Biso   1.000  O
  C133     1.0000 0.09251  0.05125  0.91805  Biso   1.000  C
  C134     1.0000 0.03536  0.05009  0.79455  Biso   1.000  C
  C135     1.0000 0.19818  0.96887  0.94375  Biso   1.000  C
  H132     1.0000 0.24042  0.66479  0.58917  Biso   1.000  H
  C136     1.0000 0.10987  0.74680  0.59752  Biso   1.000  C
  C137     1.0000 0.25590  0.68552  0.73784  Biso   1.000  C
  C138     1.0000 0.07167  0.96220  0.89366  Biso   1.000  C
  H133     1.0000 0.06871  0.06899  0.95790  Biso   1.000  H
  N91      1.0000 0.04324  0.97009  0.81580  Biso   1.000  N
  O45      1.0000 0.00442  0.07498  0.73393  Biso   1.000  O
  N92      1.0000 0.14065  0.91884  0.91317  Biso   1.000  N
  O46      1.0000 0.26134  0.94661  0.96766  Biso   1.000  O
  N93      1.0000 0.10038  0.77481  0.66779  Biso   1.000  N
  H134     1.0000 0.10540  0.68650  0.59552  Biso   1.000  H
  H135     1.0000 0.06988  0.76968  0.55941  Biso   1.000  H
  N94      1.0000 0.20179  0.73090  0.76625  Biso   1.000  N
  H136     1.0000 0.29830  0.67311  0.77812  Biso   1.000  H
  H137     1.0000 0.23407  0.63293  0.71788  Biso   1.000  H
  H138     1.0000 0.03411  0.93903  0.91849  Biso   1.000  H
  C139     1.0000 0.00555  0.90386  0.77243  Biso   1.000  C
  C140     1.0000 0.14730  0.83108  0.91561  Biso   1.000  C
  C141     1.0000 0.12349  0.72852  0.73431  Biso   1.000  C
  C142     1.0000 0.05709  0.84038  0.67516  Biso   1.000  C
  C143     1.0000 0.21695  0.76442  0.83440  Biso   1.000  C
  N95      1.0000 0.05534  0.84765  0.74743  Biso   1.000  N
  H139     1.0000 0.97082  0.92692  0.72981  Biso   1.000  H
  H140     1.0000 0.97652  0.87297  0.80138  Biso   1.000  H
  N96      1.0000 0.15190  0.79432  0.84746  Biso   1.000  N
  H141     1.0000 0.10442  0.80790  0.93128  Biso   1.000  H
  H142     1.0000 0.19178  0.81622  0.95248  Biso   1.000  H
  C144     1.0000 0.08934  0.77757  0.78918  Biso   1.000  C
  H143     1.0000 0.10460  0.67109  0.72867  Biso   1.000  H
  O47      1.0000 0.02404  0.88313  0.62572  Biso   1.000  O
  O48      1.0000 0.27657  0.76619  0.87669  Biso   1.000  O
  H144     1.0000 0.05191  0.74411  0.80669  Biso   1.000  H
  Ne1      1.0000 0.25123  0.49783  0.23255  Biso   1.000  Ne
  He1      1.0000 0.39370  0.57068  0.36879  Biso   1.000  He
  He2      1.0000 0.11044  0.43111  0.10183  Biso   1.000  He
  Ar1      1.0000 0.25041  0.49857  0.23103  Biso   1.000  Ar
  Ne2      1.0000 0.25123  0.00217  0.73255  Biso   1.000  Ne
  He3      1.0000 0.38879  0.93168  0.86401  Biso   1.000  He
  He4      1.0000 0.12051  0.06407  0.61182  Biso   1.000  He
  Ar2      1.0000 0.25036  0.00138  0.73102  Biso   1.000  Ar
  Ne3      1.0000 0.74877  0.50217  0.76745  Biso   1.000  Ne
  He5      1.0000 0.88203  0.56529  0.89070  Biso   1.000  He
  He6      1.0000 0.61863  0.43526  0.64331  Biso   1.000  He
  Ar3      1.0000 0.74963  0.50139  0.76896  Biso   1.000  Ar
  Ne4      1.0000 0.74877  0.99783  0.26745  Biso   1.000  Ne
  He7      1.0000 0.88770  0.93198  0.39626  Biso   1.000  He
  He8      1.0000 0.61657  0.06575  0.14126  Biso   1.000  He
  Ar4      1.0000 0.74965  0.99862  0.26898  Biso   1.000  Ar
