data_image0
_cell_length_a       16.195
_cell_length_b       21.13
_cell_length_c       12.144
_cell_angle_alpha    90
_cell_angle_beta     106.37
_cell_angle_gamma    90

_symmetry_space_group_name_H-M    "P 1"
_symmetry_int_tables_number       1

loop_
  _symmetry_equiv_pos_as_xyz
  'x, y, z'

loop_
  _atom_site_label
  _atom_site_occupancy
  _atom_site_fract_x
  _atom_site_fract_y
  _atom_site_fract_z
  _atom_site_thermal_displace_type
  _atom_site_B_iso_or_equiv
  _atom_site_type_symbol
  C1       1.0000 0.58231  0.34122  0.32124  Biso   1.000  C
  N1       1.0000 0.50448  0.31472  0.30914  Biso   1.000  N
  N2       1.0000 0.63828  0.31879  0.42131  Biso   1.000  N
  O1       1.0000 0.60129  0.37809  0.25387  Biso   1.000  O
  C2       1.0000 0.43168  0.32470  0.20658  Biso   1.000  C
  C3       1.0000 0.50400  0.27061  0.39917  Biso   1.000  C
  C4       1.0000 0.59917  0.27151  0.47641  Biso   1.000  C
  C5       1.0000 0.73029  0.33171  0.45229  Biso   1.000  C
  N3       1.0000 0.36812  0.36796  0.22460  Biso   1.000  N
  H1       1.0000 0.45337  0.34080  0.14530  Biso   1.000  H
  H2       1.0000 0.40441  0.28419  0.18186  Biso   1.000  H
  N4       1.0000 0.45570  0.28997  0.47770  Biso   1.000  N
  H3       1.0000 0.48702  0.22811  0.36853  Biso   1.000  H
  N5       1.0000 0.59090  0.29044  0.58833  Biso   1.000  N
  H4       1.0000 0.62696  0.23010  0.47907  Biso   1.000  H
  H5       1.0000 0.76110  0.29219  0.47418  Biso   1.000  H
  H6       1.0000 0.74470  0.34770  0.38518  Biso   1.000  H
  N6       1.0000 0.75968  0.37648  0.54490  Biso   1.000  N
  C6       1.0000 0.29749  0.34709  0.26760  Biso   1.000  C
  C7       1.0000 0.35408  0.42598  0.17276  Biso   1.000  C
  C8       1.0000 0.36221  0.28699  0.45169  Biso   1.000  C
  C9       1.0000 0.50801  0.30161  0.58704  Biso   1.000  C
  C10      1.0000 0.66142  0.28968  0.69235  Biso   1.000  C
  C11      1.0000 0.78628  0.36100  0.66754  Biso   1.000  C
  C12      1.0000 0.77260  0.43900  0.52422  Biso   1.000  C
  C13      1.0000 0.23427  0.40350  0.24048  Biso   1.000  C
  H7       1.0000 0.27089  0.30838  0.22907  Biso   1.000  H
  N7       1.0000 0.31838  0.34127  0.39127  Biso   1.000  N
  N8       1.0000 0.27870  0.44979  0.18830  Biso   1.000  N
  O2       1.0000 0.39980  0.45277  0.12324  Biso   1.000  O
  H8       1.0000 0.34197  0.24950  0.40586  Biso   1.000  H
  H9       1.0000 0.34703  0.28249  0.52301  Biso   1.000  H
  O3       1.0000 0.48319  0.31675  0.66943  Biso   1.000  O
  H10      1.0000 0.69847  0.25409  0.68917  Biso   1.000  H
  H11      1.0000 0.63832  0.28301  0.75689  Biso   1.000  H
  N9       1.0000 0.71308  0.34718  0.71269  Biso   1.000  N
  C14      1.0000 0.81949  0.42622  0.72565  Biso   1.000  C
  C15      1.0000 0.85289  0.30748  0.69844  Biso   1.000  C
  N10      1.0000 0.81011  0.46834  0.62635  Biso   1.000  N
  O4       1.0000 0.75607  0.46294  0.42878  Biso   1.000  O
  H12      1.0000 0.17870  0.39139  0.18787  Biso   1.000  H
  N11      1.0000 0.22613  0.42163  0.35239  Biso   1.000  N
  C16      1.0000 0.27301  0.38230  0.43839  Biso   1.000  C
  C17      1.0000 0.23757  0.50681  0.13191  Biso   1.000  C
  C18      1.0000 0.69972  0.39281  0.78504  Biso   1.000  C
  N12      1.0000 0.75783  0.44056  0.79061  Biso   1.000  N
  C19      1.0000 0.91227  0.42759  0.80589  Biso   1.000  C
  H13      1.0000 0.86799  0.29981  0.77954  Biso   1.000  H
  H14      1.0000 0.90337  0.31940  0.67698  Biso   1.000  H
  H15      1.0000 0.82897  0.26971  0.65802  Biso   1.000  H
  C20      1.0000 0.83691  0.53398  0.63218  Biso   1.000  C
  C21      1.0000 0.16314  0.46602  0.36784  Biso   1.000  C
  O5       1.0000 0.27161  0.38443  0.53838  Biso   1.000  O
  H16      1.0000 0.17756  0.49768  0.09398  Biso   1.000  H
  H17      1.0000 0.26470  0.51888  0.07329  Biso   1.000  H
  N13      1.0000 0.24222  0.55944  0.20941  Biso   1.000  N
  O6       1.0000 0.64648  0.39077  0.83902  Biso   1.000  O
  C22      1.0000 0.76241  0.49319  0.86811  Biso   1.000  C
  H18      1.0000 0.91660  0.39938  0.86932  Biso   1.000  H
  H19      1.0000 0.92639  0.46981  0.83413  Biso   1.000  H
  H20      1.0000 0.95156  0.41429  0.76418  Biso   1.000  H
  H21      1.0000 0.88881  0.53881  0.69518  Biso   1.000  H
  H22      1.0000 0.85116  0.54458  0.56198  Biso   1.000  H
  N14      1.0000 0.77392  0.57837  0.64763  Biso   1.000  N
  H23      1.0000 0.11121  0.46119  0.30476  Biso   1.000  H
  H24      1.0000 0.14881  0.45542  0.43796  Biso   1.000  H
  N15      1.0000 0.18987  0.53166  0.37368  Biso   1.000  N
  C23      1.0000 0.30027  0.60719  0.21499  Biso   1.000  C
  C24      1.0000 0.18049  0.57378  0.27438  Biso   1.000  C
  H25      1.0000 0.82242  0.50232  0.90605  Biso   1.000  H
  H26      1.0000 0.73528  0.48112  0.92673  Biso   1.000  H
  N16      1.0000 0.72129  0.55021  0.81173  Biso   1.000  N
  C25      1.0000 0.76571  0.59650  0.75955  Biso   1.000  C
  C26      1.0000 0.72697  0.61770  0.56163  Biso   1.000  C
  C27      1.0000 0.22739  0.56100  0.47581  Biso   1.000  C
  N17      1.0000 0.28691  0.65282  0.28734  Biso   1.000  N
  O7       1.0000 0.35351  0.60923  0.16101  Biso   1.000  O
  C28      1.0000 0.21371  0.63900  0.33248  Biso   1.000  C
  C29      1.0000 0.08771  0.57241  0.19413  Biso   1.000  C
  C30      1.0000 0.64589  0.57402  0.82718  Biso   1.000  C
  C31      1.0000 0.70249  0.65291  0.73243  Biso   1.000  C
  H27      1.0000 0.82127  0.60861  0.81207  Biso   1.000  H
  N18      1.0000 0.68158  0.65873  0.60867  Biso   1.000  N
  O8       1.0000 0.72836  0.61557  0.46156  Biso   1.000  O
  N19      1.0000 0.24031  0.62352  0.45513  Biso   1.000  N
  O9       1.0000 0.24391  0.53706  0.57125  Biso   1.000  O
  C32      1.0000 0.33857  0.71032  0.30768  Biso   1.000  C
  C33      1.0000 0.14710  0.69252  0.30159  Biso   1.000  C
  H28      1.0000 0.08338  0.60062  0.13071  Biso   1.000  H
  H29      1.0000 0.07359  0.53019  0.16590  Biso   1.000  H
  H30      1.0000 0.04841  0.58571  0.23576  Biso   1.000  H
  N20      1.0000 0.63192  0.63204  0.77542  Biso   1.000  N
  O10      1.0000 0.60018  0.54723  0.87678  Biso   1.000  O
  H31      1.0000 0.72908  0.69162  0.77087  Biso   1.000  H
  C34      1.0000 0.63777  0.71301  0.54833  Biso   1.000  C
  C35      1.0000 0.26969  0.66829  0.54773  Biso   1.000  C
  H32      1.0000 0.30149  0.74591  0.31077  Biso   1.000  H
  H33      1.0000 0.36173  0.71699  0.24314  Biso   1.000  H
  N21      1.0000 0.40908  0.70956  0.41170  Biso   1.000  N
  H34      1.0000 0.13199  0.70019  0.22048  Biso   1.000  H
  H35      1.0000 0.09661  0.68060  0.32304  Biso   1.000  H
  H36      1.0000 0.17101  0.73029  0.34201  Biso   1.000  H
  C36      1.0000 0.56830  0.67530  0.79345  Biso   1.000  C
  N22      1.0000 0.54429  0.71003  0.52233  Biso   1.000  N
  H37      1.0000 0.65800  0.75050  0.59408  Biso   1.000  H
  H38      1.0000 0.65302  0.71751  0.47701  Biso   1.000  H
  H39      1.0000 0.23889  0.70781  0.52585  Biso   1.000  H
  H40      1.0000 0.25529  0.65230  0.61485  Biso   1.000  H
  N23      1.0000 0.36170  0.68121  0.57871  Biso   1.000  N
  C37      1.0000 0.49197  0.69839  0.41299  Biso   1.000  C
  C38      1.0000 0.40081  0.72849  0.52361  Biso   1.000  C
  N24      1.0000 0.49550  0.68528  0.69089  Biso   1.000  N
  H41      1.0000 0.54661  0.65920  0.85472  Biso   1.000  H
  H42      1.0000 0.59562  0.71581  0.81808  Biso   1.000  H
  C39      1.0000 0.49597  0.72939  0.60077  Biso   1.000  C
  C40      1.0000 0.41767  0.65878  0.67878  Biso   1.000  C
  O11      1.0000 0.51680  0.68325  0.33060  Biso   1.000  O
  H43      1.0000 0.37300  0.76990  0.52087  Biso   1.000  H
  H44      1.0000 0.51302  0.77189  0.63150  Biso   1.000  H
  O12      1.0000 0.39868  0.62191  0.74607  Biso   1.000  O
  O13      1.0000 0.48316  0.18325  0.16942  Biso   1.000  O
  C41      1.0000 0.50799  0.19839  0.08703  Biso   1.000  C
  N25      1.0000 0.45573  0.21003  0.97769  Biso   1.000  N
  N26      1.0000 0.59088  0.20956  0.08831  Biso   1.000  N
  C42      1.0000 0.36225  0.21301  0.95168  Biso   1.000  C
  C43      1.0000 0.50404  0.22939  0.89916  Biso   1.000  C
  C44      1.0000 0.59921  0.22849  0.97640  Biso   1.000  C
  C45      1.0000 0.66139  0.21032  0.19233  Biso   1.000  C
  N27      1.0000 0.31842  0.15873  0.89126  Biso   1.000  N
  H45      1.0000 0.34700  0.21751  0.02300  Biso   1.000  H
  H46      1.0000 0.34200  0.25050  0.90585  Biso   1.000  H
  N28      1.0000 0.50450  0.18528  0.80904  Biso   1.000  N
  H47      1.0000 0.48700  0.27189  0.86852  Biso   1.000  H
  H48      1.0000 0.62700  0.26990  0.97906  Biso   1.000  H
  N29      1.0000 0.63832  0.18121  0.92130  Biso   1.000  N
  H49      1.0000 0.69847  0.24591  0.18924  Biso   1.000  H
  H50      1.0000 0.63829  0.21699  0.25687  Biso   1.000  H
  N30      1.0000 0.71305  0.15282  0.21267  Biso   1.000  N
  C46      1.0000 0.27305  0.11770  0.93838  Biso   1.000  C
  C47      1.0000 0.29753  0.15291  0.76759  Biso   1.000  C
  C48      1.0000 0.43172  0.17530  0.70657  Biso   1.000  C
  C49      1.0000 0.58233  0.15878  0.82114  Biso   1.000  C
  C50      1.0000 0.73033  0.16829  0.95228  Biso   1.000  C
  C51      1.0000 0.69969  0.10719  0.28502  Biso   1.000  C
  C52      1.0000 0.78632  0.13900  0.16753  Biso   1.000  C
  O14      1.0000 0.27158  0.11557  0.03836  Biso   1.000  O
  N31      1.0000 0.22610  0.07837  0.85238  Biso   1.000  N
  C53      1.0000 0.23431  0.09650  0.74047  Biso   1.000  C
  H51      1.0000 0.27093  0.19162  0.72905  Biso   1.000  H
  N32      1.0000 0.36810  0.13204  0.72459  Biso   1.000  N
  H52      1.0000 0.45341  0.15920  0.64529  Biso   1.000  H
  H53      1.0000 0.40439  0.21581  0.68185  Biso   1.000  H
  O15      1.0000 0.60133  0.12191  0.75386  Biso   1.000  O
  N33      1.0000 0.75966  0.12352  0.04489  Biso   1.000  N
  H54      1.0000 0.76114  0.20781  0.97417  Biso   1.000  H
  H55      1.0000 0.74473  0.15230  0.88517  Biso   1.000  H
  N34      1.0000 0.75780  0.05944  0.29060  Biso   1.000  N
  O16      1.0000 0.64651  0.10923  0.33901  Biso   1.000  O
  C54      1.0000 0.81947  0.07378  0.22563  Biso   1.000  C
  C55      1.0000 0.85286  0.19252  0.19843  Biso   1.000  C
  C56      1.0000 0.16310  0.03398  0.86774  Biso   1.000  C
  H56      1.0000 0.17874  0.10861  0.68786  Biso   1.000  H
  N35      1.0000 0.27873  0.05021  0.68829  Biso   1.000  N
  C57      1.0000 0.35412  0.07402  0.67275  Biso   1.000  C
  C58      1.0000 0.77257  0.06100  0.02420  Biso   1.000  C
  C59      1.0000 0.76239  0.00681  0.36810  Biso   1.000  C
  C60      1.0000 0.91225  0.07241  0.30588  Biso   1.000  C
  N36      1.0000 0.81009  0.03166  0.12633  Biso   1.000  N
  H57      1.0000 0.86797  0.20019  0.27953  Biso   1.000  H
  H58      1.0000 0.90335  0.18060  0.17697  Biso   1.000  H
  H59      1.0000 0.82901  0.23029  0.15800  Biso   1.000  H
  N37      1.0000 0.18991  0.96834  0.87367  Biso   1.000  N
  H60      1.0000 0.11125  0.03881  0.80475  Biso   1.000  H
  H61      1.0000 0.14885  0.04458  0.93795  Biso   1.000  H
  C61      1.0000 0.23761  0.99319  0.63190  Biso   1.000  C
  O17      1.0000 0.39982  0.04723  0.62315  Biso   1.000  O
  O18      1.0000 0.75611  0.03706  0.92877  Biso   1.000  O
  H62      1.0000 0.73532  0.01888  0.42672  Biso   1.000  H
  H63      1.0000 0.82240  0.99768  0.40604  Biso   1.000  H
  N38      1.0000 0.72127  0.94979  0.31171  Biso   1.000  N
  H64      1.0000 0.91658  0.10062  0.36930  Biso   1.000  H
  H65      1.0000 0.92637  0.03019  0.33411  Biso   1.000  H
  H66      1.0000 0.95160  0.08571  0.26417  Biso   1.000  H
  C62      1.0000 0.83689  0.96602  0.13217  Biso   1.000  C
  C63      1.0000 0.18053  0.92622  0.77437  Biso   1.000  C
  C64      1.0000 0.22743  0.93900  0.97580  Biso   1.000  C
  N39      1.0000 0.24226  0.94056  0.70940  Biso   1.000  N
  H67      1.0000 0.26474  0.98112  0.57328  Biso   1.000  H
  H68      1.0000 0.17760  0.00232  0.59396  Biso   1.000  H
  C65      1.0000 0.64586  0.92598  0.32716  Biso   1.000  C
  C66      1.0000 0.76569  0.90350  0.25953  Biso   1.000  C
  H69      1.0000 0.88879  0.96119  0.19516  Biso   1.000  H
  H70      1.0000 0.85119  0.95542  0.06197  Biso   1.000  H
  N40      1.0000 0.77390  0.92163  0.14762  Biso   1.000  N
  C67      1.0000 0.21375  0.86100  0.83247  Biso   1.000  C
  C68      1.0000 0.08775  0.92759  0.69412  Biso   1.000  C
  N41      1.0000 0.24034  0.87648  0.95511  Biso   1.000  N
  O19      1.0000 0.24389  0.96294  0.07123  Biso   1.000  O
  C69      1.0000 0.30031  0.89281  0.71498  Biso   1.000  C
  N42      1.0000 0.63190  0.86796  0.27541  Biso   1.000  N
  O20      1.0000 0.60016  0.95277  0.37677  Biso   1.000  O
  C70      1.0000 0.70247  0.84709  0.23241  Biso   1.000  C
  H71      1.0000 0.82126  0.89139  0.31214  Biso   1.000  H
  C71      1.0000 0.72701  0.88230  0.06162  Biso   1.000  C
  C72      1.0000 0.14714  0.80748  0.80157  Biso   1.000  C
  N43      1.0000 0.28693  0.84718  0.78724  Biso   1.000  N
  H72      1.0000 0.08342  0.89938  0.63070  Biso   1.000  H
  H73      1.0000 0.07363  0.96981  0.66589  Biso   1.000  H
  H74      1.0000 0.04844  0.91429  0.73575  Biso   1.000  H
  C73      1.0000 0.26967  0.83171  0.04772  Biso   1.000  C
  O21      1.0000 0.35355  0.89077  0.66099  Biso   1.000  O
  C74      1.0000 0.56828  0.82470  0.29343  Biso   1.000  C
  N44      1.0000 0.68158  0.84127  0.10874  Biso   1.000  N
  H75      1.0000 0.72906  0.80838  0.27086  Biso   1.000  H
  O22      1.0000 0.72840  0.88443  0.96155  Biso   1.000  O
  H76      1.0000 0.13203  0.79981  0.72047  Biso   1.000  H
  H77      1.0000 0.09663  0.81940  0.82294  Biso   1.000  H
  H78      1.0000 0.17105  0.76971  0.84200  Biso   1.000  H
  C75      1.0000 0.33861  0.78968  0.80767  Biso   1.000  C
  H79      1.0000 0.23893  0.79219  0.02583  Biso   1.000  H
  H80      1.0000 0.25533  0.84770  0.11483  Biso   1.000  H
  N45      1.0000 0.36168  0.81879  0.07870  Biso   1.000  N
  N46      1.0000 0.49548  0.81472  0.19087  Biso   1.000  N
  H81      1.0000 0.54659  0.84080  0.35471  Biso   1.000  H
  H82      1.0000 0.59559  0.78419  0.31807  Biso   1.000  H
  C76      1.0000 0.63781  0.78699  0.04832  Biso   1.000  C
  H83      1.0000 0.30153  0.75409  0.81076  Biso   1.000  H
  H84      1.0000 0.36169  0.78301  0.74304  Biso   1.000  H
  N47      1.0000 0.40912  0.79044  0.91169  Biso   1.000  N
  C77      1.0000 0.40079  0.77151  0.02360  Biso   1.000  C
  C78      1.0000 0.41771  0.84122  0.17877  Biso   1.000  C
  C79      1.0000 0.49603  0.77061  0.10084  Biso   1.000  C
  N48      1.0000 0.54427  0.78997  0.02231  Biso   1.000  N
  H85      1.0000 0.65300  0.78249  0.97700  Biso   1.000  H
  H86      1.0000 0.65798  0.74950  0.09406  Biso   1.000  H
  C80      1.0000 0.49201  0.80161  0.91297  Biso   1.000  C
  H87      1.0000 0.37300  0.73010  0.02094  Biso   1.000  H
  O23      1.0000 0.39873  0.87809  0.24614  Biso   1.000  O
  H88      1.0000 0.51300  0.72811  0.13148  Biso   1.000  H
  O24      1.0000 0.51684  0.81675  0.83058  Biso   1.000  O
