data_image0
_cell_length_a       17.24
_cell_length_b       17.673
_cell_length_c       15.064
_cell_angle_alpha    90
_cell_angle_beta     93.24
_cell_angle_gamma    90

_symmetry_space_group_name_H-M    "P 1"
_symmetry_int_tables_number       1

loop_
  _symmetry_equiv_pos_as_xyz
  'x, y, z'

loop_
  _atom_site_label
  _atom_site_occupancy
  _atom_site_fract_x
  _atom_site_fract_y
  _atom_site_fract_z
  _atom_site_thermal_displace_type
  _atom_site_B_iso_or_equiv
  _atom_site_type_symbol
  C1       1.0000 0.76038  0.36242  0.11968  Biso   1.000  C
  N1       1.0000 0.77802  0.43750  0.15160  Biso   1.000  N
  H1       1.0000 0.73647  0.33452  0.16642  Biso   1.000  H
  H2       1.0000 0.72236  0.36610  0.06981  Biso   1.000  H
  N2       1.0000 0.82526  0.32021  0.09215  Biso   1.000  N
  C2       1.0000 0.80204  0.45606  0.24342  Biso   1.000  C
  C3       1.0000 0.76283  0.50003  0.10013  Biso   1.000  C
  C4       1.0000 0.83508  0.30487  0.00439  Biso   1.000  C
  C5       1.0000 0.87702  0.27505  0.15140  Biso   1.000  C
  C6       1.0000 0.75164  0.43507  0.31516  Biso   1.000  C
  C7       1.0000 0.80204  0.54394  0.24342  Biso   1.000  C
  N3       1.0000 0.88283  0.43654  0.26536  Biso   1.000  N
  N4       1.0000 0.77802  0.56255  0.15160  Biso   1.000  N
  O1       1.0000 0.73866  0.50003  0.02287  Biso   1.000  O
  N5       1.0000 0.89660  0.25559  0.99934  Biso   1.000  N
  O2       1.0000 0.79591  0.32898  0.94076  Biso   1.000  O
  N6       1.0000 0.93174  0.32066  0.20459  Biso   1.000  N
  C8       1.0000 0.92815  0.23222  0.08730  Biso   1.000  C
  C9       1.0000 0.83832  0.22124  0.21104  Biso   1.000  C
  H3       1.0000 0.69896  0.44893  0.29847  Biso   1.000  H
  H4       1.0000 0.76850  0.46121  0.36869  Biso   1.000  H
  H5       1.0000 0.75468  0.38149  0.32500  Biso   1.000  H
  C10      1.0000 0.75164  0.56493  0.31516  Biso   1.000  C
  N7       1.0000 0.88283  0.56346  0.26536  Biso   1.000  N
  C11      1.0000 0.92887  0.50003  0.27573  Biso   1.000  C
  C12      1.0000 0.91278  0.36264  0.28345  Biso   1.000  C
  C13      1.0000 0.76038  0.63764  0.11968  Biso   1.000  C
  C14      1.0000 0.92293  0.22797  0.91702  Biso   1.000  C
  C15      1.0000 0.00569  0.31081  0.18212  Biso   1.000  C
  N8       1.0000 0.00536  0.26192  0.11097  Biso   1.000  N
  C16      1.0000 0.91137  0.14978  0.09508  Biso   1.000  C
  H6       1.0000 0.80187  0.19069  0.17640  Biso   1.000  H
  H7       1.0000 0.81147  0.24919  0.25452  Biso   1.000  H
  H8       1.0000 0.87678  0.18933  0.24049  Biso   1.000  H
  H9       1.0000 0.69896  0.55112  0.29847  Biso   1.000  H
  H10      1.0000 0.76850  0.53879  0.36869  Biso   1.000  H
  H11      1.0000 0.75468  0.61851  0.32500  Biso   1.000  H
  C17      1.0000 0.91278  0.63741  0.28345  Biso   1.000  C
  O3       1.0000 0.99919  0.50003  0.29375  Biso   1.000  O
  H12      1.0000 0.87465  0.33413  0.31470  Biso   1.000  H
  H13      1.0000 0.95915  0.36689  0.32261  Biso   1.000  H
  H14      1.0000 0.73647  0.66553  0.16642  Biso   1.000  H
  H15      1.0000 0.72236  0.63390  0.06981  Biso   1.000  H
  N9       1.0000 0.82526  0.67985  0.09215  Biso   1.000  N
  H16      1.0000 0.88237  0.23663  0.87081  Biso   1.000  H
  H17      1.0000 0.93055  0.17371  0.92201  Biso   1.000  H
  N10      1.0000 0.99458  0.26192  0.88910  Biso   1.000  N
  O4       1.0000 0.06365  0.33984  0.21888  Biso   1.000  O
  C18      1.0000 0.07701  0.22797  0.08305  Biso   1.000  C
  H18      1.0000 0.85787  0.14050  0.07719  Biso   1.000  H
  H19      1.0000 0.92126  0.13399  0.15559  Biso   1.000  H
  H20      1.0000 0.94419  0.12182  0.05738  Biso   1.000  H
  H21      1.0000 0.87465  0.66593  0.31470  Biso   1.000  H
  H22      1.0000 0.95915  0.63311  0.32261  Biso   1.000  H
  N11      1.0000 0.93174  0.67940  0.20459  Biso   1.000  N
  C19      1.0000 0.83508  0.69513  0.00439  Biso   1.000  C
  C20      1.0000 0.87702  0.72500  0.15140  Biso   1.000  C
  C21      1.0000 0.99425  0.31081  0.81788  Biso   1.000  C
  C22      1.0000 0.07179  0.23222  0.91270  Biso   1.000  C
  H23      1.0000 0.11757  0.23663  0.12919  Biso   1.000  H
  H24      1.0000 0.06940  0.17371  0.07799  Biso   1.000  H
  N12      1.0000 0.10334  0.25559  0.00073  Biso   1.000  N
  C23      1.0000 0.00569  0.68924  0.18212  Biso   1.000  C
  N13      1.0000 0.89660  0.74441  0.99934  Biso   1.000  N
  O5       1.0000 0.79591  0.67108  0.94076  Biso   1.000  O
  C24      1.0000 0.92815  0.76778  0.08730  Biso   1.000  C
  C25      1.0000 0.83832  0.77876  0.21104  Biso   1.000  C
  O6       1.0000 0.93629  0.33984  0.78112  Biso   1.000  O
  N14      1.0000 0.06820  0.32066  0.79541  Biso   1.000  N
  C26      1.0000 0.12292  0.27505  0.84867  Biso   1.000  C
  C27      1.0000 0.08858  0.14978  0.90492  Biso   1.000  C
  C28      1.0000 0.16487  0.30487  0.99568  Biso   1.000  C
  N15      1.0000 0.00536  0.73808  0.11097  Biso   1.000  N
  O7       1.0000 0.06365  0.66016  0.21888  Biso   1.000  O
  C29      1.0000 0.92293  0.77203  0.91702  Biso   1.000  C
  C30      1.0000 0.91137  0.85022  0.09508  Biso   1.000  C
  H25      1.0000 0.80187  0.80931  0.17640  Biso   1.000  H
  H26      1.0000 0.81147  0.75081  0.25452  Biso   1.000  H
  H27      1.0000 0.87678  0.81073  0.24049  Biso   1.000  H
  C31      1.0000 0.08716  0.36264  0.71655  Biso   1.000  C
  N16      1.0000 0.17468  0.32021  0.90785  Biso   1.000  N
  C32      1.0000 0.16162  0.22124  0.78903  Biso   1.000  C
  H28      1.0000 0.14207  0.14050  0.92281  Biso   1.000  H
  H29      1.0000 0.07869  0.13399  0.84441  Biso   1.000  H
  H30      1.0000 0.05575  0.12182  0.94262  Biso   1.000  H
  O8       1.0000 0.20403  0.32898  0.05924  Biso   1.000  O
  C33      1.0000 0.07701  0.77203  0.08305  Biso   1.000  C
  H31      1.0000 0.88237  0.76342  0.87081  Biso   1.000  H
  H32      1.0000 0.93055  0.82635  0.92201  Biso   1.000  H
  N17      1.0000 0.99458  0.73808  0.88910  Biso   1.000  N
  H33      1.0000 0.85787  0.85950  0.07719  Biso   1.000  H
  H34      1.0000 0.92126  0.86601  0.15559  Biso   1.000  H
  H35      1.0000 0.94419  0.87823  0.05738  Biso   1.000  H
  H36      1.0000 0.12530  0.33413  0.68537  Biso   1.000  H
  H37      1.0000 0.04074  0.36689  0.67746  Biso   1.000  H
  N18      1.0000 0.11712  0.43654  0.73464  Biso   1.000  N
  C34      1.0000 0.23957  0.36242  0.88039  Biso   1.000  C
  H38      1.0000 0.19808  0.19069  0.82360  Biso   1.000  H
  H39      1.0000 0.18848  0.24919  0.74554  Biso   1.000  H
  H40      1.0000 0.12316  0.18933  0.75951  Biso   1.000  H
  H41      1.0000 0.11757  0.76342  0.12919  Biso   1.000  H
  H42      1.0000 0.06940  0.82635  0.07799  Biso   1.000  H
  N19      1.0000 0.10334  0.74441  0.00073  Biso   1.000  N
  C35      1.0000 0.99425  0.68924  0.81788  Biso   1.000  C
  C36      1.0000 0.07179  0.76778  0.91270  Biso   1.000  C
  C37      1.0000 0.19790  0.45606  0.75658  Biso   1.000  C
  C38      1.0000 0.07107  0.50003  0.72427  Biso   1.000  C
  H43      1.0000 0.26348  0.33452  0.83364  Biso   1.000  H
  H44      1.0000 0.27759  0.36610  0.93025  Biso   1.000  H
  N20      1.0000 0.22192  0.43750  0.84840  Biso   1.000  N
  C39      1.0000 0.16487  0.69513  0.99568  Biso   1.000  C
  O9       1.0000 0.93629  0.66016  0.78112  Biso   1.000  O
  N21      1.0000 0.06820  0.67940  0.79541  Biso   1.000  N
  C40      1.0000 0.12292  0.72500  0.84867  Biso   1.000  C
  C41      1.0000 0.08858  0.85022  0.90492  Biso   1.000  C
  C42      1.0000 0.19790  0.54394  0.75658  Biso   1.000  C
  C43      1.0000 0.24830  0.43507  0.68491  Biso   1.000  C
  N22      1.0000 0.11712  0.56346  0.73464  Biso   1.000  N
  O10      1.0000 0.00075  0.50003  0.70631  Biso   1.000  O
  C44      1.0000 0.23705  0.50003  0.89993  Biso   1.000  C
  N23      1.0000 0.17468  0.67985  0.90785  Biso   1.000  N
  O11      1.0000 0.20403  0.67108  0.05924  Biso   1.000  O
  C45      1.0000 0.08716  0.63741  0.71655  Biso   1.000  C
  C46      1.0000 0.16162  0.77876  0.78903  Biso   1.000  C
  H45      1.0000 0.14207  0.85950  0.92281  Biso   1.000  H
  H46      1.0000 0.07869  0.86601  0.84441  Biso   1.000  H
  H47      1.0000 0.05575  0.87823  0.94262  Biso   1.000  H
  N24      1.0000 0.22192  0.56255  0.84840  Biso   1.000  N
  C47      1.0000 0.24830  0.56493  0.68491  Biso   1.000  C
  H48      1.0000 0.30098  0.44893  0.70153  Biso   1.000  H
  H49      1.0000 0.23144  0.46121  0.63131  Biso   1.000  H
  H50      1.0000 0.24526  0.38149  0.67506  Biso   1.000  H
  O12      1.0000 0.26128  0.50003  0.97713  Biso   1.000  O
  C48      1.0000 0.23957  0.63764  0.88039  Biso   1.000  C
  H51      1.0000 0.12530  0.66593  0.68537  Biso   1.000  H
  H52      1.0000 0.04074  0.63311  0.67746  Biso   1.000  H
  H53      1.0000 0.19808  0.80931  0.82360  Biso   1.000  H
  H54      1.0000 0.18848  0.75081  0.74554  Biso   1.000  H
  H55      1.0000 0.12316  0.81073  0.75951  Biso   1.000  H
  H56      1.0000 0.30098  0.55112  0.70153  Biso   1.000  H
  H57      1.0000 0.23144  0.53879  0.63131  Biso   1.000  H
  H58      1.0000 0.24526  0.61851  0.67506  Biso   1.000  H
  H59      1.0000 0.26348  0.66553  0.83364  Biso   1.000  H
  H60      1.0000 0.27759  0.63390  0.93025  Biso   1.000  H
  C49      1.0000 0.57701  0.27200  0.08305  Biso   1.000  C
  N25      1.0000 0.50536  0.23805  0.11097  Biso   1.000  N
  H61      1.0000 0.61757  0.26340  0.12919  Biso   1.000  H
  H62      1.0000 0.56940  0.32632  0.07799  Biso   1.000  H
  N26      1.0000 0.60328  0.24444  0.00073  Biso   1.000  N
  C50      1.0000 0.42815  0.26775  0.08730  Biso   1.000  C
  C51      1.0000 0.50569  0.18922  0.18212  Biso   1.000  C
  C52      1.0000 0.66487  0.19516  0.99568  Biso   1.000  C
  C53      1.0000 0.57179  0.26775  0.91270  Biso   1.000  C
  C54      1.0000 0.37702  0.22498  0.15140  Biso   1.000  C
  C55      1.0000 0.41142  0.35020  0.09508  Biso   1.000  C
  N27      1.0000 0.39666  0.24444  0.99934  Biso   1.000  N
  N28      1.0000 0.43174  0.17937  0.20459  Biso   1.000  N
  O13      1.0000 0.56365  0.16019  0.21888  Biso   1.000  O
  O14      1.0000 0.70403  0.17105  0.05924  Biso   1.000  O
  N29      1.0000 0.67468  0.17982  0.90785  Biso   1.000  N
  N30      1.0000 0.49458  0.23805  0.88910  Biso   1.000  N
  C56      1.0000 0.62292  0.22498  0.84867  Biso   1.000  C
  C57      1.0000 0.58852  0.35020  0.90492  Biso   1.000  C
  C58      1.0000 0.33832  0.27873  0.21104  Biso   1.000  C
  N31      1.0000 0.32526  0.17982  0.09215  Biso   1.000  N
  H63      1.0000 0.35787  0.35953  0.07719  Biso   1.000  H
  H64      1.0000 0.42131  0.36598  0.15559  Biso   1.000  H
  H65      1.0000 0.44419  0.37820  0.05738  Biso   1.000  H
  C59      1.0000 0.33508  0.19516  0.00439  Biso   1.000  C
  C60      1.0000 0.42293  0.27200  0.91702  Biso   1.000  C
  C61      1.0000 0.41278  0.13738  0.28345  Biso   1.000  C
  C62      1.0000 0.73957  0.13761  0.88039  Biso   1.000  C
  C63      1.0000 0.49425  0.18922  0.81788  Biso   1.000  C
  N32      1.0000 0.56820  0.17937  0.79541  Biso   1.000  N
  C64      1.0000 0.66162  0.27873  0.78903  Biso   1.000  C
  H66      1.0000 0.64207  0.35953  0.92281  Biso   1.000  H
  H67      1.0000 0.57863  0.36598  0.84441  Biso   1.000  H
  H68      1.0000 0.55575  0.37820  0.94262  Biso   1.000  H
  H69      1.0000 0.30187  0.30929  0.17640  Biso   1.000  H
  H70      1.0000 0.31147  0.25078  0.25452  Biso   1.000  H
  H71      1.0000 0.37678  0.31070  0.24049  Biso   1.000  H
  C65      1.0000 0.26038  0.13761  0.11968  Biso   1.000  C
  O15      1.0000 0.29591  0.17105  0.94076  Biso   1.000  O
  H72      1.0000 0.38237  0.26340  0.87081  Biso   1.000  H
  H73      1.0000 0.43055  0.32632  0.92201  Biso   1.000  H
  H74      1.0000 0.37471  0.16590  0.31470  Biso   1.000  H
  H75      1.0000 0.45920  0.13308  0.32261  Biso   1.000  H
  N33      1.0000 0.38283  0.06349  0.26536  Biso   1.000  N
  H76      1.0000 0.76348  0.16551  0.83364  Biso   1.000  H
  H77      1.0000 0.77753  0.13388  0.93025  Biso   1.000  H
  N34      1.0000 0.72192  0.06252  0.84840  Biso   1.000  N
  O16      1.0000 0.43629  0.16019  0.78112  Biso   1.000  O
  C66      1.0000 0.58716  0.13738  0.71655  Biso   1.000  C
  H78      1.0000 0.69808  0.30929  0.82360  Biso   1.000  H
  H79      1.0000 0.68848  0.25078  0.74554  Biso   1.000  H
  H80      1.0000 0.62316  0.31070  0.75951  Biso   1.000  H
  H81      1.0000 0.23647  0.16551  0.16642  Biso   1.000  H
  H82      1.0000 0.22242  0.13388  0.06981  Biso   1.000  H
  N35      1.0000 0.27802  0.06252  0.15160  Biso   1.000  N
  C67      1.0000 0.30210  0.04397  0.24342  Biso   1.000  C
  C68      1.0000 0.42887  0.00000  0.27573  Biso   1.000  C
  C69      1.0000 0.73705  0.00000  0.89993  Biso   1.000  C
  C70      1.0000 0.69784  0.04397  0.75658  Biso   1.000  C
  H83      1.0000 0.62524  0.16590  0.68537  Biso   1.000  H
  H84      1.0000 0.54074  0.13308  0.67746  Biso   1.000  H
  N36      1.0000 0.61712  0.06349  0.73464  Biso   1.000  N
  C71      1.0000 0.26289  0.00000  0.10013  Biso   1.000  C
  C72      1.0000 0.25164  0.06496  0.31516  Biso   1.000  C
  C73      1.0000 0.30210  0.95609  0.24342  Biso   1.000  C
  O17      1.0000 0.49925  0.00000  0.29375  Biso   1.000  O
  N37      1.0000 0.38283  0.93657  0.26536  Biso   1.000  N
  N38      1.0000 0.72192  0.93748  0.84840  Biso   1.000  N
  O18      1.0000 0.76128  0.00000  0.97713  Biso   1.000  O
  C74      1.0000 0.69784  0.95609  0.75658  Biso   1.000  C
  C75      1.0000 0.74824  0.06496  0.68491  Biso   1.000  C
  C76      1.0000 0.57107  0.00000  0.72427  Biso   1.000  C
  O19      1.0000 0.23866  0.00000  0.02287  Biso   1.000  O
  N39      1.0000 0.27802  0.93748  0.15160  Biso   1.000  N
  H85      1.0000 0.19896  0.05109  0.29847  Biso   1.000  H
  H86      1.0000 0.26850  0.03882  0.36869  Biso   1.000  H
  H87      1.0000 0.25468  0.11849  0.32500  Biso   1.000  H
  C77      1.0000 0.25164  0.93510  0.31516  Biso   1.000  C
  C78      1.0000 0.41278  0.86262  0.28345  Biso   1.000  C
  C79      1.0000 0.73957  0.86239  0.88039  Biso   1.000  C
  N40      1.0000 0.61712  0.93657  0.73464  Biso   1.000  N
  C80      1.0000 0.74824  0.93510  0.68491  Biso   1.000  C
  H88      1.0000 0.80098  0.05109  0.70153  Biso   1.000  H
  H89      1.0000 0.73144  0.03882  0.63131  Biso   1.000  H
  H90      1.0000 0.74526  0.11849  0.67506  Biso   1.000  H
  O20      1.0000 0.50069  0.00000  0.70631  Biso   1.000  O
  C81      1.0000 0.26038  0.86239  0.11968  Biso   1.000  C
  H91      1.0000 0.19896  0.94891  0.29847  Biso   1.000  H
  H92      1.0000 0.26850  0.96124  0.36869  Biso   1.000  H
  H93      1.0000 0.25468  0.88151  0.32500  Biso   1.000  H
  H94      1.0000 0.37471  0.83410  0.31470  Biso   1.000  H
  H95      1.0000 0.45920  0.86692  0.32261  Biso   1.000  H
  N41      1.0000 0.43174  0.82063  0.20459  Biso   1.000  N
  H96      1.0000 0.76348  0.83449  0.83364  Biso   1.000  H
  H97      1.0000 0.77753  0.86612  0.93025  Biso   1.000  H
  N42      1.0000 0.67468  0.82023  0.90785  Biso   1.000  N
  C82      1.0000 0.58716  0.86262  0.71655  Biso   1.000  C
  H98      1.0000 0.80098  0.94891  0.70153  Biso   1.000  H
  H99      1.0000 0.73144  0.96124  0.63131  Biso   1.000  H
  H100     1.0000 0.74526  0.88151  0.67506  Biso   1.000  H
  H101     1.0000 0.23647  0.83449  0.16642  Biso   1.000  H
  H102     1.0000 0.22242  0.86612  0.06981  Biso   1.000  H
  N43      1.0000 0.32526  0.82023  0.09215  Biso   1.000  N
  C83      1.0000 0.37702  0.77502  0.15140  Biso   1.000  C
  C84      1.0000 0.50569  0.81078  0.18212  Biso   1.000  C
  C85      1.0000 0.66487  0.80490  0.99568  Biso   1.000  C
  C86      1.0000 0.62292  0.77502  0.84867  Biso   1.000  C
  H103     1.0000 0.62524  0.83410  0.68537  Biso   1.000  H
  H104     1.0000 0.54074  0.86692  0.67746  Biso   1.000  H
  N44      1.0000 0.56820  0.82063  0.79541  Biso   1.000  N
  C87      1.0000 0.33508  0.80490  0.00439  Biso   1.000  C
  C88      1.0000 0.42815  0.73225  0.08730  Biso   1.000  C
  C89      1.0000 0.33832  0.72127  0.21104  Biso   1.000  C
  N45      1.0000 0.50536  0.76195  0.11097  Biso   1.000  N
  O21      1.0000 0.56365  0.83987  0.21888  Biso   1.000  O
  N46      1.0000 0.60328  0.75562  0.00073  Biso   1.000  N
  O22      1.0000 0.70403  0.82895  0.05924  Biso   1.000  O
  C90      1.0000 0.57179  0.73225  0.91270  Biso   1.000  C
  C91      1.0000 0.66162  0.72127  0.78903  Biso   1.000  C
  C92      1.0000 0.49425  0.81078  0.81788  Biso   1.000  C
  N47      1.0000 0.39666  0.75562  0.99934  Biso   1.000  N
  O23      1.0000 0.29591  0.82895  0.94076  Biso   1.000  O
  C93      1.0000 0.41142  0.64980  0.09508  Biso   1.000  C
  H105     1.0000 0.30187  0.69071  0.17640  Biso   1.000  H
  H106     1.0000 0.31147  0.74922  0.25452  Biso   1.000  H
  H107     1.0000 0.37678  0.68930  0.24049  Biso   1.000  H
  C94      1.0000 0.57701  0.72800  0.08305  Biso   1.000  C
  N48      1.0000 0.49458  0.76195  0.88910  Biso   1.000  N
  C95      1.0000 0.58852  0.64980  0.90492  Biso   1.000  C
  H108     1.0000 0.69808  0.69071  0.82360  Biso   1.000  H
  H109     1.0000 0.68848  0.74922  0.74554  Biso   1.000  H
  H110     1.0000 0.62316  0.68930  0.75951  Biso   1.000  H
  O24      1.0000 0.43629  0.83987  0.78112  Biso   1.000  O
  C96      1.0000 0.42293  0.72800  0.91702  Biso   1.000  C
  H111     1.0000 0.35787  0.64053  0.07719  Biso   1.000  H
  H112     1.0000 0.42131  0.63402  0.15559  Biso   1.000  H
  H113     1.0000 0.44419  0.62180  0.05738  Biso   1.000  H
  H114     1.0000 0.61757  0.73660  0.12919  Biso   1.000  H
  H115     1.0000 0.56940  0.67374  0.07799  Biso   1.000  H
  H116     1.0000 0.64207  0.64053  0.92281  Biso   1.000  H
  H117     1.0000 0.57863  0.63402  0.84441  Biso   1.000  H
  H118     1.0000 0.55575  0.62180  0.94262  Biso   1.000  H
  H119     1.0000 0.38237  0.73660  0.87081  Biso   1.000  H
  H120     1.0000 0.43055  0.67374  0.92201  Biso   1.000  H
