data_image0
_cell_length_a       12.075
_cell_length_b       12.319
_cell_length_c       12.32
_cell_angle_alpha    106.54
_cell_angle_beta     97.09
_cell_angle_gamma    107.69

_symmetry_space_group_name_H-M    "P 1"
_symmetry_int_tables_number       1

loop_
  _symmetry_equiv_pos_as_xyz
  'x, y, z'

loop_
  _atom_site_label
  _atom_site_occupancy
  _atom_site_fract_x
  _atom_site_fract_y
  _atom_site_fract_z
  _atom_site_thermal_displace_type
  _atom_site_B_iso_or_equiv
  _atom_site_type_symbol
  C1       1.0000 0.23702  0.90858  0.22708  Biso   1.000  C
  N1       1.0000 0.13666  0.83529  0.24578  Biso   1.000  N
  O1       1.0000 0.28917  0.88003  0.15052  Biso   1.000  O
  N2       1.0000 0.27191  0.02170  0.30982  Biso   1.000  N
  C2       1.0000 0.08877  0.70517  0.18453  Biso   1.000  C
  C3       1.0000 0.10960  0.89250  0.35436  Biso   1.000  C
  C4       1.0000 0.20392  0.02348  0.39882  Biso   1.000  C
  C5       1.0000 0.38382  0.11596  0.32261  Biso   1.000  C
  N3       1.0000 0.97824  0.66473  0.10014  Biso   1.000  N
  H1       1.0000 0.07611  0.66415  0.24083  Biso   1.000  H
  H2       1.0000 0.14725  0.68213  0.14530  Biso   1.000  H
  N4       1.0000 0.99733  0.91200  0.34210  Biso   1.000  N
  H3       1.0000 0.11702  0.85035  0.40987  Biso   1.000  H
  N5       1.0000 0.13168  0.09891  0.40561  Biso   1.000  N
  H4       1.0000 0.25474  0.04184  0.47504  Biso   1.000  H
  N6       1.0000 0.37114  0.20939  0.27928  Biso   1.000  N
  H5       1.0000 0.43432  0.07964  0.28172  Biso   1.000  H
  H6       1.0000 0.42393  0.15284  0.40439  Biso   1.000  H
  C6       1.0000 0.96741  0.61980  0.98269  Biso   1.000  C
  C7       1.0000 0.86436  0.64174  0.13233  Biso   1.000  C
  C8       1.0000 0.88310  0.81625  0.31191  Biso   1.000  C
  C9       1.0000 0.01245  0.03339  0.37707  Biso   1.000  C
  C10      1.0000 0.18055  0.23039  0.44572  Biso   1.000  C
  C11      1.0000 0.38811  0.21371  0.17192  Biso   1.000  C
  C12      1.0000 0.34113  0.31059  0.34427  Biso   1.000  C
  N7       1.0000 0.84765  0.58104  0.93014  Biso   1.000  N
  O2       1.0000 0.04757  0.61316  0.93327  Biso   1.000  O
  C13      1.0000 0.77242  0.58234  0.01349  Biso   1.000  C
  N8       1.0000 0.83956  0.74940  0.18862  Biso   1.000  N
  H7       1.0000 0.85407  0.58737  0.17792  Biso   1.000  H
  H8       1.0000 0.88910  0.76023  0.35210  Biso   1.000  H
  H9       1.0000 0.82520  0.85072  0.33940  Biso   1.000  H
  O3       1.0000 0.93187  0.07449  0.38507  Biso   1.000  O
  N9       1.0000 0.21851  0.27898  0.35723  Biso   1.000  N
  H10      1.0000 0.24838  0.25892  0.51097  Biso   1.000  H
  H11      1.0000 0.12048  0.26125  0.47338  Biso   1.000  H
  N10      1.0000 0.37055  0.31476  0.15991  Biso   1.000  N
  O4       1.0000 0.41571  0.14058  0.10032  Biso   1.000  O
  C14      1.0000 0.34699  0.38710  0.26432  Biso   1.000  C
  H12      1.0000 0.39806  0.35677  0.41961  Biso   1.000  H
  C15      1.0000 0.80274  0.52378  0.80581  Biso   1.000  C
  N11      1.0000 0.70630  0.66342  0.01940  Biso   1.000  N
  H13      1.0000 0.72018  0.50027  0.00383  Biso   1.000  H
  C16      1.0000 0.74183  0.75508  0.12520  Biso   1.000  C
  C17      1.0000 0.16339  0.34804  0.31774  Biso   1.000  C
  C18      1.0000 0.39829  0.35739  0.06543  Biso   1.000  C
  N12      1.0000 0.23011  0.39775  0.25040  Biso   1.000  N
  H14      1.0000 0.41068  0.46664  0.29999  Biso   1.000  H
  N13      1.0000 0.77018  0.60241  0.74961  Biso   1.000  N
  H15      1.0000 0.86311  0.49845  0.77214  Biso   1.000  H
  H16      1.0000 0.73309  0.45165  0.79007  Biso   1.000  H
  C19      1.0000 0.60201  0.64277  0.93458  Biso   1.000  C
  O5       1.0000 0.69301  0.82890  0.15696  Biso   1.000  O
  O6       1.0000 0.07125  0.36165  0.33905  Biso   1.000  O
  N14      1.0000 0.29397  0.33665  0.98060  Biso   1.000  N
  H17      1.0000 0.44445  0.44355  0.09692  Biso   1.000  H
  H18      1.0000 0.44755  0.31685  0.02706  Biso   1.000  H
  C20      1.0000 0.19756  0.47638  0.19419  Biso   1.000  C
  C21      1.0000 0.65330  0.61306  0.73569  Biso   1.000  C
  C22      1.0000 0.83690  0.65212  0.68227  Biso   1.000  C
  N15      1.0000 0.62974  0.68540  0.84009  Biso   1.000  N
  H19      1.0000 0.55582  0.55652  0.90308  Biso   1.000  H
  H20      1.0000 0.55272  0.68323  0.97295  Biso   1.000  H
  C23      1.0000 0.25841  0.24490  0.87481  Biso   1.000  C
  C24      1.0000 0.22784  0.41773  0.98652  Biso   1.000  C
  N16      1.0000 0.15261  0.41903  0.06987  Biso   1.000  N
  H21      1.0000 0.13719  0.50171  0.22786  Biso   1.000  H
  H22      1.0000 0.26720  0.54851  0.20994  Biso   1.000  H
  C25      1.0000 0.65916  0.68956  0.65574  Biso   1.000  C
  H23      1.0000 0.58959  0.53343  0.70002  Biso   1.000  H
  N17      1.0000 0.78176  0.72109  0.64277  Biso   1.000  N
  O7       1.0000 0.92910  0.63842  0.66096  Biso   1.000  O
  C26      1.0000 0.61219  0.78645  0.82809  Biso   1.000  C
  N18      1.0000 0.16071  0.25068  0.81138  Biso   1.000  N
  O8       1.0000 0.30725  0.17118  0.84305  Biso   1.000  O
  C27      1.0000 0.13591  0.35833  0.86767  Biso   1.000  C
  H24      1.0000 0.28009  0.49981  0.99618  Biso   1.000  H
  C28      1.0000 0.03286  0.38027  0.01732  Biso   1.000  C
  N19      1.0000 0.62916  0.79077  0.72073  Biso   1.000  N
  H25      1.0000 0.60221  0.64330  0.58039  Biso   1.000  H
  C29      1.0000 0.81972  0.76968  0.55429  Biso   1.000  C
  O9       1.0000 0.58457  0.85953  0.89978  Biso   1.000  O
  C30      1.0000 0.11717  0.18382  0.68810  Biso   1.000  C
  N20      1.0000 0.02200  0.33525  0.89986  Biso   1.000  N
  H26      1.0000 0.14619  0.41270  0.82208  Biso   1.000  H
  O10      1.0000 0.95269  0.38691  0.06673  Biso   1.000  O
  C31      1.0000 0.61645  0.88411  0.67740  Biso   1.000  C
  N21      1.0000 0.86859  0.90116  0.59440  Biso   1.000  N
  H27      1.0000 0.75200  0.74124  0.48904  Biso   1.000  H
  H28      1.0000 0.87979  0.73882  0.52662  Biso   1.000  H
  N22      1.0000 0.00299  0.08798  0.65791  Biso   1.000  N
  H29      1.0000 0.11114  0.23976  0.64791  Biso   1.000  H
  H30      1.0000 0.17504  0.14927  0.66061  Biso   1.000  H
  C32      1.0000 0.91149  0.29490  0.81547  Biso   1.000  C
  N23      1.0000 0.72844  0.97837  0.69019  Biso   1.000  N
  H31      1.0000 0.56597  0.92052  0.71829  Biso   1.000  H
  H32      1.0000 0.57636  0.84732  0.59562  Biso   1.000  H
  C33      1.0000 0.98781  0.96668  0.62294  Biso   1.000  C
  C34      1.0000 0.79635  0.97659  0.60119  Biso   1.000  C
  C35      1.0000 0.89064  0.10749  0.64564  Biso   1.000  C
  N24      1.0000 0.86363  0.16481  0.75431  Biso   1.000  N
  H33      1.0000 0.92416  0.33592  0.75918  Biso   1.000  H
  H34      1.0000 0.85302  0.31795  0.85471  Biso   1.000  H
  C36      1.0000 0.76322  0.09141  0.77293  Biso   1.000  C
  O11      1.0000 0.06842  0.92566  0.61493  Biso   1.000  O
  H35      1.0000 0.74556  0.95831  0.52497  Biso   1.000  H
  H36      1.0000 0.88325  0.14973  0.59014  Biso   1.000  H
  O12      1.0000 0.71109  0.12004  0.84949  Biso   1.000  O
  Ne1      1.0000 0.00014  0.00004  0.00001  Biso   1.000  Ne
  He1      1.0000 0.83255  0.11438  0.12252  Biso   1.000  He
  He2      1.0000 0.18234  0.87865  0.86940  Biso   1.000  He
  Ar1      1.0000 0.00015  0.00004  0.00002  Biso   1.000  Ar
