data_image0
_cell_length_a       12.587
_cell_length_b       16.138
_cell_length_c       17.863
_cell_angle_alpha    87.78
_cell_angle_beta     89.75
_cell_angle_gamma    67.89

_symmetry_space_group_name_H-M    "P 1"
_symmetry_int_tables_number       1

loop_
  _symmetry_equiv_pos_as_xyz
  'x, y, z'

loop_
  _atom_site_label
  _atom_site_occupancy
  _atom_site_fract_x
  _atom_site_fract_y
  _atom_site_fract_z
  _atom_site_thermal_displace_type
  _atom_site_B_iso_or_equiv
  _atom_site_type_symbol
  C1       1.0000 0.16536  0.71348  0.36989  Biso   1.000  C
  N1       1.0000 0.13158  0.65096  0.33039  Biso   1.000  N
  N2       1.0000 0.19895  0.68568  0.44782  Biso   1.000  N
  H1       1.0000 0.10199  0.77106  0.36860  Biso   1.000  H
  H2       1.0000 0.22907  0.72107  0.34401  Biso   1.000  H
  C2       1.0000 0.21108  0.57911  0.28888  Biso   1.000  C
  C3       1.0000 0.02117  0.67036  0.30372  Biso   1.000  C
  C4       1.0000 0.31686  0.62975  0.46900  Biso   1.000  C
  C5       1.0000 0.13282  0.72766  0.50408  Biso   1.000  C
  C6       1.0000 0.13635  0.54340  0.24389  Biso   1.000  C
  N3       1.0000 0.28164  0.50737  0.33588  Biso   1.000  N
  H3       1.0000 0.25762  0.60130  0.25560  Biso   1.000  H
  N4       1.0000 0.02122  0.60831  0.25582  Biso   1.000  N
  O1       1.0000 0.93873  0.73756  0.32372  Biso   1.000  O
  N5       1.0000 0.34841  0.53706  0.45332  Biso   1.000  N
  C7       1.0000 0.30543  0.62629  0.55669  Biso   1.000  C
  H4       1.0000 0.37303  0.65466  0.45169  Biso   1.000  H
  N6       1.0000 0.19053  0.68708  0.56940  Biso   1.000  N
  O2       1.0000 0.03366  0.77745  0.50083  Biso   1.000  O
  N7       1.0000 0.15972  0.45839  0.27330  Biso   1.000  N
  H5       1.0000 0.15571  0.54200  0.19072  Biso   1.000  H
  C8       1.0000 0.26219  0.43411  0.31941  Biso   1.000  C
  C9       1.0000 0.37733  0.50148  0.37779  Biso   1.000  C
  C10      1.0000 0.91644  0.60769  0.22540  Biso   1.000  C
  C11      1.0000 0.36757  0.48208  0.51489  Biso   1.000  C
  N8       1.0000 0.34080  0.53529  0.57719  Biso   1.000  N
  H6       1.0000 0.35883  0.64985  0.57882  Biso   1.000  H
  C12      1.0000 0.14415  0.71604  0.64493  Biso   1.000  C
  C13      1.0000 0.13105  0.39301  0.23492  Biso   1.000  C
  O3       1.0000 0.30949  0.35261  0.34261  Biso   1.000  O
  H7       1.0000 0.45196  0.47745  0.35997  Biso   1.000  H
  N9       1.0000 0.88108  0.54506  0.25828  Biso   1.000  N
  H8       1.0000 0.87602  0.64667  0.18651  Biso   1.000  H
  O4       1.0000 0.40643  0.39938  0.51842  Biso   1.000  O
  C14      1.0000 0.34897  0.49449  0.65260  Biso   1.000  C
  N10      1.0000 0.09798  0.65315  0.68588  Biso   1.000  N
  H9       1.0000 0.08327  0.77476  0.63949  Biso   1.000  H
  H10      1.0000 0.20459  0.72195  0.67518  Biso   1.000  H
  N11      1.0000 0.02182  0.39188  0.25722  Biso   1.000  N
  H11      1.0000 0.12946  0.40587  0.18130  Biso   1.000  H
  H12      1.0000 0.18979  0.33420  0.24512  Biso   1.000  H
  C15      1.0000 0.91076  0.45755  0.23072  Biso   1.000  C
  C16      1.0000 0.77384  0.56485  0.30451  Biso   1.000  C
  N12      1.0000 0.24060  0.50051  0.68622  Biso   1.000  N
  H13      1.0000 0.39832  0.43177  0.65092  Biso   1.000  H
  H14      1.0000 0.38577  0.52269  0.68521  Biso   1.000  H
  C17      1.0000 0.17262  0.57759  0.72880  Biso   1.000  C
  C18      1.0000 0.98808  0.67729  0.69451  Biso   1.000  C
  C19      1.0000 0.01201  0.32268  0.30552  Biso   1.000  C
  H15      1.0000 0.90250  0.45876  0.17609  Biso   1.000  H
  C20      1.0000 0.82747  0.42237  0.27123  Biso   1.000  C
  N13      1.0000 0.75942  0.49946  0.31381  Biso   1.000  N
  O5       1.0000 0.72932  0.64451  0.32412  Biso   1.000  O
  C21      1.0000 0.22628  0.43505  0.69552  Biso   1.000  C
  C22      1.0000 0.08936  0.54235  0.76931  Biso   1.000  C
  H16      1.0000 0.21994  0.59416  0.76410  Biso   1.000  H
  N14      1.0000 0.97827  0.60809  0.74281  Biso   1.000  N
  O6       1.0000 0.90898  0.73977  0.67048  Biso   1.000  O
  O7       1.0000 0.09111  0.26020  0.32950  Biso   1.000  O
  N15      1.0000 0.90211  0.34682  0.31409  Biso   1.000  N
  H17      1.0000 0.78015  0.40581  0.23587  Biso   1.000  H
  C23      1.0000 0.65112  0.50548  0.34742  Biso   1.000  C
  O8       1.0000 0.27077  0.35546  0.67591  Biso   1.000  O
  N16      1.0000 0.11901  0.45491  0.74169  Biso   1.000  N
  H18      1.0000 0.09751  0.54121  0.82388  Biso   1.000  H
  C24      1.0000 0.86904  0.60696  0.76511  Biso   1.000  C
  C25      1.0000 0.85589  0.28386  0.35510  Biso   1.000  C
  N17      1.0000 0.65921  0.46468  0.42278  Biso   1.000  N
  H19      1.0000 0.60169  0.56820  0.34910  Biso   1.000  H
  H20      1.0000 0.61432  0.47727  0.31482  Biso   1.000  H
  C26      1.0000 0.08365  0.39227  0.77463  Biso   1.000  C
  N18      1.0000 0.84037  0.54158  0.72673  Biso   1.000  N
  H21      1.0000 0.87063  0.59409  0.81872  Biso   1.000  H
  H22      1.0000 0.81022  0.66577  0.75491  Biso   1.000  H
  N19      1.0000 0.80956  0.31288  0.43062  Biso   1.000  N
  H23      1.0000 0.91681  0.22521  0.36048  Biso   1.000  H
  H24      1.0000 0.79550  0.27802  0.32479  Biso   1.000  H
  C27      1.0000 0.69466  0.37368  0.44329  Biso   1.000  C
  C28      1.0000 0.63252  0.51789  0.48508  Biso   1.000  C
  N20      1.0000 0.97887  0.39165  0.74421  Biso   1.000  N
  H25      1.0000 0.12407  0.35329  0.81351  Biso   1.000  H
  C29      1.0000 0.73782  0.56585  0.68062  Biso   1.000  C
  C30      1.0000 0.86374  0.45657  0.75609  Biso   1.000  C
  C31      1.0000 0.86719  0.27231  0.49590  Biso   1.000  C
  H26      1.0000 0.64121  0.35005  0.42121  Biso   1.000  H
  C32      1.0000 0.68323  0.37022  0.53102  Biso   1.000  C
  N21      1.0000 0.65160  0.46290  0.54671  Biso   1.000  N
  O9       1.0000 0.59366  0.60059  0.48161  Biso   1.000  O
  C33      1.0000 0.97892  0.32960  0.69630  Biso   1.000  C
  N22      1.0000 0.71845  0.49260  0.66409  Biso   1.000  N
  O10      1.0000 0.69052  0.64736  0.65742  Biso   1.000  O
  C34      1.0000 0.78893  0.42086  0.71110  Biso   1.000  C
  H27      1.0000 0.84438  0.45797  0.80931  Biso   1.000  H
  O11      1.0000 0.96643  0.22252  0.49920  Biso   1.000  O
  N23      1.0000 0.80114  0.31429  0.55220  Biso   1.000  N
  H28      1.0000 0.62698  0.34531  0.54828  Biso   1.000  H
  C35      1.0000 0.62276  0.49849  0.62218  Biso   1.000  C
  N24      1.0000 0.86851  0.34901  0.66958  Biso   1.000  N
  O12      1.0000 0.06129  0.26241  0.67630  Biso   1.000  O
  H29      1.0000 0.74247  0.39867  0.74443  Biso   1.000  H
  C36      1.0000 0.83473  0.28649  0.63008  Biso   1.000  C
  H30      1.0000 0.54816  0.52245  0.64000  Biso   1.000  H
  H31      1.0000 0.89810  0.22890  0.63143  Biso   1.000  H
  H32      1.0000 0.77102  0.27889  0.65602  Biso   1.000  H
  O13      1.0000 0.12159  0.77111  0.18870  Biso   1.000  O
  C37      1.0000 0.18671  0.74848  0.13609  Biso   1.000  C
  N25      1.0000 0.17353  0.70247  0.07580  Biso   1.000  N
  N26      1.0000 0.29369  0.76265  0.12791  Biso   1.000  N
  C38      1.0000 0.08395  0.68436  0.06981  Biso   1.000  C
  C39      1.0000 0.27225  0.67729  0.02891  Biso   1.000  C
  C40      1.0000 0.35256  0.71407  0.06393  Biso   1.000  C
  C41      1.0000 0.33793  0.79599  0.18730  Biso   1.000  C
  H33      1.0000 0.07534  0.64088  0.10219  Biso   1.000  H
  N27      1.0000 0.99260  0.73001  0.01322  Biso   1.000  N
  H34      1.0000 0.30827  0.61205  0.02661  Biso   1.000  H
  N28      1.0000 0.24685  0.71886  0.95406  Biso   1.000  N
  N29      1.0000 0.37034  0.77426  0.00672  Biso   1.000  N
  H35      1.0000 0.42513  0.66607  0.07889  Biso   1.000  H
  N30      1.0000 0.32243  0.88579  0.16959  Biso   1.000  N
  H36      1.0000 0.37190  0.76387  0.23089  Biso   1.000  H
  C42      1.0000 0.99847  0.70351  0.93658  Biso   1.000  C
  C43      1.0000 0.89024  0.78480  0.03401  Biso   1.000  C
  C44      1.0000 0.19708  0.69257  0.89260  Biso   1.000  C
  C45      1.0000 0.31703  0.76669  0.94268  Biso   1.000  C
  C46      1.0000 0.44600  0.81001  0.01451  Biso   1.000  C
  C47      1.0000 0.40382  0.91576  0.12472  Biso   1.000  C
  C48      1.0000 0.24812  0.96130  0.20332  Biso   1.000  C
  C49      1.0000 0.87643  0.76307  0.90229  Biso   1.000  C
  N31      1.0000 0.07494  0.73020  0.88890  Biso   1.000  N
  H37      1.0000 0.01380  0.63951  0.93366  Biso   1.000  H
  N32      1.0000 0.81934  0.80809  0.96795  Biso   1.000  N
  O14      1.0000 0.84880  0.79840  0.09782  Biso   1.000  O
  H38      1.0000 0.22183  0.62791  0.89506  Biso   1.000  H
  H39      1.0000 0.22651  0.70922  0.84660  Biso   1.000  H
  O15      1.0000 0.32844  0.80689  0.88117  Biso   1.000  O
  N33      1.0000 0.39902  0.89490  0.04902  Biso   1.000  N
  H40      1.0000 0.52187  0.78370  0.99950  Biso   1.000  H
  H41      1.0000 0.48204  0.89037  0.14522  Biso   1.000  H
  C50      1.0000 0.35309  0.01075  0.13138  Biso   1.000  C
  O16      1.0000 0.17300  0.95455  0.24932  Biso   1.000  O
  N34      1.0000 0.25374  0.03466  0.17408  Biso   1.000  N
  N35      1.0000 0.90185  0.82077  0.84548  Biso   1.000  N
  H42      1.0000 0.83765  0.72697  0.88089  Biso   1.000  H
  C51      1.0000 0.01367  0.79302  0.83416  Biso   1.000  C
  C52      1.0000 0.69057  0.85907  0.97036  Biso   1.000  C
  C53      1.0000 0.37140  0.98500  0.00291  Biso   1.000  C
  N36      1.0000 0.34108  0.04981  0.05323  Biso   1.000  N
  H43      1.0000 0.40807  0.02901  0.15800  Biso   1.000  H
  C54      1.0000 0.18783  0.12540  0.20540  Biso   1.000  C
  C55      1.0000 0.81225  0.87457  0.79460  Biso   1.000  C
  O17      1.0000 0.06163  0.82808  0.78620  Biso   1.000  O
  N37      1.0000 0.65900  0.95016  0.94677  Biso   1.000  N
  H44      1.0000 0.65294  0.83111  0.93826  Biso   1.000  H
  H45      1.0000 0.66420  0.85577  0.02112  Biso   1.000  H
  O18      1.0000 0.36809  0.98709  0.93809  Biso   1.000  O
  C56      1.0000 0.30951  0.14090  0.02958  Biso   1.000  C
  N38      1.0000 0.09823  0.17920  0.15452  Biso   1.000  N
  H46      1.0000 0.15469  0.11756  0.25307  Biso   1.000  H
  H47      1.0000 0.23982  0.15568  0.21419  Biso   1.000  H
  N39      1.0000 0.74634  0.96531  0.82587  Biso   1.000  N
  H48      1.0000 0.84531  0.88240  0.74687  Biso   1.000  H
  H49      1.0000 0.76026  0.84429  0.78575  Biso   1.000  H
  C57      1.0000 0.64691  0.98921  0.86856  Biso   1.000  C
  C58      1.0000 0.62860  0.01497  0.99709  Biso   1.000  C
  H50      1.0000 0.33580  0.14419  0.97888  Biso   1.000  H
  N40      1.0000 0.18073  0.19188  0.03199  Biso   1.000  N
  H51      1.0000 0.34714  0.16886  0.06169  Biso   1.000  H
  C59      1.0000 0.98641  0.20695  0.16578  Biso   1.000  C
  C60      1.0000 0.12357  0.23689  0.09771  Biso   1.000  C
  C61      1.0000 0.75195  0.03867  0.79668  Biso   1.000  C
  H52      1.0000 0.59193  0.97096  0.84200  Biso   1.000  H
  C62      1.0000 0.59618  0.08420  0.87528  Biso   1.000  C
  N41      1.0000 0.60106  0.10506  0.95098  Biso   1.000  N
  O19      1.0000 0.63199  0.01287  0.06191  Biso   1.000  O
  C63      1.0000 0.10984  0.21517  0.96599  Biso   1.000  C
  O20      1.0000 0.93836  0.17188  0.21380  Biso   1.000  O
  N42      1.0000 0.92513  0.26976  0.11110  Biso   1.000  N
  H53      1.0000 0.16242  0.27299  0.11911  Biso   1.000  H
  C64      1.0000 0.00161  0.29646  0.06342  Biso   1.000  C
  O21      1.0000 0.82708  0.04542  0.75068  Biso   1.000  O
  N43      1.0000 0.67765  0.11418  0.83035  Biso   1.000  N
  H54      1.0000 0.51803  0.10960  0.85478  Biso   1.000  H
  C65      1.0000 0.55400  0.18996  0.98549  Biso   1.000  C
  O22      1.0000 0.15120  0.20157  0.90218  Biso   1.000  O
  N44      1.0000 0.00740  0.26996  0.98678  Biso   1.000  N
  C66      1.0000 0.80300  0.30739  0.10740  Biso   1.000  C
  H55      1.0000 0.98620  0.36046  0.06628  Biso   1.000  H
  C67      1.0000 0.66215  0.20398  0.81270  Biso   1.000  C
  N45      1.0000 0.62973  0.22570  0.99328  Biso   1.000  N
  H56      1.0000 0.47821  0.21626  0.00050  Biso   1.000  H
  C68      1.0000 0.91613  0.31560  0.93019  Biso   1.000  C
  N46      1.0000 0.75322  0.28111  0.04589  Biso   1.000  N
  H57      1.0000 0.77825  0.37206  0.10488  Biso   1.000  H
  H58      1.0000 0.77349  0.29075  0.15340  Biso   1.000  H
  N47      1.0000 0.70642  0.23725  0.87209  Biso   1.000  N
  H59      1.0000 0.62809  0.23609  0.76906  Biso   1.000  H
  C69      1.0000 0.64752  0.28589  0.93607  Biso   1.000  C
  C70      1.0000 0.68304  0.23327  0.05732  Biso   1.000  C
  N48      1.0000 0.82655  0.29750  0.92420  Biso   1.000  N
  H60      1.0000 0.92474  0.35909  0.89775  Biso   1.000  H
  C71      1.0000 0.72783  0.32268  0.97109  Biso   1.000  C
  C72      1.0000 0.81329  0.25149  0.86385  Biso   1.000  C
  H61      1.0000 0.57495  0.33390  0.92106  Biso   1.000  H
  O23      1.0000 0.67163  0.19308  0.11878  Biso   1.000  O
  H62      1.0000 0.69180  0.38791  0.97339  Biso   1.000  H
  O24      1.0000 0.87841  0.22886  0.81130  Biso   1.000  O
