data_image0
_cell_length_a       10.527
_cell_length_b       17.734
_cell_length_c       14.865
_cell_angle_alpha    90
_cell_angle_beta     105.67
_cell_angle_gamma    90

_symmetry_space_group_name_H-M    "P 1"
_symmetry_int_tables_number       1

loop_
  _symmetry_equiv_pos_as_xyz
  'x, y, z'

loop_
  _atom_site_label
  _atom_site_occupancy
  _atom_site_fract_x
  _atom_site_fract_y
  _atom_site_fract_z
  _atom_site_thermal_displace_type
  _atom_site_B_iso_or_equiv
  _atom_site_type_symbol
  O1       1.0000 0.57577  0.42122  0.56692  Biso   1.000  O
  C1       1.0000 0.53499  0.39782  0.48838  Biso   1.000  C
  C2       1.0000 0.40249  0.35829  0.45506  Biso   1.000  C
  C3       1.0000 0.61287  0.40651  0.41712  Biso   1.000  C
  H1       1.0000 0.33339  0.39602  0.44597  Biso   1.000  H
  H2       1.0000 0.39666  0.33563  0.39469  Biso   1.000  H
  C4       1.0000 0.37624  0.29802  0.51948  Biso   1.000  C
  C5       1.0000 0.69955  0.33771  0.42096  Biso   1.000  C
  H3       1.0000 0.66713  0.45151  0.43060  Biso   1.000  H
  H4       1.0000 0.55311  0.41158  0.35507  Biso   1.000  H
  C6       1.0000 0.40937  0.22398  0.50348  Biso   1.000  C
  C7       1.0000 0.32162  0.31206  0.59221  Biso   1.000  C
  C8       1.0000 0.82896  0.33619  0.47609  Biso   1.000  C
  C9       1.0000 0.64665  0.27298  0.37268  Biso   1.000  C
  H5       1.0000 0.44560  0.21462  0.45401  Biso   1.000  H
  C10      1.0000 0.39107  0.16358  0.55811  Biso   1.000  C
  C11      1.0000 0.30167  0.25211  0.64650  Biso   1.000  C
  C12      1.0000 0.28549  0.39128  0.61429  Biso   1.000  C
  C13      1.0000 0.90103  0.27061  0.47700  Biso   1.000  C
  C14      1.0000 0.89417  0.40329  0.53373  Biso   1.000  C
  H6       1.0000 0.56053  0.27478  0.33467  Biso   1.000  H
  C15      1.0000 0.71554  0.20576  0.37820  Biso   1.000  C
  C16      1.0000 0.33670  0.17836  0.63224  Biso   1.000  C
  C17      1.0000 0.43280  0.08599  0.53701  Biso   1.000  C
  H7       1.0000 0.26316  0.26159  0.69471  Biso   1.000  H
  H8       1.0000 0.36351  0.42201  0.63057  Biso   1.000  H
  H9       1.0000 0.24659  0.38982  0.66571  Biso   1.000  H
  H10      1.0000 0.22355  0.41232  0.56049  Biso   1.000  H
  C18      1.0000 0.84641  0.20492  0.43018  Biso   1.000  C
  H11      1.0000 0.98954  0.27022  0.51032  Biso   1.000  H
  H12      1.0000 0.84164  0.41931  0.57383  Biso   1.000  H
  H13      1.0000 0.90192  0.44389  0.49279  Biso   1.000  H
  H14      1.0000 0.98038  0.38920  0.57097  Biso   1.000  H
  C19      1.0000 0.64441  0.13646  0.33020  Biso   1.000  C
  C20      1.0000 0.31433  0.11695  0.69589  Biso   1.000  C
  H15      1.0000 0.35911  0.05222  0.52737  Biso   1.000  H
  H16      1.0000 0.50288  0.06863  0.58851  Biso   1.000  H
  H17      1.0000 0.46291  0.08780  0.48147  Biso   1.000  H
  C21      1.0000 0.93134  0.13454  0.43941  Biso   1.000  C
  H18      1.0000 0.62243  0.10432  0.37569  Biso   1.000  H
  H19      1.0000 0.70048  0.10979  0.29988  Biso   1.000  H
  H20      1.0000 0.56498  0.15140  0.28458  Biso   1.000  H
  H21      1.0000 0.24831  0.13460  0.72552  Biso   1.000  H
  H22      1.0000 0.27673  0.07398  0.65733  Biso   1.000  H
  C22      1.0000 0.42968  0.08943  0.77093  Biso   1.000  C
  C23      1.0000 0.90305  0.08035  0.50969  Biso   1.000  C
  H23      1.0000 0.91445  0.10979  0.37918  Biso   1.000  H
  H24      1.0000 0.02371  0.14881  0.45869  Biso   1.000  H
  O2       1.0000 0.42612  0.02724  0.80342  Biso   1.000  O
  C24      1.0000 0.54656  0.14030  0.80838  Biso   1.000  C
  C25      1.0000 0.95228  0.10122  0.61163  Biso   1.000  C
  O3       1.0000 0.84421  0.02261  0.48643  Biso   1.000  O
  H25      1.0000 0.58556  0.12879  0.87378  Biso   1.000  H
  H26      1.0000 0.51665  0.19217  0.80419  Biso   1.000  H
  C26      1.0000 0.65080  0.13195  0.75591  Biso   1.000  C
  H27      1.0000 0.99912  0.14881  0.61638  Biso   1.000  H
  C27      1.0000 0.84629  0.10849  0.66250  Biso   1.000  C
  H28      1.0000 0.01514  0.06332  0.64293  Biso   1.000  H
  C28      1.0000 0.69955  0.06051  0.74550  Biso   1.000  C
  C29      1.0000 0.70349  0.19370  0.72021  Biso   1.000  C
  C30      1.0000 0.79631  0.04703  0.70058  Biso   1.000  C
  C31      1.0000 0.79818  0.18011  0.67410  Biso   1.000  C
  H29      1.0000 0.66514  0.01962  0.77010  Biso   1.000  H
  C32      1.0000 0.66538  0.27416  0.73362  Biso   1.000  C
  C33      1.0000 0.84694  0.96797  0.69631  Biso   1.000  C
  H30      1.0000 0.83230  0.22099  0.64922  Biso   1.000  H
  H31      1.0000 0.67735  0.28369  0.79888  Biso   1.000  H
  H32      1.0000 0.57457  0.28211  0.70051  Biso   1.000  H
  H33      1.0000 0.71997  0.30788  0.70987  Biso   1.000  H
  H34      1.0000 0.94004  0.96662  0.72573  Biso   1.000  H
  H35      1.0000 0.83026  0.95269  0.63217  Biso   1.000  H
  H36      1.0000 0.80243  0.93431  0.72831  Biso   1.000  H
  O4       1.0000 0.42424  0.57878  0.43312  Biso   1.000  O
  C34      1.0000 0.46499  0.60218  0.51158  Biso   1.000  C
  C35      1.0000 0.38714  0.59349  0.58292  Biso   1.000  C
  C36      1.0000 0.59752  0.64171  0.54498  Biso   1.000  C
  C37      1.0000 0.30046  0.66229  0.57907  Biso   1.000  C
  H37      1.0000 0.33288  0.54849  0.56943  Biso   1.000  H
  H38      1.0000 0.44687  0.58842  0.64489  Biso   1.000  H
  H39      1.0000 0.66660  0.60398  0.55399  Biso   1.000  H
  H40      1.0000 0.60332  0.66437  0.60527  Biso   1.000  H
  C38      1.0000 0.62377  0.70198  0.48056  Biso   1.000  C
  C39      1.0000 0.17102  0.66381  0.52388  Biso   1.000  C
  C40      1.0000 0.35336  0.72702  0.62735  Biso   1.000  C
  C41      1.0000 0.59061  0.77602  0.49649  Biso   1.000  C
  C42      1.0000 0.67839  0.68794  0.40782  Biso   1.000  C
  C43      1.0000 0.09896  0.72939  0.52297  Biso   1.000  C
  C44      1.0000 0.10584  0.59671  0.46631  Biso   1.000  C
  H41      1.0000 0.43945  0.72522  0.66529  Biso   1.000  H
  C45      1.0000 0.28447  0.79424  0.62183  Biso   1.000  C
  H42      1.0000 0.55441  0.78538  0.54603  Biso   1.000  H
  C46      1.0000 0.60891  0.83642  0.44185  Biso   1.000  C
  C47      1.0000 0.69834  0.74789  0.35354  Biso   1.000  C
  C48      1.0000 0.71449  0.60872  0.38568  Biso   1.000  C
  C49      1.0000 0.15357  0.79508  0.56978  Biso   1.000  C
  H43      1.0000 0.01047  0.72978  0.48971  Biso   1.000  H
  H44      1.0000 0.15837  0.58069  0.42620  Biso   1.000  H
  H45      1.0000 0.09806  0.55611  0.50718  Biso   1.000  H
  H46      1.0000 0.01961  0.61080  0.42900  Biso   1.000  H
  C50      1.0000 0.35560  0.86354  0.66983  Biso   1.000  C
  C51      1.0000 0.66328  0.82164  0.36772  Biso   1.000  C
  C52      1.0000 0.56721  0.91401  0.46302  Biso   1.000  C
  H47      1.0000 0.73686  0.73841  0.30533  Biso   1.000  H
  H48      1.0000 0.63647  0.57799  0.36940  Biso   1.000  H
  H49      1.0000 0.75342  0.61018  0.33432  Biso   1.000  H
  H50      1.0000 0.77643  0.58768  0.43948  Biso   1.000  H
  C53      1.0000 0.06867  0.86546  0.56063  Biso   1.000  C
  H51      1.0000 0.37755  0.89568  0.62428  Biso   1.000  H
  H52      1.0000 0.29950  0.89021  0.70009  Biso   1.000  H
  H53      1.0000 0.43500  0.84860  0.71539  Biso   1.000  H
  C54      1.0000 0.68565  0.88305  0.30407  Biso   1.000  C
  H54      1.0000 0.64087  0.94778  0.47259  Biso   1.000  H
  H55      1.0000 0.49713  0.93137  0.41153  Biso   1.000  H
  H56      1.0000 0.53707  0.91220  0.51850  Biso   1.000  H
  C55      1.0000 0.09693  0.91965  0.49027  Biso   1.000  C
  H57      1.0000 0.08554  0.89021  0.62079  Biso   1.000  H
  H58      1.0000 0.97627  0.85119  0.54127  Biso   1.000  H
  H59      1.0000 0.75170  0.86540  0.27451  Biso   1.000  H
  H60      1.0000 0.72328  0.92602  0.34271  Biso   1.000  H
  C56      1.0000 0.57033  0.91057  0.22910  Biso   1.000  C
  C57      1.0000 0.04773  0.89878  0.38840  Biso   1.000  C
  O5       1.0000 0.15577  0.97739  0.51354  Biso   1.000  O
  O6       1.0000 0.57387  0.97276  0.19654  Biso   1.000  O
  C58      1.0000 0.45345  0.85970  0.19165  Biso   1.000  C
  H61      1.0000 0.00086  0.85119  0.38358  Biso   1.000  H
  C59      1.0000 0.15369  0.89151  0.33747  Biso   1.000  C
  H62      1.0000 0.98487  0.93668  0.35710  Biso   1.000  H
  H63      1.0000 0.41442  0.87121  0.12618  Biso   1.000  H
  H64      1.0000 0.48333  0.80783  0.19577  Biso   1.000  H
  C60      1.0000 0.34921  0.86805  0.24412  Biso   1.000  C
  C61      1.0000 0.20370  0.95297  0.29946  Biso   1.000  C
  C62      1.0000 0.20183  0.81989  0.32594  Biso   1.000  C
  C63      1.0000 0.30046  0.93949  0.25453  Biso   1.000  C
  C64      1.0000 0.29652  0.80630  0.27982  Biso   1.000  C
  C65      1.0000 0.15308  0.03203  0.30372  Biso   1.000  C
  H65      1.0000 0.16771  0.77901  0.35081  Biso   1.000  H
  H66      1.0000 0.33485  0.98038  0.22987  Biso   1.000  H
  C66      1.0000 0.33463  0.72584  0.26641  Biso   1.000  C
  H67      1.0000 0.05997  0.03338  0.27431  Biso   1.000  H
  H68      1.0000 0.16972  0.04731  0.36779  Biso   1.000  H
  H69      1.0000 0.19758  0.06569  0.27172  Biso   1.000  H
  H70      1.0000 0.32263  0.71631  0.20108  Biso   1.000  H
  H71      1.0000 0.42544  0.71789  0.29953  Biso   1.000  H
  H72      1.0000 0.28002  0.69212  0.29010  Biso   1.000  H
  C67      1.0000 0.80045  0.56051  0.75451  Biso   1.000  C
  C68      1.0000 0.70369  0.54703  0.79944  Biso   1.000  C
  C69      1.0000 0.84920  0.63195  0.74410  Biso   1.000  C
  H73      1.0000 0.83486  0.51962  0.72992  Biso   1.000  H
  C70      1.0000 0.65307  0.46797  0.80370  Biso   1.000  C
  C71      1.0000 0.65368  0.60849  0.83745  Biso   1.000  C
  C72      1.0000 0.95344  0.64030  0.69163  Biso   1.000  C
  C73      1.0000 0.79651  0.69370  0.77981  Biso   1.000  C
  H74      1.0000 0.55996  0.46662  0.77429  Biso   1.000  H
  H75      1.0000 0.66971  0.45269  0.86777  Biso   1.000  H
  H76      1.0000 0.69757  0.43431  0.77170  Biso   1.000  H
  C74      1.0000 0.54772  0.60122  0.88838  Biso   1.000  C
  C75      1.0000 0.70182  0.68011  0.82592  Biso   1.000  C
  H77      1.0000 0.91441  0.62879  0.62617  Biso   1.000  H
  H78      1.0000 0.98335  0.69217  0.69582  Biso   1.000  H
  C76      1.0000 0.07032  0.58943  0.72908  Biso   1.000  C
  C77      1.0000 0.83462  0.77416  0.76639  Biso   1.000  C
  H79      1.0000 0.50088  0.64881  0.88363  Biso   1.000  H
  H80      1.0000 0.48486  0.56332  0.85708  Biso   1.000  H
  C78      1.0000 0.59695  0.58035  0.99032  Biso   1.000  C
  H81      1.0000 0.66770  0.72099  0.85079  Biso   1.000  H
  C79      1.0000 0.18567  0.61695  0.80412  Biso   1.000  C
  O7       1.0000 0.07389  0.52724  0.69659  Biso   1.000  O
  H82      1.0000 0.82265  0.78369  0.70113  Biso   1.000  H
  H83      1.0000 0.92543  0.78211  0.79951  Biso   1.000  H
  H84      1.0000 0.78001  0.80788  0.79008  Biso   1.000  H
  O8       1.0000 0.65579  0.52261  0.01359  Biso   1.000  O
  C80      1.0000 0.56866  0.63454  0.06061  Biso   1.000  C
  C81      1.0000 0.16330  0.67836  0.86777  Biso   1.000  C
  H85      1.0000 0.25169  0.63460  0.77450  Biso   1.000  H
  H86      1.0000 0.22327  0.57398  0.84269  Biso   1.000  H
  H87      1.0000 0.58556  0.60979  0.12084  Biso   1.000  H
  H88      1.0000 0.47629  0.64881  0.04133  Biso   1.000  H
  C82      1.0000 0.65359  0.70492  0.06983  Biso   1.000  C
  C83      1.0000 0.10893  0.66358  0.94190  Biso   1.000  C
  C84      1.0000 0.19833  0.75211  0.85352  Biso   1.000  C
  C85      1.0000 0.59897  0.77061  0.02302  Biso   1.000  C
  C86      1.0000 0.78447  0.70576  0.12182  Biso   1.000  C
  C87      1.0000 0.09061  0.72398  0.99647  Biso   1.000  C
  C88      1.0000 0.06720  0.58599  0.96300  Biso   1.000  C
  H89      1.0000 0.23685  0.76159  0.80531  Biso   1.000  H
  C89      1.0000 0.17838  0.81206  0.90781  Biso   1.000  C
  H90      1.0000 0.51046  0.77022  0.98969  Biso   1.000  H
  C90      1.0000 0.67104  0.83619  0.02393  Biso   1.000  C
  C91      1.0000 0.85338  0.77298  0.12740  Biso   1.000  C
  C92      1.0000 0.85559  0.63646  0.16982  Biso   1.000  C
  C93      1.0000 0.12376  0.79802  0.98054  Biso   1.000  C
  H91      1.0000 0.05440  0.71462  0.04601  Biso   1.000  H
  H92      1.0000 0.99712  0.56863  0.91151  Biso   1.000  H
  H93      1.0000 0.14086  0.55222  0.97258  Biso   1.000  H
  H94      1.0000 0.03709  0.58780  0.01855  Biso   1.000  H
  C94      1.0000 0.21451  0.89128  0.88573  Biso   1.000  C
  C95      1.0000 0.60584  0.90329  0.96629  Biso   1.000  C
  C96      1.0000 0.80048  0.83771  0.07913  Biso   1.000  C
  H95      1.0000 0.93947  0.77478  0.16534  Biso   1.000  H
  H96      1.0000 0.87757  0.60432  0.12433  Biso   1.000  H
  H97      1.0000 0.79952  0.60979  0.20014  Biso   1.000  H
  H98      1.0000 0.93502  0.65140  0.21544  Biso   1.000  H
  C97      1.0000 0.09751  0.85829  0.04496  Biso   1.000  C
  H99      1.0000 0.13646  0.92201  0.86938  Biso   1.000  H
  H100     1.0000 0.25342  0.88982  0.83430  Biso   1.000  H
  H101     1.0000 0.27645  0.91232  0.93953  Biso   1.000  H
  H102     1.0000 0.65836  0.91931  0.92618  Biso   1.000  H
  H103     1.0000 0.51960  0.88920  0.92898  Biso   1.000  H
  H104     1.0000 0.59808  0.94389  0.00723  Biso   1.000  H
  C98      1.0000 0.88716  0.90651  0.08297  Biso   1.000  C
  C99      1.0000 0.96501  0.89782  0.01163  Biso   1.000  C
  H105     1.0000 0.16662  0.89602  0.05404  Biso   1.000  H
  H106     1.0000 0.10334  0.83563  0.10533  Biso   1.000  H
  H107     1.0000 0.83288  0.95151  0.06941  Biso   1.000  H
  H108     1.0000 0.94689  0.91158  0.14494  Biso   1.000  H
  O9       1.0000 0.92423  0.92122  0.93310  Biso   1.000  O
  C100     1.0000 0.19953  0.43949  0.24545  Biso   1.000  C
  C101     1.0000 0.15081  0.36805  0.25593  Biso   1.000  C
  H109     1.0000 0.16515  0.48038  0.27011  Biso   1.000  H
  C102     1.0000 0.29630  0.45297  0.20052  Biso   1.000  C
  C103     1.0000 0.20347  0.30630  0.22016  Biso   1.000  C
  C104     1.0000 0.04657  0.35970  0.30840  Biso   1.000  C
  C105     1.0000 0.34630  0.39151  0.16252  Biso   1.000  C
  C106     1.0000 0.34694  0.53203  0.19633  Biso   1.000  C
  C107     1.0000 0.16536  0.22584  0.23357  Biso   1.000  C
  C108     1.0000 0.29819  0.31989  0.17411  Biso   1.000  C
  H110     1.0000 0.08557  0.37121  0.37380  Biso   1.000  H
  H111     1.0000 0.01666  0.30783  0.30421  Biso   1.000  H
  C109     1.0000 0.92967  0.41057  0.27088  Biso   1.000  C
  C110     1.0000 0.45227  0.39878  0.11158  Biso   1.000  C
  H112     1.0000 0.44002  0.53338  0.22568  Biso   1.000  H
  H113     1.0000 0.33027  0.54731  0.13219  Biso   1.000  H
  H114     1.0000 0.30244  0.56569  0.22833  Biso   1.000  H
  H115     1.0000 0.17736  0.21631  0.29890  Biso   1.000  H
  H116     1.0000 0.07458  0.21789  0.20052  Biso   1.000  H
  H117     1.0000 0.21998  0.19212  0.20989  Biso   1.000  H
  H118     1.0000 0.33228  0.27901  0.14917  Biso   1.000  H
  C111     1.0000 0.81434  0.38305  0.19591  Biso   1.000  C
  O10      1.0000 0.92612  0.47276  0.30344  Biso   1.000  O
  H119     1.0000 0.49913  0.35119  0.11640  Biso   1.000  H
  H120     1.0000 0.51512  0.43668  0.14288  Biso   1.000  H
  C112     1.0000 0.40306  0.41965  0.00971  Biso   1.000  C
  C113     1.0000 0.83671  0.32164  0.13226  Biso   1.000  C
  H121     1.0000 0.74829  0.36540  0.22547  Biso   1.000  H
  H122     1.0000 0.77671  0.42602  0.15727  Biso   1.000  H
  O11      1.0000 0.34422  0.47739  0.98645  Biso   1.000  O
  C114     1.0000 0.43132  0.36546  0.93935  Biso   1.000  C
  C115     1.0000 0.89108  0.33642  0.05813  Biso   1.000  C
  C116     1.0000 0.80165  0.24789  0.14645  Biso   1.000  C
  H123     1.0000 0.41446  0.39021  0.87920  Biso   1.000  H
  H124     1.0000 0.52369  0.35119  0.95864  Biso   1.000  H
  C117     1.0000 0.34642  0.29508  0.93020  Biso   1.000  C
  C118     1.0000 0.90938  0.27602  0.00349  Biso   1.000  C
  C119     1.0000 0.93281  0.41401  0.03703  Biso   1.000  C
  H125     1.0000 0.76316  0.23841  0.19472  Biso   1.000  H
  C120     1.0000 0.82163  0.18794  0.09223  Biso   1.000  C
  C121     1.0000 0.40101  0.22939  0.97694  Biso   1.000  C
  C122     1.0000 0.21552  0.29424  0.87815  Biso   1.000  C
  H126     1.0000 0.94558  0.28538  0.95396  Biso   1.000  H
  C123     1.0000 0.87622  0.20198  0.01942  Biso   1.000  C
  H127     1.0000 0.00289  0.43137  0.08852  Biso   1.000  H
  H128     1.0000 0.96292  0.41220  0.98148  Biso   1.000  H
  H129     1.0000 0.85912  0.44778  0.02739  Biso   1.000  H
  C124     1.0000 0.78550  0.10872  0.11431  Biso   1.000  C
  H130     1.0000 0.48953  0.22978  0.01027  Biso   1.000  H
  C125     1.0000 0.32894  0.16381  0.97603  Biso   1.000  C
  C126     1.0000 0.14663  0.22702  0.87263  Biso   1.000  C
  C127     1.0000 0.14440  0.36354  0.83015  Biso   1.000  C
  C128     1.0000 0.90247  0.14171  0.95500  Biso   1.000  C
  H131     1.0000 0.86352  0.07799  0.13058  Biso   1.000  H
  H132     1.0000 0.74659  0.11018  0.16573  Biso   1.000  H
  H133     1.0000 0.72356  0.08768  0.06051  Biso   1.000  H
  C129     1.0000 0.39415  0.09671  0.03368  Biso   1.000  C
  C130     1.0000 0.19953  0.16229  0.92091  Biso   1.000  C
  H134     1.0000 0.06054  0.22522  0.83469  Biso   1.000  H
  H135     1.0000 0.12242  0.39568  0.87563  Biso   1.000  H
  H136     1.0000 0.20049  0.39021  0.79990  Biso   1.000  H
  H137     1.0000 0.06499  0.34860  0.78459  Biso   1.000  H
  H138     1.0000 0.83340  0.10398  0.94599  Biso   1.000  H
  H139     1.0000 0.89664  0.16437  0.89464  Biso   1.000  H
  C131     1.0000 0.03497  0.10218  0.98833  Biso   1.000  C
  H140     1.0000 0.34162  0.08069  0.07378  Biso   1.000  H
  H141     1.0000 0.48038  0.11080  0.07099  Biso   1.000  H
  H142     1.0000 0.40190  0.05611  0.99273  Biso   1.000  H
  C132     1.0000 0.11285  0.09349  0.91707  Biso   1.000  C
  O12      1.0000 0.07575  0.07878  0.06686  Biso   1.000  O
  H143     1.0000 0.16711  0.04849  0.93055  Biso   1.000  H
  H144     1.0000 0.05312  0.08842  0.85509  Biso   1.000  H
