data_image0
_cell_length_a       15.602
_cell_length_b       18.655
_cell_length_c       44.242
_cell_angle_alpha    90
_cell_angle_beta     90
_cell_angle_gamma    90

_symmetry_space_group_name_H-M    "P 1"
_symmetry_int_tables_number       1

loop_
  _symmetry_equiv_pos_as_xyz
  'x, y, z'

loop_
  _atom_site_label
  _atom_site_occupancy
  _atom_site_fract_x
  _atom_site_fract_y
  _atom_site_fract_z
  _atom_site_thermal_displace_type
  _atom_site_B_iso_or_equiv
  _atom_site_type_symbol
  C1       1.0000 0.85008  0.74082  0.40369  Biso   1.000  C
  C2       1.0000 0.76856  0.76832  0.38109  Biso   1.000  C
  C3       1.0000 0.78907  0.74543  0.37690  Biso   1.000  C
  H1       1.0000 0.89591  0.77631  0.40127  Biso   1.000  H
  H2       1.0000 0.81855  0.75052  0.42238  Biso   1.000  H
  H3       1.0000 0.87508  0.69268  0.40459  Biso   1.000  H
  C4       1.0000 0.80810  0.78660  0.35170  Biso   1.000  C
  C5       1.0000 0.74766  0.81930  0.37399  Biso   1.000  C
  H4       1.0000 0.72004  0.80134  0.38477  Biso   1.000  H
  C6       1.0000 0.83086  0.77239  0.40880  Biso   1.000  C
  H5       1.0000 0.74510  0.71916  0.37991  Biso   1.000  H
  H6       1.0000 0.74362  0.70887  0.37916  Biso   1.000  H
  H7       1.0000 0.82098  0.73466  0.35805  Biso   1.000  H
  C7       1.0000 0.74926  0.78054  0.32404  Biso   1.000  C
  H8       1.0000 0.85810  0.75476  0.34854  Biso   1.000  H
  H9       1.0000 0.82983  0.83634  0.35283  Biso   1.000  H
  C8       1.0000 0.67716  0.82611  0.35028  Biso   1.000  C
  H10      1.0000 0.79317  0.85457  0.36926  Biso   1.000  H
  H11      1.0000 0.72337  0.83248  0.39392  Biso   1.000  H
  H12      1.0000 0.79977  0.75964  0.42726  Biso   1.000  H
  H13      1.0000 0.87848  0.73889  0.40577  Biso   1.000  H
  H14      1.0000 0.85329  0.82128  0.41065  Biso   1.000  H
  C9       1.0000 0.67876  0.83602  0.32200  Biso   1.000  C
  C10      1.0000 0.70908  0.81994  0.31771  Biso   1.000  C
  H15      1.0000 0.78509  0.78403  0.30561  Biso   1.000  H
  H16      1.0000 0.72266  0.73235  0.32413  Biso   1.000  H
  H17      1.0000 0.64357  0.83490  0.34063  Biso   1.000  H
  H18      1.0000 0.64844  0.87306  0.35283  Biso   1.000  H
  H19      1.0000 0.63383  0.78831  0.35392  Biso   1.000  H
  C11      1.0000 0.62428  0.82053  0.29542  Biso   1.000  C
  H20      1.0000 0.70414  0.88448  0.32006  Biso   1.000  H
  H21      1.0000 0.74728  0.86063  0.31273  Biso   1.000  H
  H22      1.0000 0.74157  0.77475  0.31495  Biso   1.000  H
  C12      1.0000 0.66325  0.82069  0.26371  Biso   1.000  C
  H23      1.0000 0.57691  0.85586  0.29549  Biso   1.000  H
  H24      1.0000 0.59819  0.77277  0.29865  Biso   1.000  H
  H25      1.0000 0.58845  0.77749  0.29870  Biso   1.000  H
  H26      1.0000 0.58903  0.86390  0.29888  Biso   1.000  H
  C13      1.0000 0.60101  0.79941  0.23866  Biso   1.000  C
  H27      1.0000 0.71029  0.78435  0.26369  Biso   1.000  H
  C14      1.0000 0.70356  0.89220  0.25480  Biso   1.000  C
  C15      1.0000 0.51391  0.81544  0.23979  Biso   1.000  C
  C16      1.0000 0.63223  0.76548  0.21287  Biso   1.000  C
  C17      1.0000 0.66690  0.95738  0.26296  Biso   1.000  C
  C18      1.0000 0.77503  0.89338  0.23622  Biso   1.000  C
  C19      1.0000 0.45725  0.79850  0.21631  Biso   1.000  C
  H28      1.0000 0.49199  0.83886  0.25722  Biso   1.000  H
  C20      1.0000 0.57800  0.74731  0.18880  Biso   1.000  C
  O1       1.0000 0.71702  0.74291  0.21116  Biso   1.000  O
  H29      1.0000 0.61697  0.95701  0.27526  Biso   1.000  H
  C21      1.0000 0.70042  0.02343  0.25383  Biso   1.000  C
  O2       1.0000 0.81534  0.83039  0.22768  Biso   1.000  O
  C22      1.0000 0.81099  0.95830  0.22621  Biso   1.000  C
  C23      1.0000 0.36245  0.81769  0.21715  Biso   1.000  C
  C24      1.0000 0.49103  0.76435  0.19090  Biso   1.000  C
  C25      1.0000 0.61076  0.71198  0.16254  Biso   1.000  C
  C26      1.0000 0.77952  0.79410  0.20264  Biso   1.000  C
  C27      1.0000 0.65722  0.09413  0.26201  Biso   1.000  C
  C28      1.0000 0.77234  0.02267  0.23536  Biso   1.000  C
  C29      1.0000 0.88162  0.95824  0.20573  Biso   1.000  C
  C30      1.0000 0.32368  0.81876  0.24902  Biso   1.000  C
  C31      1.0000 0.35117  0.88813  0.20006  Biso   1.000  C
  H30      1.0000 0.33130  0.77995  0.20544  Biso   1.000  H
  O3       1.0000 0.43744  0.74109  0.16785  Biso   1.000  O
  C32      1.0000 0.63671  0.68352  0.14014  Biso   1.000  C
  H31      1.0000 0.82586  0.76971  0.19136  Biso   1.000  H
  H32      1.0000 0.75285  0.82964  0.18892  Biso   1.000  H
  C33      1.0000 0.59448  0.11337  0.23701  Biso   1.000  C
  C34      1.0000 0.61684  0.09317  0.29361  Biso   1.000  C
  H33      1.0000 0.70286  0.13181  0.26213  Biso   1.000  H
  O4       1.0000 0.80990  0.08593  0.22565  Biso   1.000  O
  C35      1.0000 0.93642  0.95615  0.18688  Biso   1.000  C
  C36      1.0000 0.22632  0.82262  0.24877  Biso   1.000  C
  H34      1.0000 0.34175  0.77491  0.25993  Biso   1.000  H
  H35      1.0000 0.34656  0.86063  0.26016  Biso   1.000  H
  C37      1.0000 0.35527  0.95427  0.21475  Biso   1.000  C
  C38      1.0000 0.34098  0.88866  0.16875  Biso   1.000  C
  C39      1.0000 0.41322  0.79116  0.14554  Biso   1.000  C
  C40      1.0000 0.67081  0.64765  0.11401  Biso   1.000  C
  C41      1.0000 0.50750  0.09654  0.23857  Biso   1.000  C
  C42      1.0000 0.62415  0.14709  0.21082  Biso   1.000  C
  C43      1.0000 0.68369  0.08711  0.31859  Biso   1.000  C
  H36      1.0000 0.58332  0.13771  0.29657  Biso   1.000  H
  H37      1.0000 0.57672  0.05216  0.29506  Biso   1.000  H
  C44      1.0000 0.77067  0.11836  0.20019  Biso   1.000  C
  C45      1.0000 0.99955  0.95218  0.16335  Biso   1.000  C
  C46      1.0000 0.18786  0.83452  0.27998  Biso   1.000  C
  H38      1.0000 0.20331  0.77738  0.24034  Biso   1.000  H
  H39      1.0000 0.20824  0.86218  0.23532  Biso   1.000  H
  H40      1.0000 0.36361  0.95460  0.23602  Biso   1.000  H
  C47      1.0000 0.34784  0.01946  0.19997  Biso   1.000  C
  O5       1.0000 0.33457  0.82568  0.15248  Biso   1.000  O
  C48      1.0000 0.33323  0.95342  0.15262  Biso   1.000  C
  H41      1.0000 0.40770  0.76628  0.12588  Biso   1.000  H
  H42      1.0000 0.45879  0.82777  0.14353  Biso   1.000  H
  C49      1.0000 0.74843  0.59861  0.11937  Biso   1.000  C
  C50      1.0000 0.63223  0.65704  0.08802  Biso   1.000  C
  C51      1.0000 0.45007  0.11246  0.21541  Biso   1.000  C
  H43      1.0000 0.48654  0.07317  0.25616  Biso   1.000  H
  C52      1.0000 0.56884  0.16430  0.18702  Biso   1.000  C
  O6       1.0000 0.70837  0.16977  0.20849  Biso   1.000  O
  C53      1.0000 0.64408  0.07146  0.34958  Biso   1.000  C
  H44      1.0000 0.71638  0.13246  0.31972  Biso   1.000  H
  H45      1.0000 0.72439  0.04830  0.31344  Biso   1.000  H
  H46      1.0000 0.81528  0.14184  0.18774  Biso   1.000  H
  H47      1.0000 0.74324  0.08078  0.18772  Biso   1.000  H
  C54      1.0000 0.01045  0.88990  0.14986  Biso   1.000  C
  C55      1.0000 0.05172  0.01924  0.15558  Biso   1.000  C
  C56      1.0000 0.09037  0.83109  0.28077  Biso   1.000  C
  H48      1.0000 0.20638  0.88202  0.28751  Biso   1.000  H
  H49      1.0000 0.21100  0.79786  0.29395  Biso   1.000  H
  C57      1.0000 0.33643  0.01823  0.16864  Biso   1.000  C
  C58      1.0000 0.35617  0.09070  0.21665  Biso   1.000  C
  C59      1.0000 0.32445  0.95352  0.12032  Biso   1.000  C
  C60      1.0000 0.72292  0.54237  0.14294  Biso   1.000  C
  C61      1.0000 0.82310  0.64358  0.13135  Biso   1.000  C
  C62      1.0000 0.77439  0.56119  0.08985  Biso   1.000  C
  C63      1.0000 0.58762  0.66395  0.06306  Biso   1.000  C
  C64      1.0000 0.48173  0.14640  0.18957  Biso   1.000  C
  C65      1.0000 0.59935  0.20038  0.16057  Biso   1.000  C
  C66      1.0000 0.70728  0.07403  0.37550  Biso   1.000  C
  H50      1.0000 0.59806  0.10678  0.35344  Biso   1.000  H
  H51      1.0000 0.61742  0.02332  0.34903  Biso   1.000  H
  C67      1.0000 0.01987  0.82884  0.13553  Biso   1.000  C
  C68      1.0000 0.99051  0.08202  0.14993  Biso   1.000  C
  C69      1.0000 0.10967  0.03624  0.18263  Biso   1.000  C
  C70      1.0000 0.10595  0.00563  0.12744  Biso   1.000  C
  C71      1.0000 0.05358  0.75685  0.27691  Biso   1.000  C
  H52      1.0000 0.07031  0.85082  0.30030  Biso   1.000  H
  H53      1.0000 0.06749  0.86224  0.26452  Biso   1.000  H
  O7       1.0000 0.32637  0.08110  0.15246  Biso   1.000  O
  C72      1.0000 0.31791  0.08925  0.24861  Biso   1.000  C
  H54      1.0000 0.32323  0.12710  0.20481  Biso   1.000  H
  C73      1.0000 0.31983  0.95583  0.09335  Biso   1.000  C
  H55      1.0000 0.70491  0.56644  0.16157  Biso   1.000  H
  H56      1.0000 0.77208  0.51128  0.14721  Biso   1.000  H
  H57      1.0000 0.67543  0.51337  0.13512  Biso   1.000  H
  H58      1.0000 0.83791  0.68057  0.11652  Biso   1.000  H
  H59      1.0000 0.87284  0.61254  0.13480  Biso   1.000  H
  H60      1.0000 0.80631  0.66636  0.15042  Biso   1.000  H
  H61      1.0000 0.72677  0.53155  0.08261  Biso   1.000  H
  H62      1.0000 0.82457  0.53080  0.09351  Biso   1.000  H
  H63      1.0000 0.78849  0.59732  0.07454  Biso   1.000  H
  C74      1.0000 0.60249  0.72479  0.04331  Biso   1.000  C
  C75      1.0000 0.51737  0.61024  0.05438  Biso   1.000  C
  O8       1.0000 0.42764  0.16843  0.16665  Biso   1.000  O
  C76      1.0000 0.62441  0.23002  0.13826  Biso   1.000  C
  C77      1.0000 0.76856  0.00868  0.37460  Biso   1.000  C
  H64      1.0000 0.67568  0.07424  0.39490  Biso   1.000  H
  H65      1.0000 0.74119  0.11879  0.37428  Biso   1.000  H
  H66      1.0000 0.71895  0.12511  0.37989  Biso   1.000  H
  H67      1.0000 0.67818  0.05393  0.39349  Biso   1.000  H
  C78      1.0000 0.78695  0.03919  0.37279  Biso   1.000  C
  C79      1.0000 0.96866  0.81758  0.10901  Biso   1.000  C
  C80      1.0000 0.08358  0.77068  0.14536  Biso   1.000  C
  H68      1.0000 0.95321  0.07081  0.13275  Biso   1.000  H
  H69      1.0000 0.95539  0.09011  0.16799  Biso   1.000  H
  H70      1.0000 0.02378  0.12533  0.14545  Biso   1.000  H
  H71      1.0000 0.14985  0.99662  0.18582  Biso   1.000  H
  H72      1.0000 0.07441  0.04262  0.20076  Biso   1.000  H
  H73      1.0000 0.14171  0.08041  0.17861  Biso   1.000  H
  H74      1.0000 0.14511  0.96553  0.13123  Biso   1.000  H
  H75      1.0000 0.06839  0.99389  0.11039  Biso   1.000  H
  H76      1.0000 0.13915  0.04873  0.12264  Biso   1.000  H
  H77      1.0000 0.07986  0.72469  0.29212  Biso   1.000  H
  H78      1.0000 0.06941  0.73862  0.25666  Biso   1.000  H
  C81      1.0000 0.95680  0.75379  0.28023  Biso   1.000  C
  C82      1.0000 0.40347  0.11686  0.14482  Biso   1.000  C
  C83      1.0000 0.22100  0.07687  0.24766  Biso   1.000  C
  H79      1.0000 0.34534  0.05055  0.26048  Biso   1.000  H
  H80      1.0000 0.33002  0.13535  0.25885  Biso   1.000  H
  C84      1.0000 0.31611  0.95615  0.06087  Biso   1.000  C
  C85      1.0000 0.61172  0.77738  0.02823  Biso   1.000  C
  C86      1.0000 0.50679  0.55336  0.07891  Biso   1.000  C
  C87      1.0000 0.43251  0.65082  0.05038  Biso   1.000  C
  C88      1.0000 0.54390  0.57352  0.02477  Biso   1.000  C
  C89      1.0000 0.65088  0.26942  0.11179  Biso   1.000  C
  H81      1.0000 0.73478  0.96425  0.37740  Biso   1.000  H
  C90      1.0000 0.83726  0.01228  0.39869  Biso   1.000  C
  H82      1.0000 0.79624  0.00627  0.35450  Biso   1.000  H
  H83      1.0000 0.77766  0.98778  0.36852  Biso   1.000  H
  H84      1.0000 0.81932  0.06014  0.35568  Biso   1.000  H
  C91      1.0000 0.84066  0.04723  0.40240  Biso   1.000  C
  C92      1.0000 0.92456  0.81356  0.08686  Biso   1.000  C
  C93      1.0000 0.15248  0.76360  0.12074  Biso   1.000  C
  C94      1.0000 0.12582  0.79158  0.17533  Biso   1.000  C
  C95      1.0000 0.03628  0.69954  0.14945  Biso   1.000  C
  H85      1.0000 0.94033  0.77255  0.30010  Biso   1.000  H
  H86      1.0000 0.93744  0.70399  0.27840  Biso   1.000  H
  H87      1.0000 0.93001  0.78285  0.26436  Biso   1.000  H
  H88      1.0000 0.44994  0.08110  0.14272  Biso   1.000  H
  H89      1.0000 0.39617  0.14087  0.12502  Biso   1.000  H
  C96      1.0000 0.17844  0.06615  0.27820  Biso   1.000  C
  H90      1.0000 0.19389  0.11847  0.23760  Biso   1.000  H
  H91      1.0000 0.20952  0.03409  0.23505  Biso   1.000  H
  C97      1.0000 0.27214  0.89220  0.04523  Biso   1.000  C
  C98      1.0000 0.34906  0.01024  0.04606  Biso   1.000  C
  C99      1.0000 0.62197  0.84562  0.01085  Biso   1.000  C
  C100     1.0000 0.60576  0.83184  0.00310  Biso   1.000  C
  H92      1.0000 0.56012  0.52597  0.08085  Biso   1.000  H
  H93      1.0000 0.45994  0.52093  0.07341  Biso   1.000  H
  H94      1.0000 0.49359  0.57668  0.09821  Biso   1.000  H
  H95      1.0000 0.41655  0.67360  0.06955  Biso   1.000  H
  H96      1.0000 0.38751  0.61715  0.04428  Biso   1.000  H
  H97      1.0000 0.43937  0.68770  0.03479  Biso   1.000  H
  H98      1.0000 0.55333  0.60992  0.00915  Biso   1.000  H
  H99      1.0000 0.49840  0.54077  0.01826  Biso   1.000  H
  H100     1.0000 0.59691  0.54645  0.02801  Biso   1.000  H
  C101     1.0000 0.73042  0.26481  0.10278  Biso   1.000  C
  C102     1.0000 0.58287  0.31691  0.09649  Biso   1.000  C
  H101     1.0000 0.87425  0.96998  0.39722  Biso   1.000  H
  H102     1.0000 0.87175  0.05570  0.39580  Biso   1.000  H
  H103     1.0000 0.81034  0.01362  0.41872  Biso   1.000  H
  H104     1.0000 0.89578  0.02257  0.40000  Biso   1.000  H
  H105     1.0000 0.80919  0.02584  0.41935  Biso   1.000  H
  H106     1.0000 0.85079  0.09810  0.40654  Biso   1.000  H
  C103     1.0000 0.87252  0.81715  0.05895  Biso   1.000  C
  H107     1.0000 0.12505  0.75261  0.10135  Biso   1.000  H
  H108     1.0000 0.19215  0.72485  0.12610  Biso   1.000  H
  H109     1.0000 0.18421  0.80874  0.11905  Biso   1.000  H
  H110     1.0000 0.15274  0.83881  0.17325  Biso   1.000  H
  H111     1.0000 0.16947  0.75599  0.18062  Biso   1.000  H
  H112     1.0000 0.08223  0.79346  0.19127  Biso   1.000  H
  H113     1.0000 0.99532  0.70383  0.16613  Biso   1.000  H
  H114     1.0000 0.07775  0.66159  0.15402  Biso   1.000  H
  H115     1.0000 0.00558  0.68770  0.13080  Biso   1.000  H
  C104     1.0000 0.08230  0.04964  0.27469  Biso   1.000  C
  H116     1.0000 0.18562  0.11005  0.29054  Biso   1.000  H
  H117     1.0000 0.20670  0.02611  0.28896  Biso   1.000  H
  C105     1.0000 0.17671  0.89349  0.05393  Biso   1.000  C
  C106     1.0000 0.31432  0.82278  0.05639  Biso   1.000  C
  C107     1.0000 0.27990  0.89853  0.01096  Biso   1.000  C
  C108     1.0000 0.37591  0.06663  0.03083  Biso   1.000  C
  O9       1.0000 0.66530  0.90121  0.02744  Biso   1.000  O
  C109     1.0000 0.53359  0.87521  0.00301  Biso   1.000  C
  C110     1.0000 0.52718  0.87623  0.00631  Biso   1.000  C
  O10      1.0000 0.67889  0.86920  0.01160  Biso   1.000  O
  C111     1.0000 0.67100  0.82991  0.98176  Biso   1.000  C
  C112     1.0000 0.61210  0.81040  0.97010  Biso   1.000  C
  C113     1.0000 0.81227  0.26325  0.09599  Biso   1.000  C
  C114     1.0000 0.55063  0.37191  0.11977  Biso   1.000  C
  C115     1.0000 0.62107  0.35551  0.06941  Biso   1.000  C
  C116     1.0000 0.50820  0.26963  0.08648  Biso   1.000  C
  O11      1.0000 0.79765  0.85998  0.06446  Biso   1.000  O
  C117     1.0000 0.92507  0.85173  0.03422  Biso   1.000  C
  C118     1.0000 0.83919  0.74430  0.05007  Biso   1.000  C
  C119     1.0000 0.03711  0.03018  0.30392  Biso   1.000  C
  H118     1.0000 0.05371  0.09209  0.26581  Biso   1.000  H
  H119     1.0000 0.07563  0.00943  0.26027  Biso   1.000  H
  H120     1.0000 0.17120  0.89091  0.07597  Biso   1.000  H
  H121     1.0000 0.14761  0.85232  0.04475  Biso   1.000  H
  H122     1.0000 0.15062  0.93798  0.04661  Biso   1.000  H
  H123     1.0000 0.37514  0.82289  0.05090  Biso   1.000  H
  H124     1.0000 0.28599  0.78151  0.04701  Biso   1.000  H
  H125     1.0000 0.30874  0.81957  0.07841  Biso   1.000  H
  H126     1.0000 0.25151  0.94248  0.00418  Biso   1.000  H
  H127     1.0000 0.25260  0.85698  0.00140  Biso   1.000  H
  H128     1.0000 0.34060  0.90008  0.00529  Biso   1.000  H
  C120     1.0000 0.31656  0.12940  0.02278  Biso   1.000  C
  C121     1.0000 0.46436  0.07231  0.02140  Biso   1.000  C
  H129     1.0000 0.70138  0.88266  0.03915  Biso   1.000  H
  H130     1.0000 0.50269  0.88705  0.02159  Biso   1.000  H
  H131     1.0000 0.47705  0.84814  0.00011  Biso   1.000  H
  H132     1.0000 0.52064  0.89102  0.02742  Biso   1.000  H
  H133     1.0000 0.50128  0.83919  0.99157  Biso   1.000  H
  H134     1.0000 0.54006  0.91857  0.99064  Biso   1.000  H
  H135     1.0000 0.53205  0.91879  0.99340  Biso   1.000  H
  H136     1.0000 0.71190  0.84181  0.02113  Biso   1.000  H
  H137     1.0000 0.64152  0.79212  0.97044  Biso   1.000  H
  H138     1.0000 0.67370  0.87349  0.96940  Biso   1.000  H
  H139     1.0000 0.72920  0.81421  0.98671  Biso   1.000  H
  H140     1.0000 0.66242  0.77984  0.96714  Biso   1.000  H
  H141     1.0000 0.56031  0.78403  0.96424  Biso   1.000  H
  H142     1.0000 0.61742  0.85350  0.95760  Biso   1.000  H
  C122     1.0000 0.84496  0.21163  0.07457  Biso   1.000  C
  C123     1.0000 0.87732  0.31337  0.11146  Biso   1.000  C
  H143     1.0000 0.52621  0.34666  0.13720  Biso   1.000  H
  H144     1.0000 0.50654  0.40220  0.11048  Biso   1.000  H
  H145     1.0000 0.59858  0.40188  0.12646  Biso   1.000  H
  H146     1.0000 0.66870  0.38590  0.07610  Biso   1.000  H
  H147     1.0000 0.57704  0.38537  0.05990  Biso   1.000  H
  H148     1.0000 0.64223  0.32024  0.05481  Biso   1.000  H
  H149     1.0000 0.52871  0.23382  0.07197  Biso   1.000  H
  H150     1.0000 0.46411  0.29944  0.07690  Biso   1.000  H
  H151     1.0000 0.48372  0.24535  0.10411  Biso   1.000  H
  H152     1.0000 0.81137  0.89638  0.07457  Biso   1.000  H
  H153     1.0000 0.88924  0.85859  0.01627  Biso   1.000  H
  H154     1.0000 0.97372  0.82075  0.02916  Biso   1.000  H
  H155     1.0000 0.94635  0.89831  0.04123  Biso   1.000  H
  H156     1.0000 0.79919  0.72710  0.06553  Biso   1.000  H
  H157     1.0000 0.88726  0.71075  0.04830  Biso   1.000  H
  H158     1.0000 0.80951  0.74779  0.03060  Biso   1.000  H
  H159     1.0000 0.06615  0.98853  0.31319  Biso   1.000  H
  C124     1.0000 0.94225  0.01222  0.29901  Biso   1.000  C
  H160     1.0000 0.04160  0.07092  0.31820  Biso   1.000  H
  C125     1.0000 0.31919  0.14136  0.98847  Biso   1.000  C
  C126     1.0000 0.34925  0.19700  0.03876  Biso   1.000  C
  C127     1.0000 0.22452  0.11391  0.03273  Biso   1.000  C
  C128     1.0000 0.53673  0.08073  0.01365  Biso   1.000  C
  C129     1.0000 0.87470  0.16945  0.05719  Biso   1.000  C
  C130     1.0000 0.83156  0.36612  0.13198  Biso   1.000  C
  C131     1.0000 0.92783  0.35444  0.08725  Biso   1.000  C
  C132     1.0000 0.93776  0.26679  0.13028  Biso   1.000  C
  H161     1.0000 0.91713  0.99566  0.31807  Biso   1.000  H
  H162     1.0000 0.93725  0.97432  0.28378  Biso   1.000  H
  H163     1.0000 0.91181  0.05505  0.29205  Biso   1.000  H
  H164     1.0000 0.37816  0.15143  0.98219  Biso   1.000  H
  H165     1.0000 0.28240  0.18204  0.98318  Biso   1.000  H
  H166     1.0000 0.29855  0.09815  0.97814  Biso   1.000  H
  H167     1.0000 0.34624  0.19014  0.06071  Biso   1.000  H
  H168     1.0000 0.31368  0.23801  0.03298  Biso   1.000  H
  H169     1.0000 0.40879  0.20600  0.03284  Biso   1.000  H
  H170     1.0000 0.20305  0.07167  0.02195  Biso   1.000  H
  H171     1.0000 0.18825  0.15535  0.02805  Biso   1.000  H
  H172     1.0000 0.22337  0.10485  0.05454  Biso   1.000  H
  C133     1.0000 0.62197  0.08228  0.99769  Biso   1.000  C
  C134     1.0000 0.62588  0.09772  0.00332  Biso   1.000  C
  C135     1.0000 0.90931  0.10941  0.03759  Biso   1.000  C
  C136     1.0000 0.92360  0.12710  0.03440  Biso   1.000  C
  H173     1.0000 0.79278  0.39598  0.11995  Biso   1.000  H
  H174     1.0000 0.87386  0.39662  0.14210  Biso   1.000  H
  H175     1.0000 0.79842  0.33975  0.14719  Biso   1.000  H
  H176     1.0000 0.95565  0.32024  0.07357  Biso   1.000  H
  H177     1.0000 0.97154  0.38424  0.09699  Biso   1.000  H
  H178     1.0000 0.88867  0.38499  0.07570  Biso   1.000  H
  H179     1.0000 0.90456  0.24031  0.14540  Biso   1.000  H
  H180     1.0000 0.97987  0.29735  0.14048  Biso   1.000  H
  H181     1.0000 0.96750  0.23286  0.11702  Biso   1.000  H
  C137     1.0000 0.62646  0.08898  0.96949  Biso   1.000  C
  C138     1.0000 0.62018  0.07371  0.96458  Biso   1.000  C
  O12      1.0000 0.68748  0.05130  0.01729  Biso   1.000  O
  C139     1.0000 0.65299  0.15390  0.00581  Biso   1.000  C
  O13      1.0000 0.67587  0.02460  0.00689  Biso   1.000  O
  C140     1.0000 0.65267  0.17261  0.01221  Biso   1.000  C
  O14      1.0000 0.85489  0.04626  0.03919  Biso   1.000  O
  C141     1.0000 0.91610  0.13278  0.00594  Biso   1.000  C
  C142     1.0000 0.99455  0.08261  0.05178  Biso   1.000  C
  O15      1.0000 0.86085  0.10088  0.01293  Biso   1.000  O
  C143     1.0000 0.94904  0.06052  0.05011  Biso   1.000  C
  C144     1.0000 0.98750  0.16698  0.01659  Biso   1.000  C
  H182     1.0000 0.58396  0.12125  0.96049  Biso   1.000  H
  H183     1.0000 0.68350  0.10072  0.96164  Biso   1.000  H
  H184     1.0000 0.61236  0.03929  0.96431  Biso   1.000  H
  H185     1.0000 0.58422  0.11123  0.95565  Biso   1.000  H
  H186     1.0000 0.67857  0.07757  0.95658  Biso   1.000  H
  H187     1.0000 0.59653  0.02653  0.95950  Biso   1.000  H
  H188     1.0000 0.66530  0.01083  0.02021  Biso   1.000  H
  H189     1.0000 0.61274  0.19019  0.99864  Biso   1.000  H
  H190     1.0000 0.70940  0.16199  0.99643  Biso   1.000  H
  H191     1.0000 0.61287  0.20734  0.00332  Biso   1.000  H
  H192     1.0000 0.71074  0.18194  0.00479  Biso   1.000  H
  H193     1.0000 0.65883  0.15738  0.02785  Biso   1.000  H
  H194     1.0000 0.66229  0.98730  0.99747  Biso   1.000  H
  H195     1.0000 0.65165  0.17706  0.03427  Biso   1.000  H
  H196     1.0000 0.81310  0.05119  0.02739  Biso   1.000  H
  H197     1.0000 0.81682  0.08727  0.02222  Biso   1.000  H
  H198     1.0000 0.89880  0.03902  0.05976  Biso   1.000  H
  H199     1.0000 0.94116  0.09418  0.99378  Biso   1.000  H
  H200     1.0000 0.85886  0.14436  0.99817  Biso   1.000  H
  H201     1.0000 0.95270  0.17534  0.00477  Biso   1.000  H
  H202     1.0000 0.98404  0.06674  0.07258  Biso   1.000  H
  H203     1.0000 0.99224  0.07172  0.06548  Biso   1.000  H
  H204     1.0000 0.03653  0.12163  0.05183  Biso   1.000  H
  H205     1.0000 0.01686  0.04235  0.03989  Biso   1.000  H
  H206     1.0000 0.97321  0.02670  0.03542  Biso   1.000  H
  H207     1.0000 0.95924  0.20675  0.00606  Biso   1.000  H
  H208     1.0000 0.03166  0.18606  0.03013  Biso   1.000  H
  H209     1.0000 0.01397  0.13492  0.00176  Biso   1.000  H
