data_image0
_cell_length_a       16.47
_cell_length_b       11.966
_cell_length_c       34.019
_cell_angle_alpha    90
_cell_angle_beta     91.01
_cell_angle_gamma    90

_symmetry_space_group_name_H-M    "P 1"
_symmetry_int_tables_number       1

loop_
  _symmetry_equiv_pos_as_xyz
  'x, y, z'

loop_
  _atom_site_label
  _atom_site_occupancy
  _atom_site_fract_x
  _atom_site_fract_y
  _atom_site_fract_z
  _atom_site_thermal_displace_type
  _atom_site_B_iso_or_equiv
  _atom_site_type_symbol
  C1       1.0000 0.99495  0.15293  0.29321  Biso   1.000  C
  C2       1.0000 0.02398  0.12978  0.25510  Biso   1.000  C
  C3       1.0000 0.02432  0.08858  0.32781  Biso   1.000  C
  C4       1.0000 0.93741  0.23784  0.29714  Biso   1.000  C
  C5       1.0000 0.99820  0.19221  0.22244  Biso   1.000  C
  H1       1.0000 0.06180  0.07070  0.25169  Biso   1.000  H
  C6       1.0000 0.10101  0.04078  0.32951  Biso   1.000  C
  C7       1.0000 0.97475  0.07622  0.36047  Biso   1.000  C
  C8       1.0000 0.90943  0.29818  0.26395  Biso   1.000  C
  H2       1.0000 0.91702  0.25497  0.32240  Biso   1.000  H
  C9       1.0000 0.03200  0.16814  0.18187  Biso   1.000  C
  C10      1.0000 0.94150  0.27403  0.22758  Biso   1.000  C
  H3       1.0000 0.13549  0.04772  0.30761  Biso   1.000  H
  C11      1.0000 0.12850  0.98278  0.36256  Biso   1.000  C
  C12      1.0000 0.00100  0.02031  0.39425  Biso   1.000  C
  H4       1.0000 0.92153  0.10680  0.35959  Biso   1.000  H
  C13      1.0000 0.85000  0.38484  0.26921  Biso   1.000  C
  C14      1.0000 0.09211  0.25539  0.16861  Biso   1.000  C
  H5       1.0000 0.05904  0.09418  0.18231  Biso   1.000  H
  H6       1.0000 0.98643  0.16438  0.16261  Biso   1.000  H
  H7       1.0000 0.92345  0.31590  0.20539  Biso   1.000  H
  C15      1.0000 0.07789  0.97284  0.39484  Biso   1.000  C
  C16      1.0000 0.21232  0.93248  0.36497  Biso   1.000  C
  C17      1.0000 0.94800  0.01320  0.42959  Biso   1.000  C
  C18      1.0000 0.80154  0.45847  0.27412  Biso   1.000  C
  H8       1.0000 0.14012  0.25372  0.18651  Biso   1.000  H
  H9       1.0000 0.06682  0.33010  0.17090  Biso   1.000  H
  C19      1.0000 0.11958  0.23968  0.12751  Biso   1.000  C
  H10      1.0000 0.09632  0.93298  0.41751  Biso   1.000  H
  C20      1.0000 0.25404  0.93114  0.40034  Biso   1.000  C
  C21      1.0000 0.24812  0.88400  0.33287  Biso   1.000  C
  C22      1.0000 0.94883  0.92027  0.45408  Biso   1.000  C
  C23      1.0000 0.89750  0.10371  0.43838  Biso   1.000  C
  C24      1.0000 0.74502  0.54789  0.28089  Biso   1.000  C
  H11      1.0000 0.07230  0.23792  0.10960  Biso   1.000  H
  H12      1.0000 0.15520  0.30169  0.12030  Biso   1.000  H
  H13      1.0000 0.14938  0.16906  0.12551  Biso   1.000  H
  H14      1.0000 0.23014  0.96432  0.42271  Biso   1.000  H
  C25      1.0000 0.33129  0.88175  0.40428  Biso   1.000  C
  C26      1.0000 0.32254  0.83119  0.33551  Biso   1.000  C
  H15      1.0000 0.22063  0.88693  0.30811  Biso   1.000  H
  H16      1.0000 0.98403  0.85969  0.44850  Biso   1.000  H
  C27      1.0000 0.89914  0.91417  0.48663  Biso   1.000  C
  C28      1.0000 0.84755  0.09870  0.47055  Biso   1.000  C
  H17      1.0000 0.89764  0.16839  0.42221  Biso   1.000  H
  C29      1.0000 0.70943  0.60714  0.25055  Biso   1.000  C
  C30      1.0000 0.72482  0.57513  0.31993  Biso   1.000  C
  C31      1.0000 0.36441  0.83169  0.37153  Biso   1.000  C
  C32      1.0000 0.37020  0.88818  0.44217  Biso   1.000  C
  C33      1.0000 0.35580  0.77018  0.30029  Biso   1.000  C
  C34      1.0000 0.89771  0.81264  0.51244  Biso   1.000  C
  C35      1.0000 0.84714  0.00401  0.49433  Biso   1.000  C
  C36      1.0000 0.79540  0.19388  0.47910  Biso   1.000  C
  C37      1.0000 0.65442  0.69288  0.25725  Biso   1.000  C
  H18      1.0000 0.72280  0.58884  0.22429  Biso   1.000  H
  C38      1.0000 0.67131  0.66087  0.32757  Biso   1.000  C
  H19      1.0000 0.74830  0.53393  0.34110  Biso   1.000  H
  H20      1.0000 0.41634  0.79734  0.37361  Biso   1.000  H
  C39      1.0000 0.39293  0.89813  0.47622  Biso   1.000  C
  H21      1.0000 0.35709  0.82124  0.27739  Biso   1.000  H
  H22      1.0000 0.41200  0.74503  0.30611  Biso   1.000  H
  C40      1.0000 0.29811  0.66179  0.28991  Biso   1.000  C
  H23      1.0000 0.89423  0.83712  0.54019  Biso   1.000  H
  H24      1.0000 0.94970  0.77202  0.50959  Biso   1.000  H
  C41      1.0000 0.82933  0.73324  0.50377  Biso   1.000  C
  H25      1.0000 0.81144  0.00033  0.51591  Biso   1.000  H
  C42      1.0000 0.75343  0.27378  0.48539  Biso   1.000  C
  C43      1.0000 0.63665  0.71829  0.29609  Biso   1.000  C
  C44      1.0000 0.60602  0.74260  0.22359  Biso   1.000  C
  C45      1.0000 0.62690  0.77603  0.22520  Biso   1.000  C
  C46      1.0000 0.65072  0.69062  0.36903  Biso   1.000  C
  C47      1.0000 0.41349  0.92278  0.51573  Biso   1.000  C
  H26      1.0000 0.24158  0.68720  0.28500  Biso   1.000  H
  H27      1.0000 0.29815  0.61023  0.31261  Biso   1.000  H
  C48      1.0000 0.32843  0.60070  0.25399  Biso   1.000  C
  H28      1.0000 0.77731  0.77403  0.50571  Biso   1.000  H
  H29      1.0000 0.83392  0.70633  0.47640  Biso   1.000  H
  C49      1.0000 0.82761  0.63112  0.53161  Biso   1.000  C
  C50      1.0000 0.70272  0.36704  0.49165  Biso   1.000  C
  H30      1.0000 0.59943  0.77703  0.30120  Biso   1.000  H
  H31      1.0000 0.63621  0.72932  0.19921  Biso   1.000  H
  H32      1.0000 0.60361  0.82450  0.22761  Biso   1.000  H
  C51      1.0000 0.52370  0.70257  0.21741  Biso   1.000  C
  H33      1.0000 0.65490  0.75940  0.20039  Biso   1.000  H
  C52      1.0000 0.53634  0.76500  0.21921  Biso   1.000  C
  H34      1.0000 0.64079  0.85308  0.23329  Biso   1.000  H
  C53      1.0000 0.62974  0.79801  0.37979  Biso   1.000  C
  C54      1.0000 0.65461  0.60697  0.39760  Biso   1.000  C
  C55      1.0000 0.38890  0.02641  0.53067  Biso   1.000  C
  C56      1.0000 0.45854  0.85141  0.54046  Biso   1.000  C
  H35      1.0000 0.38781  0.59560  0.25540  Biso   1.000  H
  H36      1.0000 0.30509  0.52532  0.25319  Biso   1.000  H
  H37      1.0000 0.31184  0.64157  0.23020  Biso   1.000  H
  H38      1.0000 0.82672  0.65694  0.55889  Biso   1.000  H
  H39      1.0000 0.77883  0.58650  0.52591  Biso   1.000  H
  H40      1.0000 0.87604  0.58524  0.52761  Biso   1.000  H
  C57      1.0000 0.65934  0.37857  0.52599  Biso   1.000  C
  C58      1.0000 0.69595  0.45153  0.46252  Biso   1.000  C
  H41      1.0000 0.49222  0.71528  0.24149  Biso   1.000  H
  H42      1.0000 0.49754  0.74561  0.19580  Biso   1.000  H
  C59      1.0000 0.52223  0.57780  0.20709  Biso   1.000  C
  H43      1.0000 0.50844  0.79818  0.24190  Biso   1.000  H
  H44      1.0000 0.51944  0.80704  0.19530  Biso   1.000  H
  C60      1.0000 0.51104  0.64299  0.21480  Biso   1.000  C
  C61      1.0000 0.61215  0.82459  0.41871  Biso   1.000  C
  H45      1.0000 0.62702  0.85484  0.36030  Biso   1.000  H
  C62      1.0000 0.63875  0.63112  0.43724  Biso   1.000  C
  H46      1.0000 0.66800  0.53284  0.39020  Biso   1.000  H
  H47      1.0000 0.35692  0.07446  0.51450  Biso   1.000  H
  C63      1.0000 0.40994  0.06034  0.56818  Biso   1.000  C
  C64      1.0000 0.47741  0.88141  0.57850  Biso   1.000  C
  H48      1.0000 0.47621  0.78121  0.53070  Biso   1.000  H
  H49      1.0000 0.66535  0.32350  0.54590  Biso   1.000  H
  C65      1.0000 0.60741  0.46833  0.53217  Biso   1.000  C
  C66      1.0000 0.64502  0.54270  0.46772  Biso   1.000  C
  H50      1.0000 0.72662  0.44568  0.43921  Biso   1.000  H
  H51      1.0000 0.55961  0.53744  0.22470  Biso   1.000  H
  H52      1.0000 0.46709  0.54864  0.21021  Biso   1.000  H
  H53      1.0000 0.53891  0.56761  0.17981  Biso   1.000  H
  H54      1.0000 0.48304  0.63279  0.18951  Biso   1.000  H
  H55      1.0000 0.55983  0.59577  0.21580  Biso   1.000  H
  H56      1.0000 0.47521  0.62276  0.23620  Biso   1.000  H
  C67      1.0000 0.61785  0.73934  0.44700  Biso   1.000  C
  C68      1.0000 0.59010  0.93975  0.43183  Biso   1.000  C
  C69      1.0000 0.38795  0.17541  0.58127  Biso   1.000  C
  C70      1.0000 0.45355  0.98613  0.59191  Biso   1.000  C
  C71      1.0000 0.52312  0.80094  0.60502  Biso   1.000  C
  C72      1.0000 0.60075  0.54931  0.50268  Biso   1.000  C
  C73      1.0000 0.55871  0.47560  0.56856  Biso   1.000  C
  H57      1.0000 0.60705  0.75664  0.47369  Biso   1.000  H
  C74      1.0000 0.61114  0.97359  0.46931  Biso   1.000  C
  C75      1.0000 0.54649  0.01387  0.40810  Biso   1.000  C
  C76      1.0000 0.38225  0.26074  0.55298  Biso   1.000  C
  C77      1.0000 0.37030  0.20199  0.62022  Biso   1.000  C
  H58      1.0000 0.46755  0.00760  0.61799  Biso   1.000  H
  H59      1.0000 0.51594  0.72430  0.59450  Biso   1.000  H
  H60      1.0000 0.49864  0.80294  0.63139  Biso   1.000  H
  C78      1.0000 0.61180  0.82400  0.60940  Biso   1.000  C
  H61      1.0000 0.56525  0.61081  0.50630  Biso   1.000  H
  H62      1.0000 0.52005  0.53844  0.56560  Biso   1.000  H
  H63      1.0000 0.52650  0.40623  0.57100  Biso   1.000  H
  C79      1.0000 0.60744  0.49231  0.60634  Biso   1.000  C
  H64      1.0000 0.64312  0.92554  0.48551  Biso   1.000  H
  C80      1.0000 0.58654  0.07722  0.48428  Biso   1.000  C
  H65      1.0000 0.53255  0.99240  0.38199  Biso   1.000  H
  C81      1.0000 0.52263  0.11859  0.42151  Biso   1.000  C
  C82      1.0000 0.36135  0.36888  0.56277  Biso   1.000  C
  H66      1.0000 0.39305  0.24344  0.52629  Biso   1.000  H
  H67      1.0000 0.37302  0.14516  0.63971  Biso   1.000  H
  C83      1.0000 0.34932  0.30938  0.63098  Biso   1.000  C
  H68      1.0000 0.63541  0.77194  0.62910  Biso   1.000  H
  H69      1.0000 0.61934  0.90089  0.61960  Biso   1.000  H
  C84      1.0000 0.65630  0.81247  0.57247  Biso   1.000  C
  H70      1.0000 0.64582  0.42930  0.60981  Biso   1.000  H
  H71      1.0000 0.63961  0.56184  0.60429  Biso   1.000  H
  C85      1.0000 0.55393  0.49983  0.64230  Biso   1.000  C
  C86      1.0000 0.60711  0.10187  0.52379  Biso   1.000  C
  C87      1.0000 0.54150  0.14859  0.45955  Biso   1.000  C
  C88      1.0000 0.47692  0.19906  0.39496  Biso   1.000  C
  C89      1.0000 0.35502  0.45730  0.53229  Biso   1.000  C
  C90      1.0000 0.34543  0.39303  0.60240  Biso   1.000  C
  C91      1.0000 0.32873  0.33913  0.67243  Biso   1.000  C
  H72      1.0000 0.63655  0.86838  0.55351  Biso   1.000  H
  H73      1.0000 0.71441  0.82400  0.57759  Biso   1.000  H
  H74      1.0000 0.64753  0.73751  0.56171  Biso   1.000  H
  H75      1.0000 0.51973  0.43298  0.64371  Biso   1.000  H
  H76      1.0000 0.58825  0.50476  0.66611  Biso   1.000  H
  H77      1.0000 0.51943  0.56644  0.64030  Biso   1.000  H
  C92      1.0000 0.62984  0.11182  0.55783  Biso   1.000  C
  H78      1.0000 0.52383  0.21879  0.46931  Biso   1.000  H
  H79      1.0000 0.48410  0.27570  0.40551  Biso   1.000  H
  H80      1.0000 0.50140  0.19714  0.36859  Biso   1.000  H
  C93      1.0000 0.38823  0.17600  0.39061  Biso   1.000  C
  C94      1.0000 0.39935  0.45069  0.49733  Biso   1.000  C
  C95      1.0000 0.30415  0.54847  0.53749  Biso   1.000  C
  H81      1.0000 0.33204  0.46724  0.60981  Biso   1.000  H
  C96      1.0000 0.36345  0.28171  0.70389  Biso   1.000  C
  C97      1.0000 0.27522  0.42487  0.68005  Biso   1.000  C
  C98      1.0000 0.66874  0.11834  0.59570  Biso   1.000  C
  H82      1.0000 0.36463  0.22806  0.37091  Biso   1.000  H
  H83      1.0000 0.38070  0.09911  0.38041  Biso   1.000  H
  C99      1.0000 0.34374  0.18753  0.42753  Biso   1.000  C
  C100     1.0000 0.39263  0.53167  0.46784  Biso   1.000  C
  H84      1.0000 0.43479  0.38919  0.49371  Biso   1.000  H
  C101     1.0000 0.29732  0.63304  0.50835  Biso   1.000  C
  H85      1.0000 0.27342  0.55432  0.56080  Biso   1.000  H
  H86      1.0000 0.40061  0.22297  0.69881  Biso   1.000  H
  C102     1.0000 0.34562  0.30712  0.74276  Biso   1.000  C
  C103     1.0000 0.25502  0.45211  0.71912  Biso   1.000  C
  H87      1.0000 0.25174  0.46607  0.65891  Biso   1.000  H
  C104     1.0000 0.74606  0.06886  0.59964  Biso   1.000  C
  C105     1.0000 0.63563  0.16831  0.62848  Biso   1.000  C
  H88      1.0000 0.36349  0.13162  0.44650  Biso   1.000  H
  H89      1.0000 0.28563  0.17600  0.42239  Biso   1.000  H
  H90      1.0000 0.35251  0.26249  0.43829  Biso   1.000  H
  C106     1.0000 0.34069  0.62143  0.47401  Biso   1.000  C
  C107     1.0000 0.44133  0.52440  0.43144  Biso   1.000  C
  C108     1.0000 0.24661  0.72622  0.51462  Biso   1.000  C
  C109     1.0000 0.29061  0.39286  0.74946  Biso   1.000  C
  C110     1.0000 0.39402  0.25740  0.77639  Biso   1.000  C
  C111     1.0000 0.37314  0.22397  0.77481  Biso   1.000  C
  C112     1.0000 0.19850  0.54153  0.72588  Biso   1.000  C
  C113     1.0000 0.78772  0.06752  0.63504  Biso   1.000  C
  H91      1.0000 0.76996  0.03568  0.57730  Biso   1.000  H
  H92      1.0000 0.58370  0.20274  0.62639  Biso   1.000  H
  C114     1.0000 0.67750  0.16881  0.66447  Biso   1.000  C
  H93      1.0000 0.33475  0.67650  0.45411  Biso   1.000  H
  H94      1.0000 0.47999  0.46164  0.43441  Biso   1.000  H
  H95      1.0000 0.47354  0.59377  0.42900  Biso   1.000  H
  C115     1.0000 0.39260  0.50769  0.39366  Biso   1.000  C
  C116     1.0000 0.20464  0.80612  0.52091  Biso   1.000  C
  H96      1.0000 0.27724  0.41116  0.77569  Biso   1.000  H
  H97      1.0000 0.36382  0.27068  0.80079  Biso   1.000  H
  H98      1.0000 0.39643  0.17550  0.77239  Biso   1.000  H
  C117     1.0000 0.47634  0.29743  0.78260  Biso   1.000  C
  H99      1.0000 0.34514  0.24060  0.79959  Biso   1.000  H
  C118     1.0000 0.46370  0.23500  0.78080  Biso   1.000  C
  H100     1.0000 0.35924  0.14692  0.76669  Biso   1.000  H
  C119     1.0000 0.15004  0.61524  0.73079  Biso   1.000  C
  C120     1.0000 0.87154  0.01722  0.63742  Biso   1.000  C
  C121     1.0000 0.75192  0.11600  0.66714  Biso   1.000  C
  C122     1.0000 0.64424  0.22982  0.69969  Biso   1.000  C
  H101     1.0000 0.35422  0.57070  0.39020  Biso   1.000  H
  H102     1.0000 0.36043  0.43824  0.39569  Biso   1.000  H
  C123     1.0000 0.44611  0.50017  0.35768  Biso   1.000  C
  C124     1.0000 0.15255  0.90130  0.52946  Biso   1.000  C
  H103     1.0000 0.50782  0.28472  0.75849  Biso   1.000  H
  H104     1.0000 0.50256  0.25439  0.80421  Biso   1.000  H
  C125     1.0000 0.47781  0.42220  0.79289  Biso   1.000  C
  H105     1.0000 0.49166  0.20182  0.75811  Biso   1.000  H
  H106     1.0000 0.48066  0.19296  0.80470  Biso   1.000  H
  C126     1.0000 0.48906  0.35701  0.78521  Biso   1.000  C
  C127     1.0000 0.09061  0.70182  0.73606  Biso   1.000  C
  C128     1.0000 0.89903  0.95922  0.67049  Biso   1.000  C
  C129     1.0000 0.92215  0.02716  0.60517  Biso   1.000  C
  H107     1.0000 0.77941  0.11307  0.69190  Biso   1.000  H
  H108     1.0000 0.64294  0.17884  0.72259  Biso   1.000  H
  H109     1.0000 0.58804  0.25497  0.69390  Biso   1.000  H
  C130     1.0000 0.70193  0.33821  0.71010  Biso   1.000  C
  H110     1.0000 0.48031  0.56702  0.35630  Biso   1.000  H
  H111     1.0000 0.41179  0.49524  0.33389  Biso   1.000  H
  H112     1.0000 0.48061  0.43365  0.35971  Biso   1.000  H
  C131     1.0000 0.15290  0.99599  0.50568  Biso   1.000  C
  C132     1.0000 0.10254  0.89629  0.56160  Biso   1.000  C
  H113     1.0000 0.44043  0.46264  0.77530  Biso   1.000  H
  H114     1.0000 0.53294  0.45136  0.78980  Biso   1.000  H
  H115     1.0000 0.46113  0.43239  0.82020  Biso   1.000  H
  H116     1.0000 0.51706  0.36721  0.81050  Biso   1.000  H
  H117     1.0000 0.44021  0.40423  0.78421  Biso   1.000  H
  H118     1.0000 0.52483  0.37724  0.76381  Biso   1.000  H
  C133     1.0000 0.05854  0.72597  0.77242  Biso   1.000  C
  C134     1.0000 0.06263  0.76224  0.70286  Biso   1.000  C
  C135     1.0000 0.97572  0.91142  0.67217  Biso   1.000  C
  H119     1.0000 0.86455  0.95228  0.69240  Biso   1.000  H
  C136     1.0000 0.99904  0.97969  0.60573  Biso   1.000  C
  H120     1.0000 0.90372  0.06702  0.58250  Biso   1.000  H
  H121     1.0000 0.75845  0.31280  0.71501  Biso   1.000  H
  H122     1.0000 0.70196  0.38977  0.68740  Biso   1.000  H
  C137     1.0000 0.67161  0.39930  0.74599  Biso   1.000  C
  H123     1.0000 0.18860  0.99975  0.48410  Biso   1.000  H
  C138     1.0000 0.10090  0.08583  0.51338  Biso   1.000  C
  C139     1.0000 0.05204  0.98680  0.57042  Biso   1.000  C
  H124     1.0000 0.10240  0.83161  0.57780  Biso   1.000  H
  H125     1.0000 0.07665  0.68410  0.79459  Biso   1.000  H
  C140     1.0000 0.00184  0.80779  0.77754  Biso   1.000  C
  C141     1.0000 0.00515  0.84707  0.70680  Biso   1.000  C
  H126     1.0000 0.08302  0.74503  0.67761  Biso   1.000  H
  C142     1.0000 0.02535  0.92378  0.63954  Biso   1.000  C
  H127     1.0000 0.61223  0.40440  0.74461  Biso   1.000  H
  H128     1.0000 0.69495  0.47468  0.74679  Biso   1.000  H
  H129     1.0000 0.68826  0.35843  0.76981  Biso   1.000  H
  C143     1.0000 0.05121  0.07973  0.54593  Biso   1.000  C
  C144     1.0000 0.10233  0.18736  0.48757  Biso   1.000  C
  C145     1.0000 0.97606  0.87022  0.74491  Biso   1.000  C
  C146     1.0000 0.96804  0.83194  0.81811  Biso   1.000  C
  H130     1.0000 0.07851  0.89320  0.64039  Biso   1.000  H
  H131     1.0000 0.01601  0.14031  0.55151  Biso   1.000  H
  H132     1.0000 0.10581  0.16288  0.45981  Biso   1.000  H
  H133     1.0000 0.05034  0.22798  0.49039  Biso   1.000  H
  C147     1.0000 0.17071  0.26684  0.49624  Biso   1.000  C
  H134     1.0000 0.93823  0.92930  0.74829  Biso   1.000  H
  H135     1.0000 0.01361  0.83562  0.83740  Biso   1.000  H
  H136     1.0000 0.94106  0.90582  0.81770  Biso   1.000  H
  C148     1.0000 0.90793  0.74461  0.83140  Biso   1.000  C
  H137     1.0000 0.22273  0.22597  0.49430  Biso   1.000  H
  H138     1.0000 0.16612  0.29367  0.52361  Biso   1.000  H
  C149     1.0000 0.17243  0.36888  0.46840  Biso   1.000  C
  H139     1.0000 0.85992  0.74628  0.81350  Biso   1.000  H
  H140     1.0000 0.93322  0.66990  0.82911  Biso   1.000  H
  C150     1.0000 0.88046  0.76032  0.87250  Biso   1.000  C
  H141     1.0000 0.17331  0.34314  0.44109  Biso   1.000  H
  H142     1.0000 0.22121  0.41350  0.47410  Biso   1.000  H
  H143     1.0000 0.12400  0.41484  0.47240  Biso   1.000  H
  H144     1.0000 0.92774  0.76208  0.89041  Biso   1.000  H
  H145     1.0000 0.84484  0.69831  0.87970  Biso   1.000  H
  H146     1.0000 0.85066  0.83094  0.87450  Biso   1.000  H
  C151     1.0000 0.29062  0.10714  0.24946  Biso   1.000  C
  C152     1.0000 0.34563  0.19288  0.24276  Biso   1.000  C
  H147     1.0000 0.27719  0.08884  0.27571  Biso   1.000  H
  C153     1.0000 0.25503  0.04789  0.21912  Biso   1.000  C
  C154     1.0000 0.36340  0.21829  0.20389  Biso   1.000  C
  C155     1.0000 0.39403  0.24260  0.27639  Biso   1.000  C
  C156     1.0000 0.37309  0.27603  0.27480  Biso   1.000  C
  C157     1.0000 0.27523  0.07513  0.18007  Biso   1.000  C
  C158     1.0000 0.19851  0.95855  0.22588  Biso   1.000  C
  C159     1.0000 0.32868  0.16087  0.17243  Biso   1.000  C
  H148     1.0000 0.40062  0.27703  0.19880  Biso   1.000  H
  H149     1.0000 0.36384  0.22932  0.30079  Biso   1.000  H
  H150     1.0000 0.39644  0.32450  0.27239  Biso   1.000  H
  C160     1.0000 0.47629  0.20257  0.28259  Biso   1.000  C
  H151     1.0000 0.34509  0.25940  0.29961  Biso   1.000  H
  C161     1.0000 0.46371  0.26500  0.28080  Biso   1.000  C
  H152     1.0000 0.35919  0.35308  0.26669  Biso   1.000  H
  H153     1.0000 0.25169  0.03393  0.15891  Biso   1.000  H
  C162     1.0000 0.14999  0.88484  0.23079  Biso   1.000  C
  C163     1.0000 0.34933  0.19062  0.13098  Biso   1.000  C
  H154     1.0000 0.50783  0.21528  0.25851  Biso   1.000  H
  H155     1.0000 0.50251  0.24561  0.30420  Biso   1.000  H
  C164     1.0000 0.47782  0.07780  0.29291  Biso   1.000  C
  H156     1.0000 0.49161  0.29818  0.25810  Biso   1.000  H
  H157     1.0000 0.48061  0.30704  0.30470  Biso   1.000  H
  C165     1.0000 0.48901  0.14299  0.28521  Biso   1.000  C
  C166     1.0000 0.09062  0.79818  0.23605  Biso   1.000  C
  C167     1.0000 0.37031  0.29801  0.12022  Biso   1.000  C
  C168     1.0000 0.34538  0.10697  0.10240  Biso   1.000  C
  H158     1.0000 0.44044  0.03744  0.27530  Biso   1.000  H
  H159     1.0000 0.53289  0.04864  0.28979  Biso   1.000  H
  H160     1.0000 0.46114  0.06761  0.32019  Biso   1.000  H
  H161     1.0000 0.51701  0.13279  0.31049  Biso   1.000  H
  H162     1.0000 0.44022  0.09577  0.28421  Biso   1.000  H
  H163     1.0000 0.52484  0.12276  0.26381  Biso   1.000  H
  C169     1.0000 0.05849  0.77403  0.27242  Biso   1.000  C
  C170     1.0000 0.06264  0.73784  0.20286  Biso   1.000  C
  C171     1.0000 0.38790  0.32459  0.08129  Biso   1.000  C
  H164     1.0000 0.37303  0.35484  0.13971  Biso   1.000  H
  C172     1.0000 0.36130  0.13112  0.06277  Biso   1.000  C
  H165     1.0000 0.33199  0.03276  0.10981  Biso   1.000  H
  H166     1.0000 0.07660  0.81590  0.29459  Biso   1.000  H
  C173     1.0000 0.00179  0.69221  0.27756  Biso   1.000  C
  C174     1.0000 0.00510  0.65293  0.20680  Biso   1.000  C
  H167     1.0000 0.08303  0.75497  0.17760  Biso   1.000  H
  C175     1.0000 0.38220  0.23926  0.05298  Biso   1.000  C
  C176     1.0000 0.40989  0.43966  0.06818  Biso   1.000  C
  C177     1.0000 0.35503  0.04270  0.03228  Biso   1.000  C
  C178     1.0000 0.97601  0.62978  0.24490  Biso   1.000  C
  C179     1.0000 0.96805  0.66814  0.31811  Biso   1.000  C
  C180     1.0000 0.97573  0.58858  0.17217  Biso   1.000  C
  H168     1.0000 0.39300  0.25664  0.02631  Biso   1.000  H
  C181     1.0000 0.38891  0.47359  0.03069  Biso   1.000  C
  C182     1.0000 0.45350  0.51387  0.09190  Biso   1.000  C
  C183     1.0000 0.30410  0.95153  0.03748  Biso   1.000  C
  C184     1.0000 0.39936  0.04931  0.99732  Biso   1.000  C
  H169     1.0000 0.93825  0.57070  0.24831  Biso   1.000  H
  H170     1.0000 0.94101  0.59418  0.31770  Biso   1.000  H
  C185     1.0000 0.90794  0.75539  0.33140  Biso   1.000  C
  H171     1.0000 0.01362  0.66438  0.33739  Biso   1.000  H
  C186     1.0000 0.89904  0.54078  0.17049  Biso   1.000  C
  C187     1.0000 0.02530  0.57622  0.13953  Biso   1.000  C
  C188     1.0000 0.41351  0.57722  0.01573  Biso   1.000  C
  H172     1.0000 0.35693  0.42554  0.01449  Biso   1.000  H
  H173     1.0000 0.46750  0.49240  0.11801  Biso   1.000  H
  C189     1.0000 0.47742  0.61859  0.07850  Biso   1.000  C
  C190     1.0000 0.29733  0.86704  0.00835  Biso   1.000  C
  H174     1.0000 0.27343  0.94568  0.06080  Biso   1.000  H
  C191     1.0000 0.39264  0.96833  0.96784  Biso   1.000  C
  H175     1.0000 0.43486  0.11081  0.99368  Biso   1.000  H
  H176     1.0000 0.85993  0.75372  0.31349  Biso   1.000  H
  H177     1.0000 0.93323  0.83010  0.32910  Biso   1.000  H
  C192     1.0000 0.88041  0.73968  0.37250  Biso   1.000  C
  C193     1.0000 0.87149  0.48278  0.13744  Biso   1.000  C
  H178     1.0000 0.86450  0.54772  0.19239  Biso   1.000  H
  C194     1.0000 0.99899  0.52031  0.10575  Biso   1.000  C
  H179     1.0000 0.07852  0.60680  0.14041  Biso   1.000  H
  C195     1.0000 0.45849  0.64859  0.04045  Biso   1.000  C
  C196     1.0000 0.39294  0.60187  0.97622  Biso   1.000  C
  C197     1.0000 0.52313  0.69915  0.10502  Biso   1.000  C
  C198     1.0000 0.34077  0.87857  0.97401  Biso   1.000  C
  C199     1.0000 0.24662  0.77378  0.01461  Biso   1.000  C
  C200     1.0000 0.44134  0.97560  0.93144  Biso   1.000  C
  H180     1.0000 0.92775  0.73792  0.39040  Biso   1.000  H
  H181     1.0000 0.84485  0.80169  0.37970  Biso   1.000  H
  H182     1.0000 0.85061  0.66915  0.37450  Biso   1.000  H
  C201     1.0000 0.92210  0.47284  0.10516  Biso   1.000  C
  C202     1.0000 0.78773  0.43248  0.13503  Biso   1.000  C
  C203     1.0000 0.05199  0.51320  0.07041  Biso   1.000  C
  H183     1.0000 0.47622  0.71879  0.03069  Biso   1.000  H
  C204     1.0000 0.37027  0.61182  0.94214  Biso   1.000  C
  H184     1.0000 0.51589  0.77570  0.09449  Biso   1.000  H
  H185     1.0000 0.49859  0.69714  0.13139  Biso   1.000  H
  C205     1.0000 0.61182  0.67600  0.10940  Biso   1.000  C
  H186     1.0000 0.33476  0.82350  0.95408  Biso   1.000  H
  C206     1.0000 0.20459  0.69388  0.02090  Biso   1.000  C
  H187     1.0000 0.47355  0.90623  0.92900  Biso   1.000  H
  C207     1.0000 0.39267  0.99231  0.89366  Biso   1.000  C
  H188     1.0000 0.48006  0.03836  0.93438  Biso   1.000  H
  H189     1.0000 0.90373  0.43298  0.08250  Biso   1.000  H
  C208     1.0000 0.74601  0.43114  0.09964  Biso   1.000  C
  C209     1.0000 0.75193  0.38400  0.16714  Biso   1.000  C
  C210     1.0000 0.10249  0.60371  0.06162  Biso   1.000  C
  C211     1.0000 0.05122  0.42027  0.04592  Biso   1.000  C
  C212     1.0000 0.33137  0.61834  0.90427  Biso   1.000  C
  H190     1.0000 0.63542  0.72815  0.12909  Biso   1.000  H
  H191     1.0000 0.61929  0.59911  0.11960  Biso   1.000  H
  C213     1.0000 0.65631  0.68753  0.07247  Biso   1.000  C
  C214     1.0000 0.15250  0.59870  0.02946  Biso   1.000  C
  H192     1.0000 0.35423  0.92930  0.89019  Biso   1.000  H
  C215     1.0000 0.44618  0.99983  0.85768  Biso   1.000  C
  H193     1.0000 0.36044  0.06184  0.89569  Biso   1.000  H
  H194     1.0000 0.76991  0.46432  0.07729  Biso   1.000  H
  C216     1.0000 0.66869  0.38166  0.09570  Biso   1.000  C
  C217     1.0000 0.67751  0.33119  0.16449  Biso   1.000  C
  H195     1.0000 0.77942  0.38693  0.19189  Biso   1.000  H
  H196     1.0000 0.10241  0.66839  0.07779  Biso   1.000  H
  C218     1.0000 0.10091  0.41417  0.01338  Biso   1.000  C
  H197     1.0000 0.01602  0.35969  0.05151  Biso   1.000  H
  C219     1.0000 0.25405  0.56895  0.90033  Biso   1.000  C
  C220     1.0000 0.36448  0.66831  0.87152  Biso   1.000  C
  H198     1.0000 0.63650  0.63162  0.05351  Biso   1.000  H
  H199     1.0000 0.71442  0.67600  0.07759  Biso   1.000  H
  H200     1.0000 0.64748  0.76249  0.06171  Biso   1.000  H
  C221     1.0000 0.15291  0.50401  0.00567  Biso   1.000  C
  H201     1.0000 0.48038  0.93298  0.85629  Biso   1.000  H
  H202     1.0000 0.41186  0.00476  0.83389  Biso   1.000  H
  H203     1.0000 0.48068  0.06644  0.85970  Biso   1.000  H
  C222     1.0000 0.63558  0.33169  0.12848  Biso   1.000  C
  C223     1.0000 0.62979  0.38818  0.05783  Biso   1.000  C
  C224     1.0000 0.64419  0.27018  0.19971  Biso   1.000  C
  C225     1.0000 0.10234  0.31264  0.98756  Biso   1.000  C
  C226     1.0000 0.21233  0.56752  0.86497  Biso   1.000  C
  H204     1.0000 0.23015  0.53568  0.92268  Biso   1.000  H
  H205     1.0000 0.41634  0.70274  0.87358  Biso   1.000  H
  C227     1.0000 0.32255  0.66881  0.83551  Biso   1.000  C
  H206     1.0000 0.18867  0.50033  0.98409  Biso   1.000  H
  H207     1.0000 0.58372  0.29734  0.12639  Biso   1.000  H
  C228     1.0000 0.60712  0.39813  0.02378  Biso   1.000  C
  H208     1.0000 0.64289  0.32124  0.22259  Biso   1.000  H
  H209     1.0000 0.58799  0.24503  0.19389  Biso   1.000  H
  C229     1.0000 0.70194  0.16179  0.21009  Biso   1.000  C
  H210     1.0000 0.10588  0.33712  0.95978  Biso   1.000  H
  H211     1.0000 0.05035  0.27202  0.99039  Biso   1.000  H
  C230     1.0000 0.17078  0.23316  0.99624  Biso   1.000  C
  C231     1.0000 0.12857  0.51722  0.86256  Biso   1.000  C
  C232     1.0000 0.24813  0.61600  0.83286  Biso   1.000  C
  C233     1.0000 0.35587  0.72982  0.80029  Biso   1.000  C
  C234     1.0000 0.58656  0.42278  0.98427  Biso   1.000  C
  H212     1.0000 0.75840  0.18720  0.21500  Biso   1.000  H
  H213     1.0000 0.70190  0.11023  0.18739  Biso   1.000  H
  C235     1.0000 0.67162  0.10070  0.24599  Biso   1.000  C
  H214     1.0000 0.22274  0.27403  0.99430  Biso   1.000  H
  C236     1.0000 0.17244  0.13112  0.96840  Biso   1.000  C
  H215     1.0000 0.16613  0.20633  0.02361  Biso   1.000  H
  C237     1.0000 0.07796  0.52724  0.89484  Biso   1.000  C
  C238     1.0000 0.10108  0.45922  0.82951  Biso   1.000  C
  H216     1.0000 0.22064  0.61307  0.80808  Biso   1.000  H
  H217     1.0000 0.35717  0.67884  0.77738  Biso   1.000  H
  H218     1.0000 0.41207  0.75497  0.80608  Biso   1.000  H
  C239     1.0000 0.29818  0.83821  0.78988  Biso   1.000  C
  C240     1.0000 0.61115  0.52641  0.96931  Biso   1.000  C
  C241     1.0000 0.54158  0.35141  0.95955  Biso   1.000  C
  H219     1.0000 0.61225  0.09560  0.24461  Biso   1.000  H
  H220     1.0000 0.69490  0.02532  0.24681  Biso   1.000  H
  H221     1.0000 0.68821  0.14157  0.26980  Biso   1.000  H
  H222     1.0000 0.17339  0.15686  0.94108  Biso   1.000  H
  H223     1.0000 0.22128  0.08650  0.97410  Biso   1.000  H
  H224     1.0000 0.12407  0.08524  0.97239  Biso   1.000  H
  H225     1.0000 0.09633  0.56702  0.91750  Biso   1.000  H
  C242     1.0000 0.00107  0.47969  0.89425  Biso   1.000  C
  C243     1.0000 0.02433  0.41142  0.82780  Biso   1.000  C
  H226     1.0000 0.13556  0.45228  0.80758  Biso   1.000  H
  H227     1.0000 0.24166  0.81280  0.78500  Biso   1.000  H
  H228     1.0000 0.29816  0.88977  0.81261  Biso   1.000  H
  C244     1.0000 0.32844  0.89930  0.75398  Biso   1.000  C
  H229     1.0000 0.64319  0.57454  0.98551  Biso   1.000  H
  C245     1.0000 0.59017  0.56034  0.93182  Biso   1.000  C
  C246     1.0000 0.52264  0.38141  0.92150  Biso   1.000  C
  H230     1.0000 0.52384  0.28121  0.96931  Biso   1.000  H
  C247     1.0000 0.97476  0.42378  0.86047  Biso   1.000  C
  C248     1.0000 0.94807  0.48680  0.92956  Biso   1.000  C
  C249     1.0000 0.99496  0.34707  0.79320  Biso   1.000  C
  H231     1.0000 0.38788  0.90440  0.75539  Biso   1.000  H
  H232     1.0000 0.30516  0.97468  0.75319  Biso   1.000  H
  H233     1.0000 0.31185  0.85843  0.73020  Biso   1.000  H
  C250     1.0000 0.61216  0.67541  0.91871  Biso   1.000  C
  C251     1.0000 0.54656  0.48613  0.90810  Biso   1.000  C
  C252     1.0000 0.47699  0.30094  0.89495  Biso   1.000  C
  H234     1.0000 0.92154  0.39320  0.85959  Biso   1.000  H
  C253     1.0000 0.94884  0.57973  0.95408  Biso   1.000  C
  C254     1.0000 0.89757  0.39629  0.93838  Biso   1.000  C
  C255     1.0000 0.93748  0.26224  0.79714  Biso   1.000  C
  C256     1.0000 0.02405  0.37022  0.75510  Biso   1.000  C
  C257     1.0000 0.61786  0.76074  0.94699  Biso   1.000  C
  C258     1.0000 0.62975  0.70199  0.87978  Biso   1.000  C
  H235     1.0000 0.53256  0.50760  0.88199  Biso   1.000  H
  H236     1.0000 0.48417  0.22430  0.90548  Biso   1.000  H
  H237     1.0000 0.50147  0.30294  0.86858  Biso   1.000  H
  C259     1.0000 0.38825  0.32400  0.89060  Biso   1.000  C
  H238     1.0000 0.98404  0.64031  0.94849  Biso   1.000  H
  C260     1.0000 0.89915  0.58583  0.98662  Biso   1.000  C
  C261     1.0000 0.84756  0.40130  0.97054  Biso   1.000  C
  H239     1.0000 0.89765  0.33161  0.92218  Biso   1.000  H
  C262     1.0000 0.90944  0.20182  0.76392  Biso   1.000  C
  H240     1.0000 0.91709  0.24503  0.82240  Biso   1.000  H
  C263     1.0000 0.99827  0.30779  0.72244  Biso   1.000  C
  H241     1.0000 0.06188  0.42930  0.75169  Biso   1.000  H
  C264     1.0000 0.63876  0.86888  0.93723  Biso   1.000  C
  H242     1.0000 0.60706  0.74344  0.97369  Biso   1.000  H
  H243     1.0000 0.62703  0.64524  0.86029  Biso   1.000  H
  C265     1.0000 0.65079  0.80938  0.86902  Biso   1.000  C
  H244     1.0000 0.36464  0.27194  0.87091  Biso   1.000  H
  H245     1.0000 0.38077  0.40089  0.88040  Biso   1.000  H
  C266     1.0000 0.34375  0.31247  0.92753  Biso   1.000  C
  C267     1.0000 0.84715  0.49599  0.99433  Biso   1.000  C
  C268     1.0000 0.89772  0.68736  0.01244  Biso   1.000  C
  C269     1.0000 0.79547  0.30612  0.97907  Biso   1.000  C
  C270     1.0000 0.85007  0.11516  0.76921  Biso   1.000  C
  C271     1.0000 0.94157  0.22597  0.72755  Biso   1.000  C
  C272     1.0000 0.03207  0.33194  0.68186  Biso   1.000  C
  C273     1.0000 0.64509  0.95730  0.96772  Biso   1.000  C
  C274     1.0000 0.65468  0.89303  0.89760  Biso   1.000  C
  C275     1.0000 0.67138  0.83913  0.82757  Biso   1.000  C
  H246     1.0000 0.36356  0.36838  0.94649  Biso   1.000  H
  H247     1.0000 0.28564  0.32400  0.92238  Biso   1.000  H
  H248     1.0000 0.35258  0.23751  0.93829  Biso   1.000  H
  H249     1.0000 0.81139  0.49967  0.01591  Biso   1.000  H
  H250     1.0000 0.89424  0.66288  0.04019  Biso   1.000  H
  H251     1.0000 0.94971  0.72798  0.00961  Biso   1.000  H
  C276     1.0000 0.82928  0.76684  0.00376  Biso   1.000  C
  C277     1.0000 0.75344  0.22622  0.98536  Biso   1.000  C
  C278     1.0000 0.80155  0.04153  0.77412  Biso   1.000  C
  H252     1.0000 0.92346  0.18410  0.70538  Biso   1.000  H
  H253     1.0000 0.98644  0.33562  0.66258  Biso   1.000  H
  H254     1.0000 0.05905  0.40582  0.68230  Biso   1.000  H
  C279     1.0000 0.09212  0.24461  0.66860  Biso   1.000  C
  C280     1.0000 0.69596  0.04847  0.96252  Biso   1.000  C
  C281     1.0000 0.60070  0.95069  0.00268  Biso   1.000  C
  H255     1.0000 0.66807  0.96724  0.89019  Biso   1.000  H
  C282     1.0000 0.72483  0.92487  0.81993  Biso   1.000  C
  C283     1.0000 0.63666  0.78171  0.79608  Biso   1.000  C
  H256     1.0000 0.83399  0.79367  0.97639  Biso   1.000  H
  H257     1.0000 0.77732  0.72597  0.00570  Biso   1.000  H
  C284     1.0000 0.82762  0.86888  0.03160  Biso   1.000  C
  C285     1.0000 0.70279  0.13296  0.99165  Biso   1.000  C
  C286     1.0000 0.74509  0.95211  0.78088  Biso   1.000  C
  H258     1.0000 0.14013  0.24628  0.68648  Biso   1.000  H
  H259     1.0000 0.06683  0.16990  0.67090  Biso   1.000  H
  C287     1.0000 0.11965  0.26032  0.62750  Biso   1.000  C
  H260     1.0000 0.72669  0.05432  0.93920  Biso   1.000  H
  C288     1.0000 0.60742  0.03167  0.03216  Biso   1.000  C
  H261     1.0000 0.56520  0.88919  0.00629  Biso   1.000  H
  H262     1.0000 0.74837  0.96607  0.84109  Biso   1.000  H
  C289     1.0000 0.65443  0.80712  0.75724  Biso   1.000  C
  H263     1.0000 0.59944  0.72297  0.80120  Biso   1.000  H
  H264     1.0000 0.82673  0.84314  0.05889  Biso   1.000  H
  H265     1.0000 0.77878  0.91350  0.02590  Biso   1.000  H
  H266     1.0000 0.87599  0.91484  0.02761  Biso   1.000  H
  C290     1.0000 0.65929  0.12143  0.02599  Biso   1.000  C
  C291     1.0000 0.70944  0.89295  0.75054  Biso   1.000  C
  H267     1.0000 0.07237  0.26208  0.60960  Biso   1.000  H
  H268     1.0000 0.15527  0.19831  0.62030  Biso   1.000  H
  H269     1.0000 0.14945  0.33094  0.62550  Biso   1.000  H
  C292     1.0000 0.55872  0.02440  0.06856  Biso   1.000  C
  C293     1.0000 0.60603  0.75740  0.72358  Biso   1.000  C
  C294     1.0000 0.62697  0.72397  0.72520  Biso   1.000  C
  H270     1.0000 0.66530  0.17650  0.04589  Biso   1.000  H
  H271     1.0000 0.72287  0.91125  0.72429  Biso   1.000  H
  H272     1.0000 0.52000  0.96164  0.06559  Biso   1.000  H
  H273     1.0000 0.52651  0.09377  0.07100  Biso   1.000  H
  C295     1.0000 0.60739  0.00769  0.10634  Biso   1.000  C
  H274     1.0000 0.63622  0.77068  0.69918  Biso   1.000  H
  H275     1.0000 0.60368  0.67550  0.72758  Biso   1.000  H
  C296     1.0000 0.52377  0.79743  0.71738  Biso   1.000  C
  H276     1.0000 0.65497  0.74060  0.70039  Biso   1.000  H
  C297     1.0000 0.53635  0.73500  0.71920  Biso   1.000  C
  H277     1.0000 0.64087  0.64692  0.73328  Biso   1.000  H
  H278     1.0000 0.63962  0.93824  0.10431  Biso   1.000  H
  H279     1.0000 0.64583  0.07070  0.10981  Biso   1.000  H
  C298     1.0000 0.55394  0.00017  0.14230  Biso   1.000  C
  H280     1.0000 0.49223  0.78472  0.74149  Biso   1.000  H
  H281     1.0000 0.49755  0.75439  0.69580  Biso   1.000  H
  C299     1.0000 0.52224  0.92220  0.70709  Biso   1.000  C
  H282     1.0000 0.50845  0.70182  0.74190  Biso   1.000  H
  H283     1.0000 0.51945  0.69305  0.69530  Biso   1.000  H
  C300     1.0000 0.51105  0.85701  0.71479  Biso   1.000  C
  H284     1.0000 0.58820  0.99524  0.16611  Biso   1.000  H
  H285     1.0000 0.51944  0.93365  0.14030  Biso   1.000  H
  H286     1.0000 0.51968  0.06702  0.14371  Biso   1.000  H
  H287     1.0000 0.55968  0.96264  0.72470  Biso   1.000  H
  H288     1.0000 0.46717  0.95145  0.71021  Biso   1.000  H
  H289     1.0000 0.53898  0.93239  0.67981  Biso   1.000  H
  H290     1.0000 0.48305  0.86721  0.68948  Biso   1.000  H
  H291     1.0000 0.55984  0.90423  0.71579  Biso   1.000  H
  H292     1.0000 0.47528  0.87724  0.73619  Biso   1.000  H
