data_image0
_cell_length_a       16.027
_cell_length_b       18.404
_cell_length_c       21.748
_cell_angle_alpha    90.24
_cell_angle_beta     103.59
_cell_angle_gamma    109.59

_symmetry_space_group_name_H-M    "P 1"
_symmetry_int_tables_number       1

loop_
  _symmetry_equiv_pos_as_xyz
  'x, y, z'

loop_
  _atom_site_label
  _atom_site_occupancy
  _atom_site_fract_x
  _atom_site_fract_y
  _atom_site_fract_z
  _atom_site_thermal_displace_type
  _atom_site_B_iso_or_equiv
  _atom_site_type_symbol
  C1       1.0000 0.56900  0.02674  0.25408  Biso   1.000  C
  C2       1.0000 0.62780  0.02702  0.31251  Biso   1.000  C
  H1       1.0000 0.59498  0.06202  0.21898  Biso   1.000  H
  C3       1.0000 0.47708  0.98064  0.24140  Biso   1.000  C
  C4       1.0000 0.72673  0.08012  0.33422  Biso   1.000  C
  C5       1.0000 0.59472  0.98138  0.35821  Biso   1.000  C
  C6       1.0000 0.44392  0.93494  0.28710  Biso   1.000  C
  H2       1.0000 0.43210  0.98001  0.19599  Biso   1.000  H
  C7       1.0000 0.74670  0.15785  0.35289  Biso   1.000  C
  C8       1.0000 0.79728  0.05144  0.33669  Biso   1.000  C
  C9       1.0000 0.50273  0.93535  0.34562  Biso   1.000  C
  H3       1.0000 0.64009  0.98206  0.40300  Biso   1.000  H
  O1       1.0000 0.34541  0.89815  0.24800  Biso   1.000  O
  C10      1.0000 0.33238  0.88984  0.29232  Biso   1.000  C
  O2       1.0000 0.67399  0.18155  0.35179  Biso   1.000  O
  C11      1.0000 0.83734  0.20675  0.37421  Biso   1.000  C
  C12      1.0000 0.88787  0.10022  0.35802  Biso   1.000  C
  O3       1.0000 0.77660  0.97574  0.31921  Biso   1.000  O
  H4       1.0000 0.47708  0.90004  0.38101  Biso   1.000  H
  H5       1.0000 0.36207  0.94004  0.32600  Biso   1.000  H
  H6       1.0000 0.34310  0.84107  0.31498  Biso   1.000  H
  C13      1.0000 0.64825  0.22227  0.29802  Biso   1.000  C
  C14      1.0000 0.85654  0.29307  0.39340  Biso   1.000  C
  C15      1.0000 0.90791  0.17795  0.37668  Biso   1.000  C
  C16      1.0000 0.95803  0.06666  0.34970  Biso   1.000  C
  C17      1.0000 0.77999  0.95261  0.25760  Biso   1.000  C
  O4       1.0000 0.69487  0.30437  0.31241  Biso   1.000  O
  H7       1.0000 0.66400  0.20106  0.25798  Biso   1.000  H
  H8       1.0000 0.57604  0.21107  0.28800  Biso   1.000  H
  C18      1.0000 0.86103  0.33318  0.32990  Biso   1.000  C
  H9       1.0000 0.80202  0.30107  0.41098  Biso   1.000  H
  C19      1.0000 0.93519  0.32224  0.45848  Biso   1.000  C
  H10      1.0000 0.97801  0.21604  0.39302  Biso   1.000  H
  C20      1.0000 0.97943  0.07125  0.28838  Biso   1.000  C
  H11      1.0000 0.93601  0.00406  0.34899  Biso   1.000  H
  C21      1.0000 0.04078  0.10245  0.41160  Biso   1.000  C
  O5       1.0000 0.85897  0.95122  0.25180  Biso   1.000  O
  H12      1.0000 0.75814  0.99106  0.22501  Biso   1.000  H
  H13      1.0000 0.73207  0.89402  0.24401  Biso   1.000  H
  C22      1.0000 0.77775  0.33364  0.29280  Biso   1.000  C
  C23      1.0000 0.94091  0.36765  0.31042  Biso   1.000  C
  H14      1.0000 0.99601  0.31605  0.45102  Biso   1.000  H
  H15      1.0000 0.92005  0.29406  0.50000  Biso   1.000  H
  C24      1.0000 0.95123  0.40115  0.45810  Biso   1.000  C
  C25      1.0000 0.04791  0.13632  0.27760  Biso   1.000  C
  C26      1.0000 0.92782  0.01374  0.23922  Biso   1.000  C
  H16      1.0000 0.07500  0.16308  0.40699  Biso   1.000  H
  H17      1.0000 0.01503  0.09704  0.45402  Biso   1.000  H
  C27      1.0000 0.10550  0.05356  0.41592  Biso   1.000  C
  C28      1.0000 0.77430  0.36862  0.23622  Biso   1.000  C
  C29      1.0000 0.93760  0.40262  0.25370  Biso   1.000  C
  H18      1.0000 0.00502  0.36706  0.33902  Biso   1.000  H
  H19      1.0000 0.96105  0.42604  0.41502  Biso   1.000  H
  H20      1.0000 0.89006  0.40507  0.46698  Biso   1.000  H
  C30      1.0000 0.01623  0.43290  0.51111  Biso   1.000  C
  C31      1.0000 0.06494  0.14395  0.21770  Biso   1.000  C
  H21      1.0000 0.08803  0.18105  0.31598  Biso   1.000  H
  C32      1.0000 0.94481  0.02125  0.17932  Biso   1.000  C
  H22      1.0000 0.07113  0.99407  0.42300  Biso   1.000  H
  H23      1.0000 0.12502  0.05603  0.37198  Biso   1.000  H
  C33      1.0000 0.18094  0.08775  0.47012  Biso   1.000  C
  C34      1.0000 0.68810  0.36882  0.19361  Biso   1.000  C
  C35      1.0000 0.85421  0.40314  0.21660  Biso   1.000  C
  C36      1.0000 0.02635  0.43812  0.23931  Biso   1.000  C
  C37      1.0000 0.02994  0.41438  0.57372  Biso   1.000  C
  C38      1.0000 0.08738  0.48629  0.49111  Biso   1.000  C
  C39      1.0000 0.06702  0.41290  0.55562  Biso   1.000  C
  C40      1.0000 0.13303  0.21321  0.19618  Biso   1.000  C
  C41      1.0000 0.01331  0.08644  0.16849  Biso   1.000  C
  C42      1.0000 0.88607  0.95923  0.12849  Biso   1.000  C
  C43      1.0000 0.18312  0.10699  0.53258  Biso   1.000  C
  C44      1.0000 0.25830  0.12024  0.44732  Biso   1.000  C
  C45      1.0000 0.26264  0.09649  0.53149  Biso   1.000  C
  C46      1.0000 0.66313  0.33531  0.13148  Biso   1.000  C
  C47      1.0000 0.63564  0.40684  0.21309  Biso   1.000  C
  O6       1.0000 0.85511  0.44103  0.16388  Biso   1.000  O
  C48      1.0000 0.03387  0.38175  0.19062  Biso   1.000  C
  H24      1.0000 0.02504  0.49106  0.21998  Biso   1.000  H
  C49      1.0000 0.11646  0.48123  0.29080  Biso   1.000  C
  H25      1.0000 0.97703  0.37010  0.59101  Biso   1.000  H
  C50      1.0000 0.99853  0.34298  0.55752  Biso   1.000  C
  C51      1.0000 0.11462  0.44938  0.61642  Biso   1.000  C
  C52      1.0000 0.12607  0.45441  0.61181  Biso   1.000  C
  C53      1.0000 0.17206  0.52129  0.53382  Biso   1.000  C
  H26      1.0000 0.06807  0.48309  0.43501  Biso   1.000  H
  C54      1.0000 0.08340  0.27374  0.17818  Biso   1.000  C
  H27      1.0000 0.15798  0.19601  0.15899  Biso   1.000  H
  C55      1.0000 0.21564  0.25134  0.25209  Biso   1.000  C
  O7       1.0000 0.02499  0.09280  0.10859  Biso   1.000  O
  C56      1.0000 0.92523  0.91143  0.10512  Biso   1.000  C
  C57      1.0000 0.79390  0.94822  0.10398  Biso   1.000  C
  C58      1.0000 0.26273  0.15860  0.57220  Biso   1.000  C
  H28      1.0000 0.12300  0.08210  0.55002  Biso   1.000  H
  C59      1.0000 0.33790  0.17184  0.48689  Biso   1.000  C
  H29      1.0000 0.25701  0.10504  0.39901  Biso   1.000  H
  C60      1.0000 0.34009  0.19109  0.54940  Biso   1.000  C
  C61      1.0000 0.58563  0.33985  0.08902  Biso   1.000  C
  H30      1.0000 0.70401  0.30603  0.11600  Biso   1.000  H
  C62      1.0000 0.55811  0.41132  0.17058  Biso   1.000  C
  H31      1.0000 0.65503  0.43307  0.26102  Biso   1.000  H
  C63      1.0000 0.86557  0.41004  0.11101  Biso   1.000  C
  C64      1.0000 0.99416  0.37365  0.12559  Biso   1.000  C
  C65      1.0000 0.07839  0.33181  0.21679  Biso   1.000  C
  H32      1.0000 0.17107  0.50404  0.26800  Biso   1.000  H
  H33      1.0000 0.13008  0.43907  0.32101  Biso   1.000  H
  C66      1.0000 0.11183  0.53674  0.32020  Biso   1.000  C
  C67      1.0000 0.98895  0.31456  0.61561  Biso   1.000  C
  C68      1.0000 0.18564  0.50277  0.59642  Biso   1.000  C
  H34      1.0000 0.13402  0.42709  0.65898  Biso   1.000  H
  C69      1.0000 0.11655  0.42599  0.66991  Biso   1.000  C
  H35      1.0000 0.22506  0.54008  0.50399  Biso   1.000  H
  C70      1.0000 0.04371  0.26564  0.11320  Biso   1.000  C
  H36      1.0000 0.19701  0.27103  0.29199  Biso   1.000  H
  H37      1.0000 0.24603  0.20806  0.26601  Biso   1.000  H
  C71      1.0000 0.29501  0.32054  0.23328  Biso   1.000  C
  C72      1.0000 0.98389  0.13209  0.06588  Biso   1.000  C
  C73      1.0000 0.87211  0.85263  0.05729  Biso   1.000  C
  H38      1.0000 0.99707  0.92003  0.12398  Biso   1.000  H
  C74      1.0000 0.74078  0.88929  0.05610  Biso   1.000  C
  H39      1.0000 0.76409  0.98504  0.12198  Biso   1.000  H
  H40      1.0000 0.26402  0.17310  0.62098  Biso   1.000  H
  H41      1.0000 0.39800  0.19709  0.46898  Biso   1.000  H
  H42      1.0000 0.40200  0.23109  0.57999  Biso   1.000  H
  C75      1.0000 0.53313  0.37793  0.10849  Biso   1.000  C
  H43      1.0000 0.56605  0.31401  0.04099  Biso   1.000  H
  H44      1.0000 0.51707  0.44105  0.18601  Biso   1.000  H
  H45      1.0000 0.83103  0.43204  0.07101  Biso   1.000  H
  H46      1.0000 0.83405  0.34801  0.10702  Biso   1.000  H
  O8       1.0000 0.95346  0.42843  0.10460  Biso   1.000  O
  C76      1.0000 0.99910  0.31552  0.08702  Biso   1.000  C
  H47      1.0000 0.10903  0.33805  0.26700  Biso   1.000  H
  H48      1.0000 0.08904  0.57407  0.28800  Biso   1.000  H
  H49      1.0000 0.06005  0.51006  0.34600  Biso   1.000  H
  C77      1.0000 0.19938  0.59685  0.37621  Biso   1.000  C
  C78      1.0000 0.04792  0.35611  0.67171  Biso   1.000  C
  H50      1.0000 0.25805  0.51208  0.61599  Biso   1.000  H
  O9       1.0000 0.04339  0.21243  0.06588  Biso   1.000  O
  H51      1.0000 0.32103  0.29905  0.19798  Biso   1.000  H
  C79      1.0000 0.38385  0.36925  0.29360  Biso   1.000  C
  H52      1.0000 0.26101  0.36006  0.21299  Biso   1.000  H
  H53      1.0000 0.96499  0.10303  0.01900  Biso   1.000  H
  H54      1.0000 0.92303  0.13301  0.07899  Biso   1.000  H
  C80      1.0000 0.77990  0.84162  0.03282  Biso   1.000  C
  H55      1.0000 0.90210  0.81600  0.03900  Biso   1.000  H
  H56      1.0000 0.66911  0.88101  0.03700  Biso   1.000  H
  O10      1.0000 0.45674  0.39014  0.07548  Biso   1.000  O
  C81      1.0000 0.96217  0.31992  0.01772  Biso   1.000  C
  C82      1.0000 0.22480  0.64920  0.42931  Biso   1.000  C
  C83      1.0000 0.26588  0.57814  0.35512  Biso   1.000  C
  C84      1.0000 0.28062  0.58235  0.43601  Biso   1.000  C
  C85      1.0000 0.45045  0.33477  0.30619  Biso   1.000  C
  C86      1.0000 0.38856  0.42857  0.33560  Biso   1.000  C
  O11      1.0000 0.71951  0.78999  0.98209  Biso   1.000  O
  C87      1.0000 0.43245  0.36693  0.01150  Biso   1.000  C
  C88      1.0000 0.89986  0.25168  0.98318  Biso   1.000  C
  C89      1.0000 0.98673  0.38783  0.98770  Biso   1.000  C
  C90      1.0000 0.31647  0.68290  0.46128  Biso   1.000  C
  H57      1.0000 0.22806  0.63709  0.47002  Biso   1.000  H
  C91      1.0000 0.35774  0.61183  0.38709  Biso   1.000  C
  C92      1.0000 0.38604  0.60979  0.44428  Biso   1.000  C
  C93      1.0000 0.52184  0.35955  0.36082  Biso   1.000  C
  H58      1.0000 0.44704  0.28905  0.27399  Biso   1.000  H
  C94      1.0000 0.45982  0.45334  0.39022  Biso   1.000  C
  H59      1.0000 0.33706  0.45507  0.32600  Biso   1.000  H
  C95      1.0000 0.75492  0.72989  0.96689  Biso   1.000  C
  C96      1.0000 0.34325  0.37323  0.97459  Biso   1.000  C
  H60      1.0000 0.42203  0.30598  0.00798  Biso   1.000  H
  H61      1.0000 0.48603  0.39813  0.98903  Biso   1.000  H
  H62      1.0000 0.88099  0.19900  0.00698  Biso   1.000  H
  C97      1.0000 0.86234  0.25119  0.91873  Biso   1.000  C
  C98      1.0000 0.94911  0.38721  0.92310  Biso   1.000  C
  H63      1.0000 0.03507  0.44103  0.01401  Biso   1.000  H
  C99      1.0000 0.38293  0.66424  0.44019  Biso   1.000  C
  C100     1.0000 0.43319  0.67568  0.38500  Biso   1.000  C
  C101     1.0000 0.52655  0.41886  0.40281  Biso   1.000  C
  H64      1.0000 0.57303  0.33304  0.37098  Biso   1.000  H
  H65      1.0000 0.46304  0.49907  0.42300  Biso   1.000  H
  C102     1.0000 0.74047  0.66891  0.01321  Biso   1.000  C
  H66      1.0000 0.71607  0.70314  0.92001  Biso   1.000  H
  H67      1.0000 0.82605  0.75313  0.96798  Biso   1.000  H
  C103     1.0000 0.25958  0.33121  0.98679  Biso   1.000  C
  C104     1.0000 0.34861  0.43132  0.93340  Biso   1.000  C
  C105     1.0000 0.88692  0.31892  0.88861  Biso   1.000  C
  H68      1.0000 0.81399  0.19812  0.89203  Biso   1.000  H
  H69      1.0000 0.96803  0.44008  0.90001  Biso   1.000  H
  H70      1.0000 0.48903  0.67106  0.43402  Biso   1.000  H
  H71      1.0000 0.58202  0.43806  0.44499  Biso   1.000  H
  C106     1.0000 0.65686  0.62689  0.02541  Biso   1.000  C
  C107     1.0000 0.81869  0.65272  0.04209  Biso   1.000  C
  C108     1.0000 0.24521  0.27029  0.03311  Biso   1.000  C
  C109     1.0000 0.18142  0.34740  0.95791  Biso   1.000  C
  C110     1.0000 0.27043  0.44762  0.90452  Biso   1.000  C
  H72      1.0000 0.41303  0.46413  0.92400  Biso   1.000  H
  O12      1.0000 0.85593  0.33087  0.82453  Biso   1.000  O
  C111     1.0000 0.56768  0.63325  0.98850  Biso   1.000  C
  C112     1.0000 0.65143  0.56880  0.06660  Biso   1.000  C
  C113     1.0000 0.81330  0.59452  0.08332  Biso   1.000  C
  H73      1.0000 0.88307  0.68500  0.03301  Biso   1.000  H
  O13      1.0000 0.28062  0.21018  0.01791  Biso   1.000  O
  H74      1.0000 0.28400  0.29704  0.07999  Biso   1.000  H
  H75      1.0000 0.17402  0.24704  0.03202  Biso   1.000  H
  C114     1.0000 0.18683  0.40560  0.91673  Biso   1.000  C
  H76      1.0000 0.11704  0.31512  0.96699  Biso   1.000  H
  H77      1.0000 0.27503  0.49212  0.87303  Biso   1.000  H
  C115     1.0000 0.79679  0.26180  0.78292  Biso   1.000  C
  O14      1.0000 0.54339  0.61003  0.92452  Biso   1.000  O
  H78      1.0000 0.57808  0.69414  0.99202  Biso   1.000  H
  H79      1.0000 0.51409  0.60199  0.01102  Biso   1.000  H
  C116     1.0000 0.72968  0.55250  0.09548  Biso   1.000  C
  H80      1.0000 0.58708  0.53598  0.07600  Biso   1.000  H
  H81      1.0000 0.87407  0.58204  0.10602  Biso   1.000  H
  C117     1.0000 0.22023  0.15850  0.96722  Biso   1.000  C
  H82      1.0000 0.12599  0.41808  0.89403  Biso   1.000  H
  C118     1.0000 0.84983  0.20859  0.76853  Biso   1.000  C
  H83      1.0000 0.74902  0.22811  0.80900  Biso   1.000  H
  H84      1.0000 0.75898  0.27707  0.74003  Biso   1.000  H
  C119     1.0000 0.46700  0.62224  0.89151  Biso   1.000  C
  H85      1.0000 0.72503  0.50800  0.12702  Biso   1.000  H
  C120     1.0000 0.12799  0.14749  0.94271  Biso   1.000  C
  C121     1.0000 0.25932  0.11082  0.94390  Biso   1.000  C
  C122     1.0000 0.94490  0.23326  0.78249  Biso   1.000  C
  C123     1.0000 0.79780  0.13717  0.73442  Biso   1.000  C
  C124     1.0000 0.41445  0.66033  0.91103  Biso   1.000  C
  C125     1.0000 0.44196  0.58886  0.82942  Biso   1.000  C
  C126     1.0000 0.07489  0.08869  0.89493  Biso   1.000  C
  H86      1.0000 0.09801  0.18411  0.96100  Biso   1.000  H
  C127     1.0000 0.20621  0.05190  0.89602  Biso   1.000  C
  H87      1.0000 0.33100  0.11910  0.96300  Biso   1.000  H
  C128     1.0000 0.98798  0.18670  0.76249  Biso   1.000  C
  H88      1.0000 0.98500  0.28809  0.80900  Biso   1.000  H
  C129     1.0000 0.84091  0.09060  0.71433  Biso   1.000  C
  C130     1.0000 0.33700  0.66486  0.86852  Biso   1.000  C
  H89      1.0000 0.43408  0.68616  0.95901  Biso   1.000  H
  C131     1.0000 0.36449  0.59333  0.78691  Biso   1.000  C
  H90      1.0000 0.48306  0.55912  0.81399  Biso   1.000  H
  C132     1.0000 0.11398  0.04089  0.87151  Biso   1.000  C
  H91      1.0000 0.00297  0.08008  0.87602  Biso   1.000  H
  H92      1.0000 0.23596  0.01507  0.87802  Biso   1.000  H
  C133     1.0000 0.93602  0.11538  0.72829  Biso   1.000  C
  H93      1.0000 0.06200  0.20608  0.77299  Biso   1.000  H
  H94      1.0000 0.80097  0.03509  0.68801  Biso   1.000  H
  C134     1.0000 0.31196  0.63135  0.80639  Biso   1.000  C
  H95      1.0000 0.29606  0.69414  0.88400  Biso   1.000  H
  H96      1.0000 0.34505  0.56710  0.73903  Biso   1.000  H
  C135     1.0000 0.05534  0.97893  0.82073  Biso   1.000  C
  H97      1.0000 0.96901  0.07909  0.71300  Biso   1.000  H
  C136     1.0000 0.22578  0.63156  0.76382  Biso   1.000  C
  C137     1.0000 0.98682  0.91374  0.83151  Biso   1.000  C
  C138     1.0000 0.07231  0.98644  0.76078  Biso   1.000  C
  C139     1.0000 0.14585  0.59704  0.78340  Biso   1.000  C
  C140     1.0000 0.22238  0.66654  0.70720  Biso   1.000  C
  O15      1.0000 0.97514  0.90738  0.89141  Biso   1.000  O
  C141     1.0000 0.93519  0.85622  0.78230  Biso   1.000  C
  C142     1.0000 0.02070  0.92893  0.71162  Biso   1.000  C
  O16      1.0000 0.14107  0.04889  0.74820  Biso   1.000  O
  C143     1.0000 0.06247  0.59755  0.74630  Biso   1.000  C
  O17      1.0000 0.14495  0.55914  0.83612  Biso   1.000  O
  C144     1.0000 0.13910  0.66700  0.67010  Biso   1.000  C
  O18      1.0000 0.30526  0.69580  0.68759  Biso   1.000  O
  C145     1.0000 0.01618  0.86809  0.93412  Biso   1.000  C
  C146     1.0000 0.95222  0.86385  0.72240  Biso   1.000  C
  C147     1.0000 0.86709  0.78696  0.80382  Biso   1.000  C
  C148     1.0000 0.04210  0.93351  0.65030  Biso   1.000  C
  C149     1.0000 0.22011  0.04750  0.74240  Biso   1.000  C
  C150     1.0000 0.97375  0.56200  0.76069  Biso   1.000  C
  C151     1.0000 0.05918  0.63253  0.68963  Biso   1.000  C
  C152     1.0000 0.13456  0.59013  0.88899  Biso   1.000  C
  C153     1.0000 0.14359  0.70710  0.60660  Biso   1.000  C
  C154     1.0000 0.35190  0.77791  0.70203  Biso   1.000  C
  O19      1.0000 0.95667  0.78775  0.93412  Biso   1.000  O
  H98      1.0000 0.03508  0.89714  0.98100  Biso   1.000  H
  H99      1.0000 0.07710  0.86716  0.92101  Biso   1.000  H
  H100     1.0000 0.91210  0.81912  0.68402  Biso   1.000  H
  C155     1.0000 0.91667  0.72643  0.82182  Biso   1.000  C
  H101     1.0000 0.84209  0.80417  0.84101  Biso   1.000  H
  C156     1.0000 0.78449  0.74884  0.74791  Biso   1.000  C
  C157     1.0000 0.95929  0.89772  0.58840  Biso   1.000  C
  C158     1.0000 0.11217  0.89989  0.64198  Biso   1.000  C
  H102     1.0000 0.06412  0.99611  0.65101  Biso   1.000  H
  H103     1.0000 0.24197  0.00906  0.77499  Biso   1.000  H
  H104     1.0000 0.26797  0.10610  0.75599  Biso   1.000  H
  O20      1.0000 0.22351  0.02437  0.68079  Biso   1.000  O
  C159     1.0000 0.96628  0.61843  0.80943  Biso   1.000  C
  H105     1.0000 0.97509  0.50911  0.78002  Biso   1.000  H
  C160     1.0000 0.88367  0.51894  0.70920  Biso   1.000  C
  H106     1.0000 0.99505  0.63311  0.66098  Biso   1.000  H
  O21      1.0000 0.04667  0.57175  0.89540  Biso   1.000  O
  H107     1.0000 0.16904  0.56813  0.92899  Biso   1.000  H
  H108     1.0000 0.16610  0.65217  0.89303  Biso   1.000  H
  C161     1.0000 0.16279  0.79342  0.62579  Biso   1.000  C
  H109     1.0000 0.19811  0.69910  0.58902  Biso   1.000  H
  C162     1.0000 0.06485  0.67788  0.54152  Biso   1.000  C
  O22      1.0000 0.32608  0.81863  0.64821  Biso   1.000  O
  H110     1.0000 0.33606  0.79911  0.74202  Biso   1.000  H
  H111     1.0000 0.42409  0.78911  0.71200  Biso   1.000  H
  C163     1.0000 0.95635  0.73454  0.88680  Biso   1.000  C
  C164     1.0000 0.92168  0.66836  0.78321  Biso   1.000  C
  H112     1.0000 0.80312  0.72915  0.70801  Biso   1.000  H
  H113     1.0000 0.75409  0.79211  0.73399  Biso   1.000  H
  C165     1.0000 0.70506  0.67963  0.76672  Biso   1.000  C
  H114     1.0000 0.92506  0.83710  0.59301  Biso   1.000  H
  H115     1.0000 0.98510  0.90313  0.54598  Biso   1.000  H
  C166     1.0000 0.89464  0.94662  0.58413  Biso   1.000  C
  C167     1.0000 0.09222  0.82222  0.62332  Biso   1.000  C
  C168     1.0000 0.20279  0.94873  0.66331  Biso   1.000  C
  C169     1.0000 0.00597  0.62653  0.87441  Biso   1.000  C
  H116     1.0000 0.82906  0.49614  0.73200  Biso   1.000  H
  H117     1.0000 0.87005  0.56111  0.67899  Biso   1.000  H
  C170     1.0000 0.88824  0.46344  0.67980  Biso   1.000  C
  C171     1.0000 0.25337  0.84232  0.64711  Biso   1.000  C
  H118     1.0000 0.00408  0.68413  0.54902  Biso   1.000  H
  H119     1.0000 0.08008  0.70611  0.50000  Biso   1.000  H
  C172     1.0000 0.04890  0.59902  0.54190  Biso   1.000  C
  C173     1.0000 0.00098  0.68466  0.91303  Biso   1.000  C
  H120     1.0000 0.89110  0.66212  0.73300  Biso   1.000  H
  H121     1.0000 0.67910  0.70112  0.80202  Biso   1.000  H
  C174     1.0000 0.61628  0.63092  0.70640  Biso   1.000  C
  H122     1.0000 0.73906  0.64011  0.78701  Biso   1.000  H
  H123     1.0000 0.87511  0.94414  0.62802  Biso   1.000  H
  C175     1.0000 0.81921  0.91243  0.52993  Biso   1.000  C
  H124     1.0000 0.92898  0.00605  0.57700  Biso   1.000  H
  H125     1.0000 0.02208  0.78414  0.60702  Biso   1.000  H
  C176     1.0000 0.27339  0.92000  0.66583  Biso   1.000  C
  H126     1.0000 0.91102  0.42610  0.71200  Biso   1.000  H
  H127     1.0000 0.94008  0.49012  0.65400  Biso   1.000  H
  C177     1.0000 0.80075  0.40333  0.62379  Biso   1.000  C
  C178     1.0000 0.98383  0.56727  0.48889  Biso   1.000  C
  H128     1.0000 0.03908  0.57409  0.58503  Biso   1.000  H
  H129     1.0000 0.11007  0.59510  0.53302  Biso   1.000  H
  C179     1.0000 0.03798  0.68026  0.98233  Biso   1.000  C
  C180     1.0000 0.54967  0.66540  0.69381  Biso   1.000  C
  C181     1.0000 0.61157  0.57161  0.66440  Biso   1.000  C
  C182     1.0000 0.81701  0.89318  0.46742  Biso   1.000  C
  C183     1.0000 0.74184  0.87994  0.55273  Biso   1.000  C
  C184     1.0000 0.73748  0.90368  0.46851  Biso   1.000  C
  C185     1.0000 0.37233  0.97315  0.68749  Biso   1.000  C
  C186     1.0000 0.77533  0.35097  0.57069  Biso   1.000  C
  C187     1.0000 0.73427  0.42204  0.64493  Biso   1.000  C
  C188     1.0000 0.71944  0.41783  0.56399  Biso   1.000  C
  C189     1.0000 0.97021  0.58580  0.42633  Biso   1.000  C
  C190     1.0000 0.91275  0.51388  0.50889  Biso   1.000  C
  C191     1.0000 0.93306  0.58728  0.44443  Biso   1.000  C
  C192     1.0000 0.10016  0.74838  0.01682  Biso   1.000  C
  C193     1.0000 0.01338  0.61229  0.01230  Biso   1.000  C
  C194     1.0000 0.47831  0.64063  0.63923  Biso   1.000  C
  H130     1.0000 0.55309  0.71112  0.72601  Biso   1.000  H
  C195     1.0000 0.54026  0.54683  0.60983  Biso   1.000  C
  H131     1.0000 0.66307  0.54510  0.67400  Biso   1.000  H
  C196     1.0000 0.73740  0.84157  0.42780  Biso   1.000  C
  H132     1.0000 0.87707  0.91808  0.44998  Biso   1.000  H
  C197     1.0000 0.66223  0.82833  0.51311  Biso   1.000  C
  H133     1.0000 0.74311  0.89513  0.60099  Biso   1.000  H
  C198     1.0000 0.65997  0.80908  0.45060  Biso   1.000  C
  C199     1.0000 0.43113  0.97343  0.74592  Biso   1.000  C
  C200     1.0000 0.40539  0.01874  0.64179  Biso   1.000  C
  C201     1.0000 0.68365  0.31728  0.53872  Biso   1.000  C
  H134     1.0000 0.77209  0.36309  0.53002  Biso   1.000  H
  C202     1.0000 0.64237  0.38828  0.61291  Biso   1.000  C
  C203     1.0000 0.61409  0.39038  0.55572  Biso   1.000  C
  C204     1.0000 0.88547  0.55080  0.38363  Biso   1.000  C
  C205     1.0000 0.87406  0.54577  0.38819  Biso   1.000  C
  H135     1.0000 0.02310  0.63008  0.40899  Biso   1.000  H
  C206     1.0000 0.00162  0.65720  0.44253  Biso   1.000  C
  C207     1.0000 0.82809  0.47889  0.46623  Biso   1.000  C
  H136     1.0000 0.93206  0.51708  0.56499  Biso   1.000  H
  H137     1.0000 0.11908  0.80117  0.99302  Biso   1.000  H
  C208     1.0000 0.13779  0.74893  0.08132  Biso   1.000  C
  H138     1.0000 0.96506  0.55915  0.98599  Biso   1.000  H
  C209     1.0000 0.05100  0.61291  0.07690  Biso   1.000  C
  C210     1.0000 0.47358  0.58131  0.59719  Biso   1.000  C
  H139     1.0000 0.42710  0.66713  0.62902  Biso   1.000  H
  H140     1.0000 0.53709  0.50111  0.57700  Biso   1.000  H
  H141     1.0000 0.73611  0.82707  0.37902  Biso   1.000  H
  H142     1.0000 0.60207  0.80308  0.53102  Biso   1.000  H
  H143     1.0000 0.59807  0.76908  0.42001  Biso   1.000  H
  H144     1.0000 0.40509  0.93815  0.78102  Biso   1.000  H
  C211     1.0000 0.52296  0.01947  0.75860  Biso   1.000  C
  C212     1.0000 0.49740  0.06477  0.65443  Biso   1.000  C
  H145     1.0000 0.35996  0.01806  0.59700  Biso   1.000  H
  C213     1.0000 0.61711  0.33587  0.55981  Biso   1.000  C
  C214     1.0000 0.56694  0.32449  0.61500  Biso   1.000  C
  C215     1.0000 0.81451  0.49741  0.40362  Biso   1.000  C
  H146     1.0000 0.86605  0.57308  0.34102  Biso   1.000  H
  C216     1.0000 0.88358  0.57418  0.33009  Biso   1.000  C
  C217     1.0000 0.01118  0.68561  0.38439  Biso   1.000  C
  H147     1.0000 0.77507  0.46009  0.49601  Biso   1.000  H
  C218     1.0000 0.11318  0.68120  0.11139  Biso   1.000  C
  H148     1.0000 0.18607  0.80200  0.10802  Biso   1.000  H
  H149     1.0000 0.03208  0.56003  0.09999  Biso   1.000  H
  H150     1.0000 0.41811  0.56212  0.55501  Biso   1.000  H
  C219     1.0000 0.55619  0.06518  0.71290  Biso   1.000  C
  H151     1.0000 0.56801  0.02011  0.80401  Biso   1.000  H
  H152     1.0000 0.52303  0.10008  0.61899  Biso   1.000  H
  H153     1.0000 0.51105  0.32912  0.56603  Biso   1.000  H
  H154     1.0000 0.74208  0.48809  0.38401  Biso   1.000  H
  C220     1.0000 0.95215  0.64406  0.32829  Biso   1.000  C
  O23      1.0000 0.14419  0.66925  0.17552  Biso   1.000  O
  O24      1.0000 0.65470  0.10197  0.75200  Biso   1.000  O
  C221     1.0000 0.66768  0.11028  0.70773  Biso   1.000  C
  C222     1.0000 0.20326  0.73832  0.21708  Biso   1.000  C
  H155     1.0000 0.63797  0.06007  0.67400  Biso   1.000  H
  H156     1.0000 0.65701  0.15905  0.68502  Biso   1.000  H
  C223     1.0000 0.15029  0.79153  0.23152  Biso   1.000  C
  H157     1.0000 0.25109  0.77200  0.19100  Biso   1.000  H
  H158     1.0000 0.24108  0.72305  0.26002  Biso   1.000  H
  C224     1.0000 0.05521  0.76686  0.21751  Biso   1.000  C
  C225     1.0000 0.20231  0.86295  0.26558  Biso   1.000  C
  C226     1.0000 0.01207  0.81342  0.23751  Biso   1.000  C
  H159     1.0000 0.01510  0.71202  0.19100  Biso   1.000  H
  C227     1.0000 0.15922  0.90952  0.28572  Biso   1.000  C
  H160     1.0000 0.93811  0.79403  0.22701  Biso   1.000  H
  C228     1.0000 0.06409  0.88473  0.27171  Biso   1.000  C
  H161     1.0000 0.19907  0.96502  0.31199  Biso   1.000  H
  H162     1.0000 0.03109  0.92103  0.28700  Biso   1.000  H
