data_image0
_cell_length_a       14.228
_cell_length_b       19.241
_cell_length_c       21.797
_cell_angle_alpha    90
_cell_angle_beta     107.32
_cell_angle_gamma    90

_symmetry_space_group_name_H-M    "P 1"
_symmetry_int_tables_number       1

loop_
  _symmetry_equiv_pos_as_xyz
  'x, y, z'

loop_
  _atom_site_label
  _atom_site_occupancy
  _atom_site_fract_x
  _atom_site_fract_y
  _atom_site_fract_z
  _atom_site_thermal_displace_type
  _atom_site_B_iso_or_equiv
  _atom_site_type_symbol
  C1       1.0000 0.62979  0.35492  0.48182  Biso   1.000  C
  C2       1.0000 0.59331  0.28179  0.48859  Biso   1.000  C
  N1       1.0000 0.72916  0.35071  0.47149  Biso   1.000  N
  H1       1.0000 0.58291  0.37690  0.44530  Biso   1.000  H
  H2       1.0000 0.63281  0.38189  0.51988  Biso   1.000  H
  N2       1.0000 0.57908  0.23559  0.43290  Biso   1.000  N
  H3       1.0000 0.64172  0.26059  0.52478  Biso   1.000  H
  H4       1.0000 0.53180  0.28439  0.49922  Biso   1.000  H
  C3       1.0000 0.78001  0.42030  0.48018  Biso   1.000  C
  H5       1.0000 0.72302  0.33522  0.43150  Biso   1.000  H
  H6       1.0000 0.76797  0.32062  0.49941  Biso   1.000  H
  C4       1.0000 0.49172  0.26023  0.38220  Biso   1.000  C
  C5       1.0000 0.56229  0.16273  0.45049  Biso   1.000  C
  C6       1.0000 0.88688  0.41308  0.48859  Biso   1.000  C
  H7       1.0000 0.74967  0.44920  0.44308  Biso   1.000  H
  H8       1.0000 0.77103  0.44291  0.51781  Biso   1.000  H
  C7       1.0000 0.48029  0.22842  0.31569  Biso   1.000  C
  H9       1.0000 0.43343  0.24931  0.39479  Biso   1.000  H
  H10      1.0000 0.49500  0.31027  0.37830  Biso   1.000  H
  C8       1.0000 0.65191  0.12738  0.49258  Biso   1.000  C
  H11      1.0000 0.53702  0.13591  0.41142  Biso   1.000  H
  H12      1.0000 0.51228  0.16371  0.47259  Biso   1.000  H
  O1       1.0000 0.91490  0.42248  0.43352  Biso   1.000  O
  C9       1.0000 0.96736  0.40372  0.53838  Biso   1.000  C
  N3       1.0000 0.56433  0.24443  0.29161  Biso   1.000  N
  H13      1.0000 0.41936  0.24359  0.28488  Biso   1.000  H
  H14      1.0000 0.47687  0.17842  0.31991  Biso   1.000  H
  N4       1.0000 0.72998  0.12172  0.45971  Biso   1.000  N
  H15      1.0000 0.67700  0.15488  0.53141  Biso   1.000  H
  H16      1.0000 0.63526  0.08180  0.50508  Biso   1.000  H
  C10      1.0000 0.01566  0.41952  0.45289  Biso   1.000  C
  H17      1.0000 0.96763  0.39639  0.58072  Biso   1.000  H
  C11      1.0000 0.05002  0.40861  0.51589  Biso   1.000  C
  C12      1.0000 0.54191  0.22431  0.22212  Biso   1.000  C
  H18      1.0000 0.57643  0.29032  0.29579  Biso   1.000  H
  H19      1.0000 0.61871  0.22182  0.31468  Biso   1.000  H
  C13      1.0000 0.80962  0.07172  0.49148  Biso   1.000  C
  H20      1.0000 0.75753  0.16361  0.45832  Biso   1.000  H
  H21      1.0000 0.70270  0.10732  0.41901  Biso   1.000  H
  C14      1.0000 0.06481  0.43288  0.40301  Biso   1.000  C
  H22      1.0000 0.11569  0.40388  0.53982  Biso   1.000  H
  C15      1.0000 0.60984  0.25638  0.19122  Biso   1.000  C
  H23      1.0000 0.47510  0.23871  0.19982  Biso   1.000  H
  H24      1.0000 0.54456  0.17411  0.21928  Biso   1.000  H
  C16      1.0000 0.87302  0.05280  0.45250  Biso   1.000  C
  H25      1.0000 0.84972  0.09220  0.53132  Biso   1.000  H
  H26      1.0000 0.77949  0.02988  0.50200  Biso   1.000  H
  N5       1.0000 0.08647  0.36859  0.37220  Biso   1.000  N
  H27      1.0000 0.12651  0.45668  0.42271  Biso   1.000  H
  H28      1.0000 0.02453  0.46292  0.36970  Biso   1.000  H
  O2       1.0000 0.69293  0.21849  0.19232  Biso   1.000  O
  C17      1.0000 0.60876  0.31350  0.15618  Biso   1.000  C
  O3       1.0000 0.96083  0.08908  0.46149  Biso   1.000  O
  C18      1.0000 0.86631  0.00379  0.40820  Biso   1.000  C
  C19      1.0000 0.15927  0.37851  0.33520  Biso   1.000  C
  H29      1.0000 0.11033  0.33668  0.40310  Biso   1.000  H
  H30      1.0000 0.02977  0.35211  0.34558  Biso   1.000  H
  C20      1.0000 0.74120  0.25560  0.15700  Biso   1.000  C
  C21      1.0000 0.69248  0.31298  0.13509  Biso   1.000  C
  H31      1.0000 0.56088  0.34801  0.14859  Biso   1.000  H
  C22      1.0000 0.00688  0.05920  0.42069  Biso   1.000  C
  C23      1.0000 0.95103  0.00852  0.38700  Biso   1.000  C
  H32      1.0000 0.81440  0.97261  0.39378  Biso   1.000  H
  C24      1.0000 0.20378  0.30981  0.32568  Biso   1.000  C
  H33      1.0000 0.21078  0.41001  0.35860  Biso   1.000  H
  H34      1.0000 0.12622  0.39951  0.29401  Biso   1.000  H
  C25      1.0000 0.83311  0.22660  0.14941  Biso   1.000  C
  H35      1.0000 0.70919  0.34572  0.10870  Biso   1.000  H
  C26      1.0000 0.10363  0.08830  0.42261  Biso   1.000  C
  H36      1.0000 0.96651  0.98150  0.35591  Biso   1.000  H
  N6       1.0000 0.13283  0.25830  0.28801  Biso   1.000  N
  H37      1.0000 0.23893  0.29032  0.36730  Biso   1.000  H
  H38      1.0000 0.25161  0.31849  0.30281  Biso   1.000  H
  N7       1.0000 0.92497  0.25238  0.19718  Biso   1.000  N
  H39      1.0000 0.83619  0.23809  0.10669  Biso   1.000  H
  H40      1.0000 0.83170  0.17629  0.15248  Biso   1.000  H
  N8       1.0000 0.09641  0.13819  0.36812  Biso   1.000  N
  H41      1.0000 0.14839  0.05078  0.42122  Biso   1.000  H
  H42      1.0000 0.13100  0.11340  0.46260  Biso   1.000  H
  C27      1.0000 0.10328  0.27769  0.21890  Biso   1.000  C
  C28      1.0000 0.18281  0.18882  0.29589  Biso   1.000  C
  H43      1.0000 0.91921  0.29848  0.20179  Biso   1.000  H
  H44      1.0000 0.93066  0.23232  0.23538  Biso   1.000  H
  C29      1.0000 0.01618  0.23881  0.17771  Biso   1.000  C
  C30      1.0000 0.19438  0.15358  0.35870  Biso   1.000  C
  H45      1.0000 0.05690  0.11902  0.33188  Biso   1.000  H
  H46      1.0000 0.06848  0.17832  0.37499  Biso   1.000  H
  H47      1.0000 0.08808  0.32691  0.21501  Biso   1.000  H
  H48      1.0000 0.15937  0.26979  0.20318  Biso   1.000  H
  H49      1.0000 0.14533  0.15810  0.26210  Biso   1.000  H
  H50      1.0000 0.24697  0.19542  0.28969  Biso   1.000  H
  H51      1.0000 0.00493  0.25129  0.13302  Biso   1.000  H
  H52      1.0000 0.03078  0.18949  0.18199  Biso   1.000  H
  H53      1.0000 0.23078  0.11070  0.36052  Biso   1.000  H
  H54      1.0000 0.23189  0.18372  0.39301  Biso   1.000  H
  C31      1.0000 0.37023  0.64508  0.51820  Biso   1.000  C
  N9       1.0000 0.27076  0.64929  0.52848  Biso   1.000  N
  C32      1.0000 0.40671  0.71821  0.51142  Biso   1.000  C
  H55      1.0000 0.41711  0.62310  0.55472  Biso   1.000  H
  H56      1.0000 0.36719  0.61811  0.48009  Biso   1.000  H
  C33      1.0000 0.21999  0.57970  0.51978  Biso   1.000  C
  H57      1.0000 0.27700  0.66478  0.56851  Biso   1.000  H
  H58      1.0000 0.23197  0.67938  0.50061  Biso   1.000  H
  N10      1.0000 0.42094  0.76441  0.56712  Biso   1.000  N
  H59      1.0000 0.35828  0.73941  0.47519  Biso   1.000  H
  H60      1.0000 0.46822  0.71561  0.50080  Biso   1.000  H
  C34      1.0000 0.11314  0.58692  0.51142  Biso   1.000  C
  H61      1.0000 0.25026  0.55080  0.55688  Biso   1.000  H
  H62      1.0000 0.22899  0.55709  0.48220  Biso   1.000  H
  C35      1.0000 0.43771  0.83727  0.54948  Biso   1.000  C
  C36      1.0000 0.50830  0.73977  0.61782  Biso   1.000  C
  O4       1.0000 0.08512  0.57752  0.56649  Biso   1.000  O
  C37      1.0000 0.03256  0.59628  0.46159  Biso   1.000  C
  C38      1.0000 0.34808  0.87262  0.50738  Biso   1.000  C
  H63      1.0000 0.46300  0.86409  0.58860  Biso   1.000  H
  H64      1.0000 0.48772  0.83629  0.52738  Biso   1.000  H
  C39      1.0000 0.51971  0.77158  0.68428  Biso   1.000  C
  H65      1.0000 0.56657  0.75069  0.60518  Biso   1.000  H
  H66      1.0000 0.50502  0.68973  0.62171  Biso   1.000  H
  C40      1.0000 0.98426  0.58048  0.54708  Biso   1.000  C
  H67      1.0000 0.03239  0.60361  0.41930  Biso   1.000  H
  C41      1.0000 0.94998  0.59139  0.48408  Biso   1.000  C
  N11      1.0000 0.26997  0.87828  0.54030  Biso   1.000  N
  H68      1.0000 0.32301  0.84512  0.46860  Biso   1.000  H
  H69      1.0000 0.36466  0.91820  0.49489  Biso   1.000  H
  N12      1.0000 0.43569  0.75557  0.70841  Biso   1.000  N
  H70      1.0000 0.58057  0.75641  0.71509  Biso   1.000  H
  H71      1.0000 0.52307  0.82158  0.68010  Biso   1.000  H
  C42      1.0000 0.93520  0.56712  0.59701  Biso   1.000  C
  H72      1.0000 0.88433  0.59612  0.46019  Biso   1.000  H
  C43      1.0000 0.19038  0.92828  0.50849  Biso   1.000  C
  H73      1.0000 0.24249  0.83639  0.54170  Biso   1.000  H
  H74      1.0000 0.29732  0.89268  0.58101  Biso   1.000  H
  C44      1.0000 0.45810  0.77569  0.77790  Biso   1.000  C
  H75      1.0000 0.42357  0.70968  0.70418  Biso   1.000  H
  H76      1.0000 0.38129  0.77818  0.68529  Biso   1.000  H
  N13      1.0000 0.91348  0.63141  0.62782  Biso   1.000  N
  H77      1.0000 0.87351  0.54332  0.57731  Biso   1.000  H
  H78      1.0000 0.97549  0.53708  0.63031  Biso   1.000  H
  C45      1.0000 0.12700  0.94720  0.54751  Biso   1.000  C
  H79      1.0000 0.15030  0.90780  0.46870  Biso   1.000  H
  H80      1.0000 0.22053  0.97012  0.49801  Biso   1.000  H
  C46      1.0000 0.39017  0.74362  0.80880  Biso   1.000  C
  H81      1.0000 0.52492  0.76129  0.80020  Biso   1.000  H
  H82      1.0000 0.45537  0.82589  0.78068  Biso   1.000  H
  C47      1.0000 0.84067  0.62149  0.66482  Biso   1.000  C
  H83      1.0000 0.88969  0.66332  0.59692  Biso   1.000  H
  H84      1.0000 0.97023  0.64789  0.65439  Biso   1.000  H
  O5       1.0000 0.03917  0.91092  0.53848  Biso   1.000  O
  C48      1.0000 0.13371  0.99621  0.59182  Biso   1.000  C
  O6       1.0000 0.30709  0.78151  0.80769  Biso   1.000  O
  C49      1.0000 0.39116  0.68650  0.84378  Biso   1.000  C
  C50      1.0000 0.79621  0.69019  0.67429  Biso   1.000  C
  H85      1.0000 0.78924  0.58999  0.64142  Biso   1.000  H
  H86      1.0000 0.87380  0.60049  0.70600  Biso   1.000  H
  C51      1.0000 0.99311  0.94080  0.57928  Biso   1.000  C
  C52      1.0000 0.04898  0.99148  0.61301  Biso   1.000  C
  H87      1.0000 0.18560  0.02739  0.60619  Biso   1.000  H
  C53      1.0000 0.25882  0.74440  0.84301  Biso   1.000  C
  C54      1.0000 0.30752  0.68702  0.86488  Biso   1.000  C
  H88      1.0000 0.43911  0.65199  0.85138  Biso   1.000  H
  N14      1.0000 0.86719  0.74170  0.71201  Biso   1.000  N
  H89      1.0000 0.76109  0.70968  0.63272  Biso   1.000  H
  H90      1.0000 0.74840  0.68151  0.69721  Biso   1.000  H
  C55      1.0000 0.89639  0.91170  0.57740  Biso   1.000  C
  H91      1.0000 0.03350  0.01850  0.64411  Biso   1.000  H
  C56      1.0000 0.16690  0.77340  0.85061  Biso   1.000  C
  H92      1.0000 0.29082  0.65428  0.89131  Biso   1.000  H
  C57      1.0000 0.81718  0.81118  0.70408  Biso   1.000  C
  C58      1.0000 0.89674  0.72231  0.78112  Biso   1.000  C
  N15      1.0000 0.90361  0.86181  0.63190  Biso   1.000  N
  H93      1.0000 0.85162  0.94922  0.57880  Biso   1.000  H
  H94      1.0000 0.86902  0.88660  0.53742  Biso   1.000  H
  N16      1.0000 0.07502  0.74762  0.80279  Biso   1.000  N
  H95      1.0000 0.16381  0.76191  0.89328  Biso   1.000  H
  H96      1.0000 0.16829  0.82371  0.84748  Biso   1.000  H
  C59      1.0000 0.80564  0.84642  0.64132  Biso   1.000  C
  H97      1.0000 0.85468  0.84190  0.73791  Biso   1.000  H
  H98      1.0000 0.75296  0.80458  0.71028  Biso   1.000  H
  C60      1.0000 0.98377  0.76119  0.82230  Biso   1.000  C
  H99      1.0000 0.91194  0.67309  0.78501  Biso   1.000  H
  H100     1.0000 0.84063  0.73021  0.79678  Biso   1.000  H
  H101     1.0000 0.94309  0.88098  0.66809  Biso   1.000  H
  H102     1.0000 0.93151  0.82168  0.62498  Biso   1.000  H
  H103     1.0000 0.08079  0.70152  0.79818  Biso   1.000  H
  H104     1.0000 0.06927  0.76768  0.76459  Biso   1.000  H
  H105     1.0000 0.76917  0.88930  0.63949  Biso   1.000  H
  H106     1.0000 0.76813  0.81628  0.60701  Biso   1.000  H
  H107     1.0000 0.99508  0.74871  0.86699  Biso   1.000  H
  H108     1.0000 0.96921  0.81051  0.81798  Biso   1.000  H
  C61      1.0000 0.48380  0.73879  0.32232  Biso   1.000  C
  C62      1.0000 0.39668  0.77771  0.28108  Biso   1.000  C
  N17      1.0000 0.57499  0.75240  0.30281  Biso   1.000  N
  H109     1.0000 0.49512  0.75131  0.36701  Biso   1.000  H
  H110     1.0000 0.46918  0.68952  0.31799  Biso   1.000  H
  N18      1.0000 0.36720  0.75828  0.21198  Biso   1.000  N
  H111     1.0000 0.41188  0.82688  0.28498  Biso   1.000  H
  H112     1.0000 0.34059  0.76981  0.29680  Biso   1.000  H
  C63      1.0000 0.66694  0.72663  0.35062  Biso   1.000  C
  H113     1.0000 0.58083  0.79850  0.29819  Biso   1.000  H
  H114     1.0000 0.56930  0.73229  0.26460  Biso   1.000  H
  C64      1.0000 0.31722  0.68879  0.20410  Biso   1.000  C
  C65      1.0000 0.29618  0.80978  0.17430  Biso   1.000  C
  C66      1.0000 0.75876  0.75557  0.34298  Biso   1.000  C
  H115     1.0000 0.66377  0.73811  0.39330  Biso   1.000  H
  H116     1.0000 0.66833  0.67632  0.34750  Biso   1.000  H
  C67      1.0000 0.30558  0.65360  0.14129  Biso   1.000  C
  H117     1.0000 0.35470  0.65813  0.23788  Biso   1.000  H
  H118     1.0000 0.25300  0.69539  0.21030  Biso   1.000  H
  C68      1.0000 0.34069  0.87849  0.16479  Biso   1.000  C
  H119     1.0000 0.26111  0.79029  0.13269  Biso   1.000  H
  H120     1.0000 0.24842  0.81851  0.19718  Biso   1.000  H
  O7       1.0000 0.80712  0.71852  0.30771  Biso   1.000  O
  C69      1.0000 0.80748  0.81300  0.36490  Biso   1.000  C
  N19      1.0000 0.40364  0.63822  0.13192  Biso   1.000  N
  H121     1.0000 0.26921  0.61068  0.13951  Biso   1.000  H
  H122     1.0000 0.26810  0.68370  0.10702  Biso   1.000  H
  N20      1.0000 0.41349  0.86861  0.12778  Biso   1.000  N
  H123     1.0000 0.28918  0.90998  0.14138  Biso   1.000  H
  H124     1.0000 0.37383  0.89949  0.20602  Biso   1.000  H
  C70      1.0000 0.89021  0.75641  0.30881  Biso   1.000  C
  C71      1.0000 0.89120  0.81352  0.34380  Biso   1.000  C
  H125     1.0000 0.79077  0.84569  0.39128  Biso   1.000  H
  C72      1.0000 0.39643  0.58828  0.07742  Biso   1.000  C
  H126     1.0000 0.44313  0.61899  0.16810  Biso   1.000  H
  H127     1.0000 0.43148  0.67829  0.12500  Biso   1.000  H
  C73      1.0000 0.43522  0.93290  0.09698  Biso   1.000  C
  H128     1.0000 0.38970  0.83670  0.09688  Biso   1.000  H
  H129     1.0000 0.47020  0.85209  0.15441  Biso   1.000  H
  C74      1.0000 0.95814  0.72429  0.27791  Biso   1.000  C
  H130     1.0000 0.93908  0.84798  0.35139  Biso   1.000  H
  C75      1.0000 0.49308  0.55922  0.07929  Biso   1.000  C
  H131     1.0000 0.35159  0.55080  0.07881  Biso   1.000  H
  H132     1.0000 0.36896  0.61338  0.03739  Biso   1.000  H
  C76      1.0000 0.48430  0.91949  0.04710  Biso   1.000  C
  H133     1.0000 0.37354  0.95671  0.07732  Biso   1.000  H
  H134     1.0000 0.47550  0.96289  0.13028  Biso   1.000  H
  N21      1.0000 0.93572  0.74440  0.20842  Biso   1.000  N
  H135     1.0000 0.95541  0.67408  0.28070  Biso   1.000  H
  H136     1.0000 0.02489  0.73868  0.30021  Biso   1.000  H
  C77      1.0000 0.54900  0.50850  0.11298  Biso   1.000  C
  O8       1.0000 0.53920  0.58911  0.03849  Biso   1.000  O
  O9       1.0000 0.58509  0.92251  0.06651  Biso   1.000  O
  C78      1.0000 0.45001  0.90858  0.98409  Biso   1.000  C
  C79      1.0000 0.01968  0.72839  0.18430  Biso   1.000  C
  H137     1.0000 0.92360  0.79029  0.20419  Biso   1.000  H
  H138     1.0000 0.88132  0.72179  0.18531  Biso   1.000  H
  C80      1.0000 0.63372  0.50382  0.09179  Biso   1.000  C
  H139     1.0000 0.53354  0.48152  0.14412  Biso   1.000  H
  C81      1.0000 0.62701  0.55278  0.04748  Biso   1.000  C
  C82      1.0000 0.61308  0.91310  0.01139  Biso   1.000  C
  C83      1.0000 0.53260  0.90370  0.96160  Biso   1.000  C
  H140     1.0000 0.38428  0.90390  0.96016  Biso   1.000  H
  C84      1.0000 0.00832  0.76020  0.11779  Biso   1.000  C
  H141     1.0000 0.08060  0.74362  0.21510  Biso   1.000  H
  H142     1.0000 0.02311  0.67840  0.18012  Biso   1.000  H
  H143     1.0000 0.68563  0.47258  0.10621  Biso   1.000  H
  C85      1.0000 0.69041  0.57170  0.00851  Biso   1.000  C
  C86      1.0000 0.72002  0.92027  0.01980  Biso   1.000  C
  H144     1.0000 0.53241  0.89642  0.91926  Biso   1.000  H
  N22      1.0000 0.92088  0.73562  0.06709  Biso   1.000  N
  H145     1.0000 0.06660  0.74929  0.10520  Biso   1.000  H
  H146     1.0000 0.00496  0.81030  0.12168  Biso   1.000  H
  N23      1.0000 0.77001  0.62169  0.04032  Biso   1.000  N
  H147     1.0000 0.65024  0.59222  0.96867  Biso   1.000  H
  H148     1.0000 0.72047  0.52991  0.99798  Biso   1.000  H
  N24      1.0000 0.77080  0.85068  0.02850  Biso   1.000  N
  H149     1.0000 0.75030  0.94922  0.05690  Biso   1.000  H
  H150     1.0000 0.72901  0.94288  0.98217  Biso   1.000  H
  C87      1.0000 0.93767  0.66270  0.04950  Biso   1.000  C
  C88      1.0000 0.90673  0.78182  0.01139  Biso   1.000  C
  C89      1.0000 0.84812  0.62741  0.00740  Biso   1.000  C
  H151     1.0000 0.74253  0.66358  0.04171  Biso   1.000  H
  H152     1.0000 0.79729  0.60730  0.08102  Biso   1.000  H
  C90      1.0000 0.87020  0.85489  0.01821  Biso   1.000  C
  H153     1.0000 0.77702  0.83520  0.06848  Biso   1.000  H
  H154     1.0000 0.73199  0.82059  0.00058  Biso   1.000  H
  H155     1.0000 0.96303  0.63588  0.08862  Biso   1.000  H
  H156     1.0000 0.98768  0.66369  0.02739  Biso   1.000  H
  H157     1.0000 0.96818  0.78442  0.00082  Biso   1.000  H
  H158     1.0000 0.85831  0.76062  0.97520  Biso   1.000  H
  H159     1.0000 0.82296  0.65490  0.96857  Biso   1.000  H
  H160     1.0000 0.86470  0.58178  0.99491  Biso   1.000  H
  H161     1.0000 0.91713  0.87688  0.05469  Biso   1.000  H
  H162     1.0000 0.86723  0.88192  0.98010  Biso   1.000  H
  C91      1.0000 0.51621  0.26121  0.67770  Biso   1.000  C
  N25      1.0000 0.42503  0.24760  0.69721  Biso   1.000  N
  C92      1.0000 0.60331  0.22229  0.71888  Biso   1.000  C
  H163     1.0000 0.50490  0.24869  0.63301  Biso   1.000  H
  H164     1.0000 0.53084  0.31048  0.68202  Biso   1.000  H
  C93      1.0000 0.33308  0.27337  0.64939  Biso   1.000  C
  H165     1.0000 0.41919  0.20150  0.70182  Biso   1.000  H
  H166     1.0000 0.43072  0.26771  0.73542  Biso   1.000  H
  N26      1.0000 0.63279  0.24172  0.78799  Biso   1.000  N
  H167     1.0000 0.58811  0.17312  0.71499  Biso   1.000  H
  H168     1.0000 0.65942  0.23019  0.70322  Biso   1.000  H
  C94      1.0000 0.24116  0.24443  0.65699  Biso   1.000  C
  H169     1.0000 0.33617  0.26189  0.60672  Biso   1.000  H
  H170     1.0000 0.33169  0.32368  0.65252  Biso   1.000  H
  C95      1.0000 0.68280  0.31121  0.79592  Biso   1.000  C
  C96      1.0000 0.70384  0.19022  0.82571  Biso   1.000  C
  O10      1.0000 0.19289  0.28148  0.69231  Biso   1.000  O
  C97      1.0000 0.19253  0.18700  0.63512  Biso   1.000  C
  C98      1.0000 0.69441  0.34640  0.85868  Biso   1.000  C
  H171     1.0000 0.64530  0.34187  0.76209  Biso   1.000  H
  H172     1.0000 0.74702  0.30461  0.78972  Biso   1.000  H
  C99      1.0000 0.65931  0.12151  0.83518  Biso   1.000  C
  H173     1.0000 0.73889  0.20971  0.86728  Biso   1.000  H
  H174     1.0000 0.75158  0.18149  0.80279  Biso   1.000  H
  C100     1.0000 0.10981  0.24359  0.69120  Biso   1.000  C
  C101     1.0000 0.10882  0.18648  0.65622  Biso   1.000  C
  H175     1.0000 0.20923  0.15431  0.60869  Biso   1.000  H
  N27      1.0000 0.59638  0.36178  0.86810  Biso   1.000  N
  H176     1.0000 0.73081  0.38932  0.86051  Biso   1.000  H
  H177     1.0000 0.73192  0.31630  0.89299  Biso   1.000  H
  N28      1.0000 0.58650  0.13139  0.87219  Biso   1.000  N
  H178     1.0000 0.71082  0.09002  0.85858  Biso   1.000  H
  H179     1.0000 0.62618  0.10051  0.79400  Biso   1.000  H
  C102     1.0000 0.04188  0.27571  0.72210  Biso   1.000  C
  H180     1.0000 0.06092  0.15202  0.64858  Biso   1.000  H
  C103     1.0000 0.60359  0.41172  0.92260  Biso   1.000  C
  H181     1.0000 0.55689  0.38101  0.83191  Biso   1.000  H
  H182     1.0000 0.56854  0.32171  0.87502  Biso   1.000  H
  C104     1.0000 0.56478  0.06710  0.90299  Biso   1.000  C
  H183     1.0000 0.61029  0.16330  0.90309  Biso   1.000  H
  H184     1.0000 0.52982  0.14791  0.84561  Biso   1.000  H
  N29      1.0000 0.06429  0.25560  0.79159  Biso   1.000  N
  H185     1.0000 0.04461  0.32592  0.71932  Biso   1.000  H
  H186     1.0000 0.97513  0.26132  0.69980  Biso   1.000  H
  C105     1.0000 0.50694  0.44078  0.92072  Biso   1.000  C
  H187     1.0000 0.64843  0.44920  0.92120  Biso   1.000  H
  H188     1.0000 0.63096  0.38662  0.96258  Biso   1.000  H
  C106     1.0000 0.51572  0.08051  0.95292  Biso   1.000  C
  H189     1.0000 0.62648  0.04329  0.92269  Biso   1.000  H
  H190     1.0000 0.52450  0.03711  0.86969  Biso   1.000  H
  H191     1.0000 0.07641  0.20971  0.79582  Biso   1.000  H
  H192     1.0000 0.11869  0.27821  0.81471  Biso   1.000  H
  C107     1.0000 0.98034  0.27161  0.81572  Biso   1.000  C
  O11      1.0000 0.46081  0.41089  0.96152  Biso   1.000  O
  C108     1.0000 0.45100  0.49150  0.88699  Biso   1.000  C
  O12      1.0000 0.41493  0.07749  0.93351  Biso   1.000  O
  C109     1.0000 0.55001  0.09142  0.01592  Biso   1.000  C
  C110     1.0000 0.99168  0.23980  0.88218  Biso   1.000  C
  H193     1.0000 0.91941  0.25638  0.78491  Biso   1.000  H
  H194     1.0000 0.97691  0.32160  0.81990  Biso   1.000  H
  C111     1.0000 0.37299  0.44722  0.95249  Biso   1.000  C
  C112     1.0000 0.36627  0.49618  0.90818  Biso   1.000  C
  H195     1.0000 0.46648  0.51848  0.85589  Biso   1.000  H
  C113     1.0000 0.38692  0.08690  0.98858  Biso   1.000  C
  C114     1.0000 0.46742  0.09630  0.03841  Biso   1.000  C
  H196     1.0000 0.61572  0.09610  0.03981  Biso   1.000  H
  N30      1.0000 0.07911  0.26438  0.93288  Biso   1.000  N
  H197     1.0000 0.93341  0.25071  0.89482  Biso   1.000  H
  H198     1.0000 0.99496  0.18970  0.87829  Biso   1.000  H
  C115     1.0000 0.30960  0.42830  0.99151  Biso   1.000  C
  H199     1.0000 0.31438  0.52742  0.89381  Biso   1.000  H
  C116     1.0000 0.28000  0.07973  0.98022  Biso   1.000  C
  H200     1.0000 0.46759  0.10358  0.08070  Biso   1.000  H
  C117     1.0000 0.06227  0.33730  0.95052  Biso   1.000  C
  C118     1.0000 0.09327  0.21818  0.98858  Biso   1.000  C
  N31      1.0000 0.23001  0.37831  0.95970  Biso   1.000  N
  H201     1.0000 0.34968  0.40778  0.03130  Biso   1.000  H
  H202     1.0000 0.27954  0.47009  0.00203  Biso   1.000  H
  N32      1.0000 0.22922  0.14932  0.97152  Biso   1.000  N
  H203     1.0000 0.24972  0.05078  0.94312  Biso   1.000  H
  H204     1.0000 0.27099  0.05712  0.01780  Biso   1.000  H
  C119     1.0000 0.15190  0.37259  0.99262  Biso   1.000  C
  H205     1.0000 0.03698  0.36412  0.91140  Biso   1.000  H
  H206     1.0000 0.01233  0.33631  0.97262  Biso   1.000  H
  C120     1.0000 0.12982  0.14511  0.98180  Biso   1.000  C
  H207     1.0000 0.03176  0.21558  0.99920  Biso   1.000  H
  H208     1.0000 0.14170  0.23938  0.02481  Biso   1.000  H
  H209     1.0000 0.25749  0.33642  0.95830  Biso   1.000  H
  H210     1.0000 0.20266  0.39270  0.91899  Biso   1.000  H
  H211     1.0000 0.22298  0.16480  0.93149  Biso   1.000  H
  H212     1.0000 0.26801  0.17941  0.99939  Biso   1.000  H
  H213     1.0000 0.17704  0.34510  0.03140  Biso   1.000  H
  H214     1.0000 0.13532  0.41822  0.00511  Biso   1.000  H
  H215     1.0000 0.08287  0.12312  0.94528  Biso   1.000  H
  H216     1.0000 0.13279  0.11808  0.01991  Biso   1.000  H
  Ne1      1.0000 0.85569  0.24482  0.36014  Biso   1.000  Ne
  He1      1.0000 0.96489  0.25165  0.46690  Biso   1.000  He
  He2      1.0000 0.83573  0.42284  0.26655  Biso   1.000  He
  He3      1.0000 0.70016  0.09175  0.28951  Biso   1.000  He
  Ar1      1.0000 0.85474  0.24642  0.36103  Biso   1.000  Ar
  Ne2      1.0000 0.64431  0.74482  0.13986  Biso   1.000  Ne
  He4      1.0000 0.71948  0.58384  0.23169  Biso   1.000  He
  He5      1.0000 0.66880  0.92879  0.23474  Biso   1.000  He
  He6      1.0000 0.55709  0.72522  0.95169  Biso   1.000  He
  Ar2      1.0000 0.64523  0.74635  0.13893  Biso   1.000  Ar
  Ne3      1.0000 0.35570  0.25518  0.86014  Biso   1.000  Ne
  He7      1.0000 0.46393  0.24810  0.96595  Biso   1.000  He
  He8      1.0000 0.30153  0.16594  0.80536  Biso   1.000  He
  He9      1.0000 0.33867  0.40008  0.75748  Biso   1.000  He
  Ar3      1.0000 0.35478  0.25366  0.86110  Biso   1.000  Ar
  Ne4      1.0000 0.14430  0.75518  0.63986  Biso   1.000  Ne
  He10     1.0000 0.17750  0.55967  0.73724  Biso   1.000  He
  He11     1.0000 0.18745  0.92511  0.75815  Biso   1.000  He
  He12     1.0000 0.05631  0.77491  0.45112  Biso   1.000  He
  Ar4      1.0000 0.14523  0.75358  0.63894  Biso   1.000  Ar
