data_image0
_cell_length_a       9.605
_cell_length_b       29.689
_cell_length_c       10.963
_cell_angle_alpha    90
_cell_angle_beta     112.81
_cell_angle_gamma    90

_symmetry_space_group_name_H-M    "P 1"
_symmetry_int_tables_number       1

loop_
  _symmetry_equiv_pos_as_xyz
  'x, y, z'

loop_
  _atom_site_label
  _atom_site_occupancy
  _atom_site_fract_x
  _atom_site_fract_y
  _atom_site_fract_z
  _atom_site_thermal_displace_type
  _atom_site_B_iso_or_equiv
  _atom_site_type_symbol
  C1       1.0000 0.69539  0.49928  0.66309  Biso   1.000  C
  N1       1.0000 0.64969  0.54259  0.70475  Biso   1.000  N
  C2       1.0000 0.78849  0.50739  0.58245  Biso   1.000  C
  H1       1.0000 0.75451  0.48129  0.74236  Biso   1.000  H
  H2       1.0000 0.60393  0.48179  0.61006  Biso   1.000  H
  H3       1.0000 0.61299  0.55809  0.63499  Biso   1.000  H
  C3       1.0000 0.52473  0.53575  0.75364  Biso   1.000  C
  C4       1.0000 0.78158  0.56876  0.80282  Biso   1.000  C
  O1       1.0000 0.70682  0.53929  0.48399  Biso   1.000  O
  H4       1.0000 0.80246  0.47900  0.54108  Biso   1.000  H
  H5       1.0000 0.88903  0.51938  0.63885  Biso   1.000  H
  H6       1.0000 0.56825  0.52450  0.84586  Biso   1.000  H
  H7       1.0000 0.45412  0.51258  0.69852  Biso   1.000  H
  C5       1.0000 0.43941  0.57833  0.74928  Biso   1.000  C
  C6       1.0000 0.82243  0.60844  0.73820  Biso   1.000  C
  H8       1.0000 0.87016  0.54859  0.84042  Biso   1.000  H
  H9       1.0000 0.75471  0.57951  0.87644  Biso   1.000  H
  C7       1.0000 0.78345  0.55165  0.40166  Biso   1.000  C
  O2       1.0000 0.36009  0.58948  0.61144  Biso   1.000  O
  H10      1.0000 0.50986  0.60288  0.79579  Biso   1.000  H
  H11      1.0000 0.36694  0.57388  0.79233  Biso   1.000  H
  O3       1.0000 0.68557  0.63212  0.66725  Biso   1.000  O
  H12      1.0000 0.86929  0.59810  0.67705  Biso   1.000  H
  H13      1.0000 0.89486  0.62818  0.80589  Biso   1.000  H
  C8       1.0000 0.71011  0.59285  0.32437  Biso   1.000  C
  H14      1.0000 0.89085  0.55788  0.45638  Biso   1.000  H
  H15      1.0000 0.77884  0.52669  0.34040  Biso   1.000  H
  C9       1.0000 0.26136  0.62471  0.58571  Biso   1.000  C
  C10      1.0000 0.71109  0.67709  0.63598  Biso   1.000  C
  O4       1.0000 0.55269  0.58405  0.24838  Biso   1.000  O
  H16      1.0000 0.76072  0.60130  0.26441  Biso   1.000  H
  H17      1.0000 0.72039  0.61828  0.38573  Biso   1.000  H
  C11      1.0000 0.23866  0.65048  0.68170  Biso   1.000  C
  C12      1.0000 0.17506  0.63394  0.45163  Biso   1.000  C
  C13      1.0000 0.56525  0.69847  0.54969  Biso   1.000  C
  H18      1.0000 0.75795  0.69470  0.71861  Biso   1.000  H
  H19      1.0000 0.78153  0.67698  0.58977  Biso   1.000  H
  C14      1.0000 0.49956  0.60106  0.11677  Biso   1.000  C
  H20      1.0000 0.29717  0.64489  0.77254  Biso   1.000  H
  C15      1.0000 0.12853  0.68507  0.64528  Biso   1.000  C
  O5       1.0000 0.20574  0.60703  0.36356  Biso   1.000  O
  C16      1.0000 0.06808  0.66850  0.41739  Biso   1.000  C
  O6       1.0000 0.52249  0.68271  0.41729  Biso   1.000  O
  H21      1.0000 0.57667  0.73169  0.55197  Biso   1.000  H
  H22      1.0000 0.48561  0.69090  0.58264  Biso   1.000  H
  C17      1.0000 0.34011  0.61710  0.07946  Biso   1.000  C
  H23      1.0000 0.56445  0.62629  0.11142  Biso   1.000  H
  H24      1.0000 0.50304  0.57708  0.05522  Biso   1.000  H
  C18      1.0000 0.04526  0.69335  0.51427  Biso   1.000  C
  C19      1.0000 0.10008  0.71063  0.74780  Biso   1.000  C
  C20      1.0000 0.11518  0.61316  0.22572  Biso   1.000  C
  H25      1.0000 0.01069  0.67490  0.32675  Biso   1.000  H
  C21      1.0000 0.43526  0.71444  0.32061  Biso   1.000  C
  N2       1.0000 0.32736  0.64788  0.18336  Biso   1.000  N
  H26      1.0000 0.27279  0.59079  0.06828  Biso   1.000  H
  H27      1.0000 0.30692  0.63330  0.99386  Biso   1.000  H
  H28      1.0000 0.97108  0.71649  0.48992  Biso   1.000  H
  O7       1.0000 0.16056  0.70396  0.86684  Biso   1.000  O
  H29      1.0000 0.02849  0.73438  0.71920  Biso   1.000  H
  H30      1.0000 0.12052  0.58560  0.17683  Biso   1.000  H
  H31      1.0000 0.00852  0.61760  0.21384  Biso   1.000  H
  C22      1.0000 0.16593  0.65280  0.16842  Biso   1.000  C
  C23      1.0000 0.39962  0.69298  0.18762  Biso   1.000  C
  H32      1.0000 0.34095  0.72168  0.33288  Biso   1.000  H
  H33      1.0000 0.49324  0.74260  0.32813  Biso   1.000  H
  H34      1.0000 0.37299  0.63529  0.24600  Biso   1.000  H
  H35      1.0000 0.10047  0.65570  0.07342  Biso   1.000  H
  H36      1.0000 0.15498  0.68059  0.21354  Biso   1.000  H
  H37      1.0000 0.49367  0.68918  0.17169  Biso   1.000  H
  H38      1.0000 0.33024  0.71259  0.11716  Biso   1.000  H
  C24      1.0000 0.30459  0.50072  0.33684  Biso   1.000  C
  N3       1.0000 0.35029  0.45737  0.29518  Biso   1.000  N
  C25      1.0000 0.21149  0.49261  0.41749  Biso   1.000  C
  H39      1.0000 0.24547  0.51868  0.25758  Biso   1.000  H
  H40      1.0000 0.39605  0.51821  0.38988  Biso   1.000  H
  C26      1.0000 0.21840  0.43120  0.19712  Biso   1.000  C
  H41      1.0000 0.38699  0.44188  0.36494  Biso   1.000  H
  C27      1.0000 0.47525  0.46425  0.24630  Biso   1.000  C
  O8       1.0000 0.29316  0.46071  0.51595  Biso   1.000  O
  H42      1.0000 0.19752  0.52100  0.45885  Biso   1.000  H
  H43      1.0000 0.11095  0.48058  0.36109  Biso   1.000  H
  C28      1.0000 0.17760  0.39156  0.26183  Biso   1.000  C
  H44      1.0000 0.12982  0.45138  0.15951  Biso   1.000  H
  H45      1.0000 0.24528  0.42049  0.12350  Biso   1.000  H
  H46      1.0000 0.43174  0.47550  0.15407  Biso   1.000  H
  H47      1.0000 0.54587  0.48739  0.30142  Biso   1.000  H
  C29      1.0000 0.56057  0.42164  0.25065  Biso   1.000  C
  C30      1.0000 0.21653  0.44835  0.59828  Biso   1.000  C
  O9       1.0000 0.31441  0.36788  0.33269  Biso   1.000  O
  H48      1.0000 0.13069  0.40190  0.32289  Biso   1.000  H
  H49      1.0000 0.10513  0.37179  0.19405  Biso   1.000  H
  O10      1.0000 0.63989  0.41049  0.38850  Biso   1.000  O
  H50      1.0000 0.49012  0.39708  0.20414  Biso   1.000  H
  H51      1.0000 0.63304  0.42608  0.20761  Biso   1.000  H
  C31      1.0000 0.28987  0.40715  0.67556  Biso   1.000  C
  H52      1.0000 0.10913  0.44208  0.54356  Biso   1.000  H
  H53      1.0000 0.22114  0.47331  0.65953  Biso   1.000  H
  C32      1.0000 0.28890  0.32291  0.36396  Biso   1.000  C
  C33      1.0000 0.73867  0.37529  0.41432  Biso   1.000  C
  O11      1.0000 0.44729  0.41595  0.75156  Biso   1.000  O
  H54      1.0000 0.23926  0.39870  0.73553  Biso   1.000  H
  H55      1.0000 0.27963  0.38169  0.61431  Biso   1.000  H
  C34      1.0000 0.43473  0.30149  0.45024  Biso   1.000  C
  H56      1.0000 0.24207  0.30530  0.28143  Biso   1.000  H
  H57      1.0000 0.21845  0.32298  0.41017  Biso   1.000  H
  C35      1.0000 0.76133  0.34952  0.31824  Biso   1.000  C
  C36      1.0000 0.82496  0.36603  0.54841  Biso   1.000  C
  C37      1.0000 0.50042  0.39890  0.88317  Biso   1.000  C
  O12      1.0000 0.47749  0.31729  0.58264  Biso   1.000  O
  H58      1.0000 0.42331  0.26828  0.44797  Biso   1.000  H
  H59      1.0000 0.51437  0.30910  0.41729  Biso   1.000  H
  H60      1.0000 0.70281  0.35508  0.22740  Biso   1.000  H
  C38      1.0000 0.87145  0.31493  0.35465  Biso   1.000  C
  O13      1.0000 0.79424  0.39297  0.63638  Biso   1.000  O
  C39      1.0000 0.93190  0.33150  0.58255  Biso   1.000  C
  C40      1.0000 0.65988  0.38287  0.92048  Biso   1.000  C
  H61      1.0000 0.43553  0.37371  0.88851  Biso   1.000  H
  H62      1.0000 0.49694  0.42288  0.94472  Biso   1.000  H
  C41      1.0000 0.56473  0.28553  0.67932  Biso   1.000  C
  C42      1.0000 0.95473  0.30661  0.48567  Biso   1.000  C
  C43      1.0000 0.89995  0.28937  0.25224  Biso   1.000  C
  C44      1.0000 0.88480  0.38684  0.77422  Biso   1.000  C
  H63      1.0000 0.98929  0.32510  0.67319  Biso   1.000  H
  N4       1.0000 0.67262  0.35208  0.81657  Biso   1.000  N
  H64      1.0000 0.72719  0.40921  0.93166  Biso   1.000  H
  H65      1.0000 0.69311  0.36670  0.00617  Biso   1.000  H
  C45      1.0000 0.60036  0.30702  0.81232  Biso   1.000  C
  H66      1.0000 0.65904  0.27828  0.66705  Biso   1.000  H
  H67      1.0000 0.50678  0.25740  0.67190  Biso   1.000  H
  H68      1.0000 0.02895  0.28351  0.51011  Biso   1.000  H
  O14      1.0000 0.83942  0.29600  0.13309  Biso   1.000  O
  H69      1.0000 0.97153  0.26559  0.28083  Biso   1.000  H
  C46      1.0000 0.83405  0.34720  0.83152  Biso   1.000  C
  H70      1.0000 0.87951  0.41440  0.82320  Biso   1.000  H
  H71      1.0000 0.99146  0.38240  0.78610  Biso   1.000  H
  H72      1.0000 0.62700  0.36468  0.75394  Biso   1.000  H
  H73      1.0000 0.50631  0.31079  0.82825  Biso   1.000  H
  H74      1.0000 0.66974  0.28741  0.88277  Biso   1.000  H
  H75      1.0000 0.89951  0.34430  0.92651  Biso   1.000  H
  H76      1.0000 0.84500  0.31941  0.78639  Biso   1.000  H
  C47      1.0000 0.56465  0.21446  0.17940  Biso   1.000  C
  O15      1.0000 0.47752  0.18269  0.08273  Biso   1.000  O
  C48      1.0000 0.60039  0.19297  0.31240  Biso   1.000  C
  H77      1.0000 0.65896  0.22170  0.16713  Biso   1.000  H
  H78      1.0000 0.50677  0.24258  0.17188  Biso   1.000  H
  C49      1.0000 0.43482  0.19849  0.95023  Biso   1.000  C
  N5       1.0000 0.67261  0.14790  0.31656  Biso   1.000  N
  H79      1.0000 0.50634  0.18919  0.32833  Biso   1.000  H
  H80      1.0000 0.66973  0.21260  0.38276  Biso   1.000  H
  H81      1.0000 0.42330  0.23170  0.94795  Biso   1.000  H
  H82      1.0000 0.51431  0.19091  0.91717  Biso   1.000  H
  C50      1.0000 0.28888  0.17707  0.86394  Biso   1.000  C
  H83      1.0000 0.62703  0.13530  0.25402  Biso   1.000  H
  C51      1.0000 0.83408  0.15278  0.33160  Biso   1.000  C
  C52      1.0000 0.65986  0.11711  0.42046  Biso   1.000  C
  O16      1.0000 0.31440  0.13210  0.83267  Biso   1.000  O
  H84      1.0000 0.24201  0.19468  0.78131  Biso   1.000  H
  H85      1.0000 0.21844  0.17700  0.91015  Biso   1.000  H
  C53      1.0000 0.88483  0.11314  0.27430  Biso   1.000  C
  H86      1.0000 0.89954  0.15571  0.42659  Biso   1.000  H
  H87      1.0000 0.84499  0.18061  0.28637  Biso   1.000  H
  H88      1.0000 0.69305  0.13328  0.50605  Biso   1.000  H
  H89      1.0000 0.72717  0.09081  0.43164  Biso   1.000  H
  C54      1.0000 0.50041  0.10108  0.38315  Biso   1.000  C
  C55      1.0000 0.17754  0.10842  0.76172  Biso   1.000  C
  O17      1.0000 0.79423  0.10704  0.13636  Biso   1.000  O
  H90      1.0000 0.87950  0.08559  0.32319  Biso   1.000  H
  H91      1.0000 0.99145  0.11759  0.28608  Biso   1.000  H
  O18      1.0000 0.44728  0.08404  0.25154  Biso   1.000  O
  H92      1.0000 0.43556  0.12631  0.38859  Biso   1.000  H
  H93      1.0000 0.49698  0.07710  0.44480  Biso   1.000  H
  H94      1.0000 0.13068  0.09808  0.82287  Biso   1.000  H
  H95      1.0000 0.10511  0.12820  0.69403  Biso   1.000  H
  C56      1.0000 0.21835  0.06878  0.69700  Biso   1.000  C
  C57      1.0000 0.82495  0.13396  0.04839  Biso   1.000  C
  C58      1.0000 0.28986  0.09283  0.17555  Biso   1.000  C
  N6       1.0000 0.35028  0.04261  0.79516  Biso   1.000  N
  H96      1.0000 0.12977  0.04860  0.65940  Biso   1.000  H
  H97      1.0000 0.24526  0.07949  0.62348  Biso   1.000  H
  C59      1.0000 0.93193  0.16848  0.08263  Biso   1.000  C
  C60      1.0000 0.73861  0.12473  0.91421  Biso   1.000  C
  H98      1.0000 0.23929  0.10128  0.23561  Biso   1.000  H
  H99      1.0000 0.27962  0.11829  0.11429  Biso   1.000  H
  C61      1.0000 0.21651  0.05164  0.09826  Biso   1.000  C
  C62      1.0000 0.30458  0.99926  0.83682  Biso   1.000  C
  H100     1.0000 0.38698  0.05810  0.86493  Biso   1.000  H
  C63      1.0000 0.47530  0.03574  0.74618  Biso   1.000  C
  H101     1.0000 0.98928  0.17491  0.17317  Biso   1.000  H
  C64      1.0000 0.95471  0.19337  0.98565  Biso   1.000  C
  O19      1.0000 0.63983  0.08949  0.88838  Biso   1.000  O
  C65      1.0000 0.76131  0.15046  0.81822  Biso   1.000  C
  O20      1.0000 0.29319  0.03927  0.01603  Biso   1.000  O
  H102     1.0000 0.10916  0.05790  0.04364  Biso   1.000  H
  H103     1.0000 0.22117  0.02671  0.15961  Biso   1.000  H
  H104     1.0000 0.24546  0.98127  0.75756  Biso   1.000  H
  H105     1.0000 0.39603  0.98178  0.88986  Biso   1.000  H
  C66      1.0000 0.21148  0.00738  0.91747  Biso   1.000  C
  H106     1.0000 0.43172  0.02449  0.65405  Biso   1.000  H
  H107     1.0000 0.54581  0.01260  0.80130  Biso   1.000  H
  C67      1.0000 0.56056  0.07835  0.75063  Biso   1.000  C
  C68      1.0000 0.87144  0.18505  0.85464  Biso   1.000  C
  H108     1.0000 0.02893  0.21651  0.01009  Biso   1.000  H
  H109     1.0000 0.70279  0.14490  0.72738  Biso   1.000  H
  H110     1.0000 0.19751  0.97898  0.95883  Biso   1.000  H
  H111     1.0000 0.11093  0.01940  0.86107  Biso   1.000  H
  H112     1.0000 0.49021  0.10290  0.70413  Biso   1.000  H
  H113     1.0000 0.63298  0.07390  0.70749  Biso   1.000  H
  C69      1.0000 0.89989  0.21065  0.75212  Biso   1.000  C
  O21      1.0000 0.83941  0.20398  0.63308  Biso   1.000  O
  H114     1.0000 0.97148  0.23440  0.78072  Biso   1.000  H
  C70      1.0000 0.43533  0.78554  0.82053  Biso   1.000  C
  O22      1.0000 0.52246  0.81727  0.91721  Biso   1.000  O
  C71      1.0000 0.39959  0.80700  0.68754  Biso   1.000  C
  H115     1.0000 0.34106  0.77830  0.83290  Biso   1.000  H
  H116     1.0000 0.49321  0.75738  0.82805  Biso   1.000  H
  C72      1.0000 0.56516  0.80151  0.04971  Biso   1.000  C
  N7       1.0000 0.32737  0.85210  0.68338  Biso   1.000  N
  H117     1.0000 0.49368  0.81081  0.67170  Biso   1.000  H
  H118     1.0000 0.33025  0.78740  0.61718  Biso   1.000  H
  H119     1.0000 0.57668  0.76830  0.05199  Biso   1.000  H
  H120     1.0000 0.48567  0.80909  0.08276  Biso   1.000  H
  C73      1.0000 0.71110  0.82290  0.13600  Biso   1.000  C
  H121     1.0000 0.37295  0.86470  0.74592  Biso   1.000  H
  C74      1.0000 0.16590  0.84718  0.66834  Biso   1.000  C
  C75      1.0000 0.34012  0.88285  0.57948  Biso   1.000  C
  O23      1.0000 0.68562  0.86786  0.16737  Biso   1.000  O
  H122     1.0000 0.75797  0.80528  0.21863  Biso   1.000  H
  H123     1.0000 0.78154  0.82300  0.08979  Biso   1.000  H
  C76      1.0000 0.11515  0.88683  0.72563  Biso   1.000  C
  H124     1.0000 0.10044  0.84429  0.57334  Biso   1.000  H
  H125     1.0000 0.15499  0.81939  0.71356  Biso   1.000  H
  H126     1.0000 0.30693  0.86668  0.49388  Biso   1.000  H
  H127     1.0000 0.27281  0.90919  0.56830  Biso   1.000  H
  C77      1.0000 0.49957  0.89892  0.61678  Biso   1.000  C
  C78      1.0000 0.82244  0.89154  0.23822  Biso   1.000  C
  O24      1.0000 0.20576  0.89296  0.86358  Biso   1.000  O
  H128     1.0000 0.12048  0.91438  0.67675  Biso   1.000  H
  H129     1.0000 0.00853  0.88238  0.71386  Biso   1.000  H
  O25      1.0000 0.55271  0.91593  0.74839  Biso   1.000  O
  H130     1.0000 0.56442  0.87369  0.61134  Biso   1.000  H
  H131     1.0000 0.50301  0.92290  0.55514  Biso   1.000  H
  H132     1.0000 0.86935  0.90188  0.17716  Biso   1.000  H
  H133     1.0000 0.89487  0.87180  0.30590  Biso   1.000  H
  C79      1.0000 0.78163  0.93122  0.30294  Biso   1.000  C
  C80      1.0000 0.17503  0.86604  0.95155  Biso   1.000  C
  C81      1.0000 0.71012  0.90714  0.82439  Biso   1.000  C
  N8       1.0000 0.64975  0.95739  0.20487  Biso   1.000  N
  H134     1.0000 0.87022  0.95140  0.34054  Biso   1.000  H
  H135     1.0000 0.75476  0.92048  0.37656  Biso   1.000  H
  C82      1.0000 0.06805  0.83149  0.91731  Biso   1.000  C
  C83      1.0000 0.26137  0.87527  0.08573  Biso   1.000  C
  H136     1.0000 0.76069  0.89868  0.76433  Biso   1.000  H
  H137     1.0000 0.72036  0.88167  0.88564  Biso   1.000  H
  C84      1.0000 0.78347  0.94833  0.90167  Biso   1.000  C
  H138     1.0000 0.61300  0.94190  0.13501  Biso   1.000  H
  C85      1.0000 0.52468  0.96423  0.25375  Biso   1.000  C
  C86      1.0000 0.69540  0.00074  0.16311  Biso   1.000  C
  H139     1.0000 0.01071  0.82509  0.82677  Biso   1.000  H
  C87      1.0000 0.04531  0.80663  0.01438  Biso   1.000  C
  O26      1.0000 0.36015  0.91047  0.11156  Biso   1.000  O
  C88      1.0000 0.23867  0.84951  0.18172  Biso   1.000  C
  O27      1.0000 0.70683  0.96069  0.98400  Biso   1.000  O
  H140     1.0000 0.89087  0.94210  0.95640  Biso   1.000  H
  H141     1.0000 0.77881  0.97329  0.84032  Biso   1.000  H
  H142     1.0000 0.56826  0.97548  0.34588  Biso   1.000  H
  H143     1.0000 0.45417  0.98740  0.19864  Biso   1.000  H
  C89      1.0000 0.43942  0.92165  0.24930  Biso   1.000  C
  C90      1.0000 0.78855  0.99259  0.08256  Biso   1.000  C
  H144     1.0000 0.75453  0.01869  0.24238  Biso   1.000  H
  H145     1.0000 0.60399  0.01819  0.11017  Biso   1.000  H
  H146     1.0000 0.97105  0.78349  0.98984  Biso   1.000  H
  C91      1.0000 0.12854  0.81491  0.14530  Biso   1.000  C
  H147     1.0000 0.29723  0.85510  0.27266  Biso   1.000  H
  H148     1.0000 0.50977  0.89710  0.29581  Biso   1.000  H
  H149     1.0000 0.36700  0.92610  0.29245  Biso   1.000  H
  H150     1.0000 0.88909  0.98060  0.13897  Biso   1.000  H
  H151     1.0000 0.80248  0.02098  0.04110  Biso   1.000  H
  C92      1.0000 0.10009  0.78935  0.24782  Biso   1.000  C
  O28      1.0000 0.16062  0.79599  0.36696  Biso   1.000  O
  H152     1.0000 0.02851  0.76560  0.21922  Biso   1.000  H
