data_image0
_cell_length_a       20.343
_cell_length_b       11.634
_cell_length_c       18.425
_cell_angle_alpha    90
_cell_angle_beta     105.93
_cell_angle_gamma    90

_symmetry_space_group_name_H-M    "P 1"
_symmetry_int_tables_number       1

loop_
  _symmetry_equiv_pos_as_xyz
  'x, y, z'

loop_
  _atom_site_label
  _atom_site_occupancy
  _atom_site_fract_x
  _atom_site_fract_y
  _atom_site_fract_z
  _atom_site_thermal_displace_type
  _atom_site_B_iso_or_equiv
  _atom_site_type_symbol
  S1       1.0000 0.46176  0.33024  0.48263  Biso   1.000  S
  C1       1.0000 0.40546  0.40493  0.40305  Biso   1.000  C
  C2       1.0000 0.40326  0.27316  0.52609  Biso   1.000  C
  C3       1.0000 0.36207  0.49510  0.42546  Biso   1.000  C
  H1       1.0000 0.37601  0.34700  0.37201  Biso   1.000  H
  H2       1.0000 0.43999  0.43596  0.37901  Biso   1.000  H
  C4       1.0000 0.40768  0.28253  0.60026  Biso   1.000  C
  S2       1.0000 0.33575  0.18790  0.47146  Biso   1.000  S
  C5       1.0000 0.30604  0.54177  0.35886  Biso   1.000  C
  H3       1.0000 0.38902  0.56103  0.45102  Biso   1.000  H
  H4       1.0000 0.33698  0.45900  0.46197  Biso   1.000  H
  S3       1.0000 0.34524  0.20878  0.63164  Biso   1.000  S
  S4       1.0000 0.47432  0.35130  0.66562  Biso   1.000  S
  C6       1.0000 0.29084  0.19340  0.54015  Biso   1.000  C
  C7       1.0000 0.33320  0.61217  0.30399  Biso   1.000  C
  H5       1.0000 0.27999  0.59498  0.38200  Biso   1.000  H
  H6       1.0000 0.27699  0.48100  0.33001  Biso   1.000  H
  C8       1.0000 0.43066  0.43949  0.71957  Biso   1.000  C
  C9       1.0000 0.22338  0.19108  0.52468  Biso   1.000  C
  S5       1.0000 0.26509  0.68669  0.23485  Biso   1.000  S
  H7       1.0000 0.35303  0.56799  0.27301  Biso   1.000  H
  H8       1.0000 0.36799  0.67200  0.33498  Biso   1.000  H
  C10      1.0000 0.37221  0.51349  0.67369  Biso   1.000  C
  H9       1.0000 0.46101  0.49802  0.74102  Biso   1.000  H
  H10      1.0000 0.41300  0.38602  0.74700  Biso   1.000  H
  S6       1.0000 0.17765  0.21248  0.59145  Biso   1.000  S
  S7       1.0000 0.16957  0.17096  0.43319  Biso   1.000  S
  C11      1.0000 0.23155  0.76964  0.29513  Biso   1.000  C
  C12      1.0000 0.39103  0.59911  0.62029  Biso   1.000  C
  H11      1.0000 0.33901  0.45298  0.64298  Biso   1.000  H
  H12      1.0000 0.36098  0.56601  0.70902  Biso   1.000  H
  C13      1.0000 0.10666  0.27213  0.52361  Biso   1.000  C
  C14      1.0000 0.10295  0.25357  0.45074  Biso   1.000  C
  C15      1.0000 0.16584  0.76827  0.29615  Biso   1.000  C
  S8       1.0000 0.28587  0.86780  0.35564  Biso   1.000  S
  C16      1.0000 0.43052  0.70311  0.65613  Biso   1.000  C
  H13      1.0000 0.42200  0.55200  0.59399  Biso   1.000  H
  H14      1.0000 0.34500  0.62902  0.58699  Biso   1.000  H
  S9       1.0000 0.04608  0.34554  0.55674  Biso   1.000  S
  S10      1.0000 0.03573  0.29474  0.37432  Biso   1.000  S
  S11      1.0000 0.10191  0.68558  0.23790  Biso   1.000  S
  S12      1.0000 0.14391  0.86918  0.35784  Biso   1.000  S
  C17      1.0000 0.22945  0.88310  0.41106  Biso   1.000  C
  S13      1.0000 0.38386  0.80256  0.69999  Biso   1.000  S
  H15      1.0000 0.44701  0.74299  0.62103  Biso   1.000  H
  H16      1.0000 0.47100  0.67303  0.69598  Biso   1.000  H
  C18      1.0000 0.09990  0.45221  0.61741  Biso   1.000  C
  C19      1.0000 0.07982  0.35173  0.30885  Biso   1.000  C
  C20      1.0000 0.05926  0.62782  0.30484  Biso   1.000  C
  C21      1.0000 0.24879  0.88998  0.48686  Biso   1.000  C
  C22      1.0000 0.31605  0.84287  0.62340  Biso   1.000  C
  C23      1.0000 0.13650  0.52381  0.57520  Biso   1.000  C
  H17      1.0000 0.06702  0.49304  0.63502  Biso   1.000  H
  H18      1.0000 0.14101  0.43399  0.66099  Biso   1.000  H
  C24      1.0000 0.13162  0.44576  0.33983  Biso   1.000  C
  H19      1.0000 0.10799  0.28503  0.29502  Biso   1.000  H
  H20      1.0000 0.04299  0.38104  0.27002  Biso   1.000  H
  C25      1.0000 0.10392  0.55372  0.36625  Biso   1.000  C
  H21      1.0000 0.02599  0.58097  0.27402  Biso   1.000  H
  H22      1.0000 0.04098  0.69297  0.33097  Biso   1.000  H
  S14      1.0000 0.33450  0.88972  0.54037  Biso   1.000  S
  S15      1.0000 0.19155  0.89840  0.54195  Biso   1.000  S
  C26      1.0000 0.25072  0.84820  0.62458  Biso   1.000  C
  C27      1.0000 0.19048  0.60289  0.62803  Biso   1.000  C
  H23      1.0000 0.16598  0.47198  0.55200  Biso   1.000  H
  H24      1.0000 0.10198  0.57598  0.53699  Biso   1.000  H
  H25      1.0000 0.15500  0.46304  0.30100  Biso   1.000  H
  H26      1.0000 0.16598  0.41396  0.37901  Biso   1.000  H
  H27      1.0000 0.14400  0.60100  0.39498  Biso   1.000  H
  H28      1.0000 0.07099  0.52802  0.40401  Biso   1.000  H
  S16      1.0000 0.21993  0.81520  0.70163  Biso   1.000  S
  C28      1.0000 0.15751  0.70449  0.65912  Biso   1.000  C
  H29      1.0000 0.20399  0.58501  0.68198  Biso   1.000  H
  H30      1.0000 0.22501  0.63100  0.60500  Biso   1.000  H
  H31      1.0000 0.13503  0.68798  0.69801  Biso   1.000  H
  H32      1.0000 0.12502  0.73603  0.62001  Biso   1.000  H
  S17      1.0000 0.53824  0.66976  0.51740  Biso   1.000  S
  C29      1.0000 0.59674  0.72684  0.47388  Biso   1.000  C
  C30      1.0000 0.59454  0.59507  0.59693  Biso   1.000  C
  C31      1.0000 0.59232  0.71747  0.39978  Biso   1.000  C
  S18      1.0000 0.66424  0.81210  0.52852  Biso   1.000  S
  C32      1.0000 0.63794  0.50490  0.57458  Biso   1.000  C
  H33      1.0000 0.62399  0.65300  0.62803  Biso   1.000  H
  H34      1.0000 0.56002  0.56404  0.62103  Biso   1.000  H
  S19      1.0000 0.52569  0.64870  0.33442  Biso   1.000  S
  S20      1.0000 0.65477  0.79122  0.36839  Biso   1.000  S
  C33      1.0000 0.70916  0.80660  0.45983  Biso   1.000  C
  C34      1.0000 0.69396  0.45823  0.64112  Biso   1.000  C
  H35      1.0000 0.61099  0.43897  0.54901  Biso   1.000  H
  H36      1.0000 0.66301  0.54100  0.53800  Biso   1.000  H
  C35      1.0000 0.56934  0.56051  0.28040  Biso   1.000  C
  C36      1.0000 0.77662  0.80892  0.47535  Biso   1.000  C
  C37      1.0000 0.66681  0.38783  0.69604  Biso   1.000  C
  H37      1.0000 0.72001  0.40502  0.61798  Biso   1.000  H
  H38      1.0000 0.72301  0.51900  0.67002  Biso   1.000  H
  C38      1.0000 0.62780  0.48651  0.32635  Biso   1.000  C
  H39      1.0000 0.53900  0.50198  0.25901  Biso   1.000  H
  H40      1.0000 0.58701  0.61398  0.25303  Biso   1.000  H
  S21      1.0000 0.82236  0.78752  0.40858  Biso   1.000  S
  S22      1.0000 0.83042  0.82904  0.56679  Biso   1.000  S
  S23      1.0000 0.73491  0.31331  0.76512  Biso   1.000  S
  H41      1.0000 0.64698  0.43201  0.72702  Biso   1.000  H
  H42      1.0000 0.63200  0.32800  0.66499  Biso   1.000  H
  C39      1.0000 0.60896  0.40089  0.37968  Biso   1.000  C
  H43      1.0000 0.66098  0.54702  0.35699  Biso   1.000  H
  H44      1.0000 0.63902  0.43399  0.29101  Biso   1.000  H
  C40      1.0000 0.89333  0.72787  0.47637  Biso   1.000  C
  C41      1.0000 0.89704  0.74643  0.54923  Biso   1.000  C
  C42      1.0000 0.76845  0.23036  0.70490  Biso   1.000  C
  C43      1.0000 0.56947  0.29689  0.34384  Biso   1.000  C
  H45      1.0000 0.57799  0.44800  0.40598  Biso   1.000  H
  H46      1.0000 0.65499  0.37098  0.41298  Biso   1.000  H
  S24      1.0000 0.95393  0.65446  0.44329  Biso   1.000  S
  S25      1.0000 0.96427  0.70526  0.62571  Biso   1.000  S
  S26      1.0000 0.71414  0.13220  0.64439  Biso   1.000  S
  C44      1.0000 0.83417  0.23173  0.70388  Biso   1.000  C
  S27      1.0000 0.61618  0.19744  0.29999  Biso   1.000  S
  H47      1.0000 0.55300  0.25701  0.37901  Biso   1.000  H
  H48      1.0000 0.52899  0.32697  0.30399  Biso   1.000  H
  C45      1.0000 0.90011  0.54779  0.38262  Biso   1.000  C
  C46      1.0000 0.92017  0.64827  0.69113  Biso   1.000  C
  C47      1.0000 0.77054  0.11690  0.58891  Biso   1.000  C
  S28      1.0000 0.85610  0.13082  0.64219  Biso   1.000  S
  S29      1.0000 0.89810  0.31442  0.76213  Biso   1.000  S
  C48      1.0000 0.68395  0.15713  0.37663  Biso   1.000  C
  C49      1.0000 0.86351  0.47619  0.42484  Biso   1.000  C
  H49      1.0000 0.93299  0.50696  0.36501  Biso   1.000  H
  H50      1.0000 0.85898  0.56601  0.33899  Biso   1.000  H
  C50      1.0000 0.86839  0.55424  0.66020  Biso   1.000  C
  H51      1.0000 0.89201  0.71497  0.70501  Biso   1.000  H
  H52      1.0000 0.95702  0.61896  0.73002  Biso   1.000  H
  C51      1.0000 0.75121  0.11002  0.51311  Biso   1.000  C
  C52      1.0000 0.94073  0.37218  0.69513  Biso   1.000  C
  S30      1.0000 0.66550  0.11028  0.45960  Biso   1.000  S
  C53      1.0000 0.74927  0.15180  0.37539  Biso   1.000  C
  C54      1.0000 0.80951  0.39711  0.37195  Biso   1.000  C
  H53      1.0000 0.83402  0.52802  0.44798  Biso   1.000  H
  H54      1.0000 0.89802  0.42402  0.46299  Biso   1.000  H
  C55      1.0000 0.89607  0.44628  0.63373  Biso   1.000  C
  H55      1.0000 0.84499  0.53696  0.69897  Biso   1.000  H
  H56      1.0000 0.83402  0.58604  0.62103  Biso   1.000  H
  S31      1.0000 0.80846  0.10160  0.45808  Biso   1.000  S
  H57      1.0000 0.97402  0.41903  0.72601  Biso   1.000  H
  H58      1.0000 0.95901  0.30703  0.66900  Biso   1.000  H
  S32      1.0000 0.78007  0.18480  0.29841  Biso   1.000  S
  C56      1.0000 0.84250  0.29551  0.34091  Biso   1.000  C
  H59      1.0000 0.79600  0.41499  0.31799  Biso   1.000  H
  H60      1.0000 0.77498  0.36900  0.39498  Biso   1.000  H
  H61      1.0000 0.85599  0.39900  0.60500  Biso   1.000  H
  H62      1.0000 0.92902  0.47198  0.59602  Biso   1.000  H
  H63      1.0000 0.86498  0.31202  0.30202  Biso   1.000  H
  H64      1.0000 0.87498  0.26397  0.38002  Biso   1.000  H
  S33      1.0000 0.39810  0.18558  0.26211  Biso   1.000  S
  C57      1.0000 0.33417  0.26827  0.20387  Biso   1.000  C
  C58      1.0000 0.44074  0.12782  0.19517  Biso   1.000  C
  C59      1.0000 0.26845  0.26964  0.20488  Biso   1.000  C
  S34      1.0000 0.35609  0.36918  0.14218  Biso   1.000  S
  C60      1.0000 0.39608  0.05372  0.13377  Biso   1.000  C
  H65      1.0000 0.47401  0.08097  0.22599  Biso   1.000  H
  H66      1.0000 0.45901  0.19297  0.16899  Biso   1.000  H
  S35      1.0000 0.21413  0.36780  0.14438  Biso   1.000  S
  S36      1.0000 0.23492  0.18669  0.26516  Biso   1.000  S
  C61      1.0000 0.27054  0.38310  0.08890  Biso   1.000  C
  H67      1.0000 0.35599  0.10100  0.10498  Biso   1.000  H
  H68      1.0000 0.42902  0.02802  0.09601  Biso   1.000  H
  C62      1.0000 0.36838  0.94576  0.16018  Biso   1.000  C
  C63      1.0000 0.16680  0.11217  0.19602  Biso   1.000  C
  C64      1.0000 0.25120  0.38998  0.01309  Biso   1.000  C
  C65      1.0000 0.42017  0.85173  0.19111  Biso   1.000  C
  H69      1.0000 0.34500  0.96304  0.19901  Biso   1.000  H
  H70      1.0000 0.33402  0.91396  0.12101  Biso   1.000  H
  C66      1.0000 0.19395  0.04177  0.14110  Biso   1.000  C
  H71      1.0000 0.14698  0.06799  0.22701  Biso   1.000  H
  H72      1.0000 0.13200  0.17200  0.16498  Biso   1.000  H
  S37      1.0000 0.16551  0.38972  0.95964  Biso   1.000  S
  S38      1.0000 0.30846  0.39840  0.95806  Biso   1.000  S
  S39      1.0000 0.46427  0.79474  0.12570  Biso   1.000  S
  H73      1.0000 0.39201  0.78503  0.20500  Biso   1.000  H
  H74      1.0000 0.45702  0.88104  0.23000  Biso   1.000  H
  H75      1.0000 0.22002  0.09498  0.11802  Biso   1.000  H
  C67      1.0000 0.13794  0.99510  0.07456  Biso   1.000  C
  H76      1.0000 0.22301  0.98100  0.17000  Biso   1.000  H
  C68      1.0000 0.18395  0.34287  0.87662  Biso   1.000  C
  C69      1.0000 0.24928  0.34820  0.87543  Biso   1.000  C
  C70      1.0000 0.39704  0.75357  0.04922  Biso   1.000  C
  H77      1.0000 0.11098  0.06103  0.04899  Biso   1.000  H
  C71      1.0000 0.09455  0.90493  0.09697  Biso   1.000  C
  H78      1.0000 0.16301  0.95900  0.03799  Biso   1.000  H
  S40      1.0000 0.11619  0.30256  0.80003  Biso   1.000  S
  S41      1.0000 0.28008  0.31520  0.79845  Biso   1.000  S
  C72      1.0000 0.39334  0.77213  0.97641  Biso   1.000  C
  S42      1.0000 0.33043  0.67096  0.06683  Biso   1.000  S
  S43      1.0000 0.03824  0.83024  0.01738  Biso   1.000  S
  H79      1.0000 0.12399  0.84700  0.12801  Biso   1.000  H
  H80      1.0000 0.06002  0.93596  0.12101  Biso   1.000  H
  C73      1.0000 0.06948  0.20311  0.84388  Biso   1.000  C
  C74      1.0000 0.34250  0.20449  0.84089  Biso   1.000  C
  S44      1.0000 0.45392  0.84554  0.94328  Biso   1.000  S
  S45      1.0000 0.32235  0.71248  0.90856  Biso   1.000  S
  C75      1.0000 0.27662  0.69108  0.97534  Biso   1.000  C
  C76      1.0000 0.09675  0.77316  0.97392  Biso   1.000  C
  C77      1.0000 0.10897  0.09911  0.87972  Biso   1.000  C
  H81      1.0000 0.05301  0.24299  0.87905  Biso   1.000  H
  H82      1.0000 0.02900  0.17303  0.80403  Biso   1.000  H
  C78      1.0000 0.30952  0.10289  0.87199  Biso   1.000  C
  H83      1.0000 0.36503  0.18798  0.80200  Biso   1.000  H
  H84      1.0000 0.37498  0.23603  0.88001  Biso   1.000  H
  C79      1.0000 0.40012  0.95221  0.88266  Biso   1.000  C
  C80      1.0000 0.20917  0.69340  0.95987  Biso   1.000  C
  C81      1.0000 0.09234  0.78253  0.89982  Biso   1.000  C
  S46      1.0000 0.16425  0.68790  0.02856  Biso   1.000  S
  C82      1.0000 0.12780  0.01349  0.82633  Biso   1.000  C
  H85      1.0000 0.07800  0.05200  0.90602  Biso   1.000  H
  H86      1.0000 0.15500  0.12902  0.91302  Biso   1.000  H
  C83      1.0000 0.36351  0.02381  0.92482  Biso   1.000  C
  H87      1.0000 0.29601  0.08501  0.81803  Biso   1.000  H
  H88      1.0000 0.27499  0.13100  0.89502  Biso   1.000  H
  H89      1.0000 0.43300  0.99304  0.86505  Biso   1.000  H
  H90      1.0000 0.35899  0.93399  0.83903  Biso   1.000  H
  S47      1.0000 0.15478  0.70878  0.86843  Biso   1.000  S
  S48      1.0000 0.02570  0.85130  0.83446  Biso   1.000  S
  C84      1.0000 0.06935  0.93949  0.78044  Biso   1.000  C
  H91      1.0000 0.16099  0.95298  0.85703  Biso   1.000  H
  H92      1.0000 0.13902  0.06601  0.79100  Biso   1.000  H
  H93      1.0000 0.33403  0.97198  0.94802  Biso   1.000  H
  H94      1.0000 0.39803  0.07598  0.96303  Biso   1.000  H
  H95      1.0000 0.03901  0.99802  0.75905  Biso   1.000  H
  H96      1.0000 0.08701  0.88602  0.75301  Biso   1.000  H
  S49      1.0000 0.60191  0.81442  0.73792  Biso   1.000  S
  C85      1.0000 0.55927  0.87218  0.80486  Biso   1.000  C
  C86      1.0000 0.66584  0.73173  0.79616  Biso   1.000  C
  C87      1.0000 0.60393  0.94628  0.86627  Biso   1.000  C
  H97      1.0000 0.52598  0.91903  0.77398  Biso   1.000  H
  H98      1.0000 0.54099  0.80703  0.83099  Biso   1.000  H
  S50      1.0000 0.64390  0.63082  0.85780  Biso   1.000  S
  C88      1.0000 0.73154  0.73036  0.79509  Biso   1.000  C
  H99      1.0000 0.64400  0.89900  0.89499  Biso   1.000  H
  H100     1.0000 0.57099  0.97198  0.90402  Biso   1.000  H
  C89      1.0000 0.63161  0.05424  0.83979  Biso   1.000  C
  C90      1.0000 0.72946  0.61690  0.91108  Biso   1.000  C
  S51      1.0000 0.78586  0.63220  0.85560  Biso   1.000  S
  S52      1.0000 0.76509  0.81331  0.73487  Biso   1.000  S
  C91      1.0000 0.57983  0.14827  0.80886  Biso   1.000  C
  H101     1.0000 0.65500  0.03696  0.80102  Biso   1.000  H
  H102     1.0000 0.66599  0.08604  0.87902  Biso   1.000  H
  C92      1.0000 0.74879  0.61002  0.98688  Biso   1.000  C
  C93      1.0000 0.83320  0.88783  0.80401  Biso   1.000  C
  S53      1.0000 0.53574  0.20526  0.87434  Biso   1.000  S
  H103     1.0000 0.60798  0.21497  0.79498  Biso   1.000  H
  H104     1.0000 0.54298  0.11896  0.76998  Biso   1.000  H
  S54      1.0000 0.83449  0.61028  0.04033  Biso   1.000  S
  S55      1.0000 0.69154  0.60160  0.04191  Biso   1.000  S
  C94      1.0000 0.80604  0.95823  0.85887  Biso   1.000  C
  H105     1.0000 0.85303  0.93201  0.77302  Biso   1.000  H
  H106     1.0000 0.86799  0.82800  0.83500  Biso   1.000  H
  C95      1.0000 0.60296  0.24643  0.95076  Biso   1.000  C
  C96      1.0000 0.81604  0.65713  0.12336  Biso   1.000  C
  C97      1.0000 0.75073  0.65180  0.12460  Biso   1.000  C
  H107     1.0000 0.77999  0.90502  0.88201  Biso   1.000  H
  C98      1.0000 0.86206  0.00490  0.92542  Biso   1.000  C
  H108     1.0000 0.77698  0.01900  0.82997  Biso   1.000  H
  S56      1.0000 0.66958  0.32904  0.93320  Biso   1.000  S
  C99      1.0000 0.60665  0.22787  0.02357  Biso   1.000  C
  S57      1.0000 0.88386  0.69744  0.20000  Biso   1.000  S
  S58      1.0000 0.71992  0.68480  0.20158  Biso   1.000  S
  H109     1.0000 0.88901  0.93897  0.95098  Biso   1.000  H
  C100     1.0000 0.90546  0.09507  0.90307  Biso   1.000  C
  H110     1.0000 0.83698  0.04100  0.96199  Biso   1.000  H
  C101     1.0000 0.72337  0.30892  0.02464  Biso   1.000  C
  S59      1.0000 0.54607  0.15446  0.05670  Biso   1.000  S
  S60      1.0000 0.67764  0.28752  0.09141  Biso   1.000  S
  C102     1.0000 0.93052  0.79689  0.15615  Biso   1.000  C
  C103     1.0000 0.65750  0.79551  0.15908  Biso   1.000  C
  S61      1.0000 0.96175  0.16976  0.98259  Biso   1.000  S
  H111     1.0000 0.87602  0.15300  0.87202  Biso   1.000  H
  H112     1.0000 0.93999  0.06404  0.87902  Biso   1.000  H
  C104     1.0000 0.79084  0.30660  0.04016  Biso   1.000  C
  C105     1.0000 0.59989  0.04779  0.11737  Biso   1.000  C
  C106     1.0000 0.89104  0.90089  0.12031  Biso   1.000  C
  H113     1.0000 0.94700  0.75701  0.12099  Biso   1.000  H
  H114     1.0000 0.97100  0.82697  0.19600  Biso   1.000  H
  C107     1.0000 0.69048  0.89711  0.12804  Biso   1.000  C
  H115     1.0000 0.63502  0.81202  0.19797  Biso   1.000  H
  H116     1.0000 0.62501  0.76397  0.11997  Biso   1.000  H
  C108     1.0000 0.90325  0.22684  0.02605  Biso   1.000  C
  S62      1.0000 0.83575  0.31210  0.97147  Biso   1.000  S
  S63      1.0000 0.84523  0.29122  0.13160  Biso   1.000  S
  C109     1.0000 0.63649  0.97619  0.07516  Biso   1.000  C
  H117     1.0000 0.56701  0.00696  0.13498  Biso   1.000  H
  H118     1.0000 0.64101  0.06601  0.16100  Biso   1.000  H
  C110     1.0000 0.87220  0.98651  0.17365  Biso   1.000  C
  H119     1.0000 0.92199  0.94800  0.09395  Biso   1.000  H
  H120     1.0000 0.84499  0.87098  0.08695  Biso   1.000  H
  H121     1.0000 0.70399  0.91499  0.18200  Biso   1.000  H
  H122     1.0000 0.72500  0.86900  0.10496  Biso   1.000  H
  C111     1.0000 0.90767  0.21747  0.10022  Biso   1.000  C
  H123     1.0000 0.60198  0.92402  0.03700  Biso   1.000  H
  H124     1.0000 0.66597  0.02802  0.05196  Biso   1.000  H
  H125     1.0000 0.86097  0.93399  0.20898  Biso   1.000  H
  C112     1.0000 0.93066  0.06051  0.21959  Biso   1.000  C
  H126     1.0000 0.83902  0.04702  0.14300  Biso   1.000  H
  S64      1.0000 0.97430  0.14870  0.16557  Biso   1.000  S
  H127     1.0000 0.96100  0.00198  0.24098  Biso   1.000  H
  H128     1.0000 0.91299  0.11398  0.24696  Biso   1.000  H
