data_image0
_cell_length_a       14.921
_cell_length_b       15.154
_cell_length_c       17.194
_cell_angle_alpha    99.7
_cell_angle_beta     96.33
_cell_angle_gamma    95.04

_symmetry_space_group_name_H-M    "P 1"
_symmetry_int_tables_number       1

loop_
  _symmetry_equiv_pos_as_xyz
  'x, y, z'

loop_
  _atom_site_label
  _atom_site_occupancy
  _atom_site_fract_x
  _atom_site_fract_y
  _atom_site_fract_z
  _atom_site_thermal_displace_type
  _atom_site_B_iso_or_equiv
  _atom_site_type_symbol
  C1       1.0000 0.19452  0.79432  0.15562  Biso   1.000  C
  O1       1.0000 0.28404  0.77158  0.14872  Biso   1.000  O
  O2       1.0000 0.13214  0.71593  0.14640  Biso   1.000  O
  H1       1.0000 0.17500  0.83199  0.10999  Biso   1.000  H
  H2       1.0000 0.19305  0.83503  0.21303  Biso   1.000  H
  C2       1.0000 0.30573  0.76711  0.07150  Biso   1.000  C
  C3       1.0000 0.08472  0.68678  0.07162  Biso   1.000  C
  C4       1.0000 0.28044  0.68912  0.01481  Biso   1.000  C
  C5       1.0000 0.35999  0.83877  0.05318  Biso   1.000  C
  C6       1.0000 0.12310  0.62751  0.01707  Biso   1.000  C
  C7       1.0000 0.99754  0.70968  0.05199  Biso   1.000  C
  C8       1.0000 0.22139  0.61301  0.03498  Biso   1.000  C
  C9       1.0000 0.30948  0.68271  0.93980  Biso   1.000  C
  O3       1.0000 0.38516  0.91270  0.11332  Biso   1.000  O
  C10      1.0000 0.38911  0.83237  0.97823  Biso   1.000  C
  C11      1.0000 0.07451  0.59113  0.94289  Biso   1.000  C
  C12      1.0000 0.94890  0.67343  0.97781  Biso   1.000  C
  O4       1.0000 0.96492  0.77360  0.10529  Biso   1.000  O
  C13      1.0000 0.23982  0.51381  0.00071  Biso   1.000  C
  H3       1.0000 0.23904  0.61597  0.09798  Biso   1.000  H
  C14      1.0000 0.36376  0.75445  0.92154  Biso   1.000  C
  H4       1.0000 0.29005  0.62192  0.89602  Biso   1.000  H
  C15      1.0000 0.35433  0.99847  0.10220  Biso   1.000  C
  O5       1.0000 0.44160  0.90572  0.96008  Biso   1.000  O
  C16      1.0000 0.98729  0.61417  0.92332  Biso   1.000  C
  H5       1.0000 0.10407  0.54497  0.90101  Biso   1.000  H
  O6       1.0000 0.86266  0.69625  0.96984  Biso   1.000  O
  C17      1.0000 0.92525  0.73508  0.16722  Biso   1.000  C
  C18      1.0000 0.33444  0.49791  0.03551  Biso   1.000  C
  H6       1.0000 0.19004  0.46599  0.01701  Biso   1.000  H
  H7       1.0000 0.23610  0.50494  0.93700  Biso   1.000  H
  C19      1.0000 0.39937  0.75313  0.83932  Biso   1.000  C
  H8       1.0000 0.29005  0.98599  0.06502  Biso   1.000  H
  H9       1.0000 0.40305  0.03399  0.07299  Biso   1.000  H
  C20      1.0000 0.34244  0.05547  0.18168  Biso   1.000  C
  C21      1.0000 0.39830  0.96704  0.91541  Biso   1.000  C
  C22      1.0000 0.92428  0.58564  0.84569  Biso   1.000  C
  C23      1.0000 0.84788  0.76993  0.92731  Biso   1.000  C
  C24      1.0000 0.92100  0.81220  0.23950  Biso   1.000  C
  H10      1.0000 0.96599  0.68498  0.18602  Biso   1.000  H
  H11      1.0000 0.85698  0.70398  0.14497  Biso   1.000  H
  C25      1.0000 0.36999  0.41149  0.00410  Biso   1.000  C
  H12      1.0000 0.33400  0.50098  0.09899  Biso   1.000  H
  H13      1.0000 0.38102  0.55202  0.02600  Biso   1.000  H
  C26      1.0000 0.32427  0.79005  0.78674  Biso   1.000  C
  H14      1.0000 0.46209  0.79495  0.84200  Biso   1.000  H
  C27      1.0000 0.42399  0.65716  0.80720  Biso   1.000  C
  H15      1.0000 0.40104  0.05793  0.22498  Biso   1.000  H
  H16      1.0000 0.33005  0.12294  0.17501  Biso   1.000  H
  O7       1.0000 0.26473  0.00777  0.20279  Biso   1.000  O
  O8       1.0000 0.40718  0.93901  0.83409  Biso   1.000  O
  H17      1.0000 0.32710  0.96495  0.92302  Biso   1.000  H
  H18      1.0000 0.43104  0.03496  0.93599  Biso   1.000  H
  C28      1.0000 0.94911  0.65823  0.79233  Biso   1.000  C
  H19      1.0000 0.85406  0.58092  0.85604  Biso   1.000  H
  C29      1.0000 0.94949  0.49135  0.80072  Biso   1.000  C
  H20      1.0000 0.91010  0.81497  0.93700  Biso   1.000  H
  H21      1.0000 0.79410  0.80496  0.95098  Biso   1.000  H
  O9       1.0000 0.82287  0.73941  0.84319  Biso   1.000  O
  O10      1.0000 0.86172  0.87378  0.21332  Biso   1.000  O
  H22      1.0000 0.89605  0.78498  0.28798  Biso   1.000  H
  H23      1.0000 0.98804  0.84698  0.25901  Biso   1.000  H
  C30      1.0000 0.36341  0.33318  0.03688  Biso   1.000  C
  C31      1.0000 0.41106  0.41273  0.93510  Biso   1.000  C
  C32      1.0000 0.25305  0.73618  0.73659  Biso   1.000  C
  C33      1.0000 0.33335  0.88307  0.78971  Biso   1.000  C
  H24      1.0000 0.36310  0.61197  0.78799  Biso   1.000  H
  H25      1.0000 0.46611  0.63197  0.85199  Biso   1.000  H
  C34      1.0000 0.47417  0.66707  0.73683  Biso   1.000  C
  C35      1.0000 0.24702  0.04256  0.28578  Biso   1.000  C
  C36      1.0000 0.89725  0.73078  0.79691  Biso   1.000  C
  C37      1.0000 0.01539  0.65158  0.74111  Biso   1.000  C
  H26      1.0000 0.94807  0.44193  0.84004  Biso   1.000  H
  C38      1.0000 0.87376  0.45935  0.72558  Biso   1.000  C
  H27      1.0000 0.01609  0.49894  0.78204  Biso   1.000  H
  C39      1.0000 0.77053  0.84548  0.20547  Biso   1.000  C
  C40      1.0000 0.39780  0.25620  0.00077  Biso   1.000  C
  H28      1.0000 0.33199  0.33201  0.09001  Biso   1.000  H
  C41      1.0000 0.44538  0.33587  0.89893  Biso   1.000  C
  H29      1.0000 0.41606  0.47294  0.90999  Biso   1.000  H
  C42      1.0000 0.19105  0.77523  0.68959  Biso   1.000  C
  H30      1.0000 0.24608  0.66398  0.73403  Biso   1.000  H
  C43      1.0000 0.27138  0.92227  0.74283  Biso   1.000  C
  H31      1.0000 0.43210  0.69199  0.69203  Biso   1.000  H
  H32      1.0000 0.53604  0.71197  0.75598  Biso   1.000  H
  C44      1.0000 0.49688  0.56875  0.70393  Biso   1.000  C
  H33      1.0000 0.19905  0.99600  0.30601  Biso   1.000  H
  H34      1.0000 0.31106  0.05094  0.32397  Biso   1.000  H
  C45      1.0000 0.21436  0.12744  0.28881  Biso   1.000  C
  C46      1.0000 0.91176  0.79662  0.75039  Biso   1.000  C
  C47      1.0000 0.02990  0.71747  0.69453  Biso   1.000  C
  H35      1.0000 0.05506  0.59496  0.73700  Biso   1.000  H
  H36      1.0000 0.87205  0.51192  0.69001  Biso   1.000  H
  H37      1.0000 0.80804  0.44794  0.74599  Biso   1.000  H
  C48      1.0000 0.89376  0.37254  0.67442  Biso   1.000  C
  C49      1.0000 0.72085  0.92327  0.18602  Biso   1.000  C
  H38      1.0000 0.75207  0.82599  0.26002  Biso   1.000  H
  H39      1.0000 0.75403  0.78898  0.15800  Biso   1.000  H
  H40      1.0000 0.39302  0.19602  0.02600  Biso   1.000  H
  C50      1.0000 0.43875  0.25752  0.93183  Biso   1.000  C
  H41      1.0000 0.47710  0.33695  0.84503  Biso   1.000  H
  C51      1.0000 0.20015  0.86834  0.69269  Biso   1.000  C
  C52      1.0000 0.10377  0.71737  0.64200  Biso   1.000  C
  O11      1.0000 0.27701  0.01141  0.73718  Biso   1.000  O
  C53      1.0000 0.55676  0.52407  0.74771  Biso   1.000  C
  C54      1.0000 0.45620  0.52738  0.62802  Biso   1.000  C
  H42      1.0000 0.26503  0.17396  0.27198  Biso   1.000  H
  H43      1.0000 0.20306  0.15097  0.34902  Biso   1.000  H
  O12      1.0000 0.13234  0.12597  0.23932  Biso   1.000  O
  O13      1.0000 0.86777  0.87399  0.76074  Biso   1.000  O
  C55      1.0000 0.97805  0.79008  0.69911  Biso   1.000  C
  C56      1.0000 0.82973  0.29718  0.66282  Biso   1.000  C
  C57      1.0000 0.97345  0.36778  0.63933  Biso   1.000  C
  O14      1.0000 0.72303  0.98860  0.26282  Biso   1.000  O
  H44      1.0000 0.75402  0.95598  0.14402  Biso   1.000  H
  H45      1.0000 0.65105  0.90002  0.16199  Biso   1.000  H
  H46      1.0000 0.46508  0.19792  0.90399  Biso   1.000  H
  O15      1.0000 0.14005  0.90595  0.64581  Biso   1.000  O
  H47      1.0000 0.08606  0.74998  0.59203  Biso   1.000  H
  C58      1.0000 0.11514  0.62234  0.60250  Biso   1.000  C
  C59      1.0000 0.27919  0.07668  0.81398  Biso   1.000  C
  C60      1.0000 0.57585  0.43806  0.71571  Biso   1.000  C
  H48      1.0000 0.58806  0.55596  0.80601  Biso   1.000  H
  C61      1.0000 0.47535  0.44136  0.59602  Biso   1.000  C
  H49      1.0000 0.41006  0.56198  0.59400  Biso   1.000  H
  C62      1.0000 0.08834  0.20326  0.24961  Biso   1.000  C
  C63      1.0000 0.78580  0.87244  0.71119  Biso   1.000  C
  O16      1.0000 0.98587  0.85675  0.65372  Biso   1.000  O
  C64      1.0000 0.84546  0.21698  0.61613  Biso   1.000  C
  H50      1.0000 0.76804  0.30093  0.69001  Biso   1.000  H
  C65      1.0000 0.98917  0.28756  0.59251  Biso   1.000  C
  H51      1.0000 0.02304  0.42592  0.64801  Biso   1.000  H
  C66      1.0000 0.72873  0.07768  0.25723  Biso   1.000  C
  C67      1.0000 0.05908  0.92683  0.67222  Biso   1.000  C
  H52      1.0000 0.13709  0.58498  0.64801  Biso   1.000  H
  H53      1.0000 0.05104  0.59095  0.57002  Biso   1.000  H
  C68      1.0000 0.18658  0.62418  0.54420  Biso   1.000  C
  H54      1.0000 0.24602  0.04398  0.85604  Biso   1.000  H
  H55      1.0000 0.34899  0.09999  0.83801  Biso   1.000  H
  C69      1.0000 0.22950  0.15446  0.79453  Biso   1.000  C
  C70      1.0000 0.53519  0.39678  0.63992  Biso   1.000  C
  H56      1.0000 0.62207  0.40398  0.75003  Biso   1.000  H
  H57      1.0000 0.44405  0.40894  0.53701  Biso   1.000  H
  C71      1.0000 0.02206  0.20986  0.30089  Biso   1.000  C
  C72      1.0000 0.10285  0.26917  0.20309  Biso   1.000  C
  C73      1.0000 0.75309  0.95738  0.71422  Biso   1.000  C
  H58      1.0000 0.73507  0.82598  0.72802  Biso   1.000  H
  H59      1.0000 0.79704  0.84898  0.65098  Biso   1.000  H
  C74      1.0000 0.92513  0.21212  0.58091  Biso   1.000  C
  H60      1.0000 0.79603  0.15895  0.60702  Biso   1.000  H
  H61      1.0000 0.05103  0.28394  0.56503  Biso   1.000  H
  C75      1.0000 0.66675  0.11688  0.21029  Biso   1.000  C
  C76      1.0000 0.79995  0.13154  0.30731  Biso   1.000  C
  H62      1.0000 0.07110  0.94592  0.73599  Biso   1.000  H
  H63      1.0000 0.03810  0.98296  0.64599  Biso   1.000  H
  H64      1.0000 0.25107  0.65292  0.57799  Biso   1.000  H
  H65      1.0000 0.16604  0.66593  0.50203  Biso   1.000  H
  C77      1.0000 0.19939  0.53247  0.49953  Biso   1.000  C
  H66      1.0000 0.24805  0.17397  0.74004  Biso   1.000  H
  H67      1.0000 0.24600  0.21097  0.84200  Biso   1.000  H
  O17      1.0000 0.13833  0.12618  0.78674  Biso   1.000  O
  H68      1.0000 0.55006  0.32996  0.61499  Biso   1.000  H
  C78      1.0000 0.97021  0.28249  0.30553  Biso   1.000  C
  O18      1.0000 0.01423  0.14313  0.34628  Biso   1.000  O
  C79      1.0000 0.05106  0.34165  0.20767  Biso   1.000  C
  O19      1.0000 0.17722  0.26047  0.15681  Biso   1.000  O
  O20      1.0000 0.73537  0.99218  0.79721  Biso   1.000  O
  H69      1.0000 0.68911  0.94894  0.67603  Biso   1.000  H
  H70      1.0000 0.80099  0.00401  0.69399  Biso   1.000  H
  H71      1.0000 0.93708  0.14997  0.54504  Biso   1.000  H
  C80      1.0000 0.67583  0.20984  0.21332  Biso   1.000  C
  O21      1.0000 0.59291  0.06087  0.16591  Biso   1.000  O
  O22      1.0000 0.86005  0.09393  0.35419  Biso   1.000  O
  C81      1.0000 0.80905  0.22465  0.31041  Biso   1.000  C
  C82      1.0000 0.13988  0.45508  0.49590  Biso   1.000  C
  C83      1.0000 0.27798  0.52738  0.46282  Biso   1.000  C
  C84      1.0000 0.07904  0.18781  0.76050  Biso   1.000  C
  C85      1.0000 0.98471  0.34837  0.25889  Biso   1.000  C
  C86      1.0000 0.89633  0.28258  0.35800  Biso   1.000  C
  C87      1.0000 0.94102  0.07305  0.32778  Biso   1.000  C
  C88      1.0000 0.07582  0.41424  0.15431  Biso   1.000  C
  C89      1.0000 0.15222  0.22995  0.07269  Biso   1.000  C
  C90      1.0000 0.65766  0.94448  0.81832  Biso   1.000  C
  C91      1.0000 0.74705  0.26377  0.26341  Biso   1.000  C
  C92      1.0000 0.60072  0.24675  0.16068  Biso   1.000  C
  C93      1.0000 0.60179  0.03284  0.08459  Biso   1.000  C
  C94      1.0000 0.15904  0.37255  0.45563  Biso   1.000  C
  H72      1.0000 0.07906  0.45896  0.52404  Biso   1.000  H
  C95      1.0000 0.29713  0.44483  0.42249  Biso   1.000  C
  H73      1.0000 0.32405  0.58699  0.46604  Biso   1.000  H
  H74      1.0000 0.10398  0.21496  0.71202  Biso   1.000  H
  H75      1.0000 0.01199  0.15296  0.74099  Biso   1.000  H
  C96      1.0000 0.07480  0.26488  0.83284  Biso   1.000  C
  H76      1.0000 0.94505  0.40499  0.26300  Biso   1.000  H
  H77      1.0000 0.91405  0.24997  0.40803  Biso   1.000  H
  C97      1.0000 0.88496  0.37754  0.39750  Biso   1.000  C
  H78      1.0000 0.92900  0.05396  0.26401  Biso   1.000  H
  H79      1.0000 0.96207  0.01698  0.35401  Biso   1.000  H
  C98      1.0000 0.01282  0.38577  0.07668  Biso   1.000  C
  H80      1.0000 0.14604  0.41897  0.14402  Biso   1.000  H
  C99      1.0000 0.05061  0.50860  0.19928  Biso   1.000  C
  O23      1.0000 0.13745  0.30370  0.03022  Biso   1.000  O
  H81      1.0000 0.09001  0.18498  0.06300  Biso   1.000  H
  H82      1.0000 0.20601  0.19498  0.04902  Biso   1.000  H
  H83      1.0000 0.59906  0.94195  0.77502  Biso   1.000  H
  H84      1.0000 0.67011  0.87694  0.82499  Biso   1.000  H
  C100     1.0000 0.64570  0.00148  0.89780  Biso   1.000  C
  H85      1.0000 0.75403  0.33598  0.26603  Biso   1.000  H
  C101     1.0000 0.63635  0.24544  0.07852  Biso   1.000  C
  H86      1.0000 0.53802  0.20500  0.15800  Biso   1.000  H
  C102     1.0000 0.57611  0.34279  0.19280  Biso   1.000  C
  H87      1.0000 0.56900  0.96499  0.06401  Biso   1.000  H
  H88      1.0000 0.67299  0.03493  0.07698  Biso   1.000  H
  O24      1.0000 0.55850  0.09416  0.03992  Biso   1.000  O
  C103     1.0000 0.23776  0.36746  0.41892  Biso   1.000  C
  H89      1.0000 0.11304  0.31293  0.45301  Biso   1.000  H
  H90      1.0000 0.35803  0.44095  0.39400  Biso   1.000  H
  H91      1.0000 0.03404  0.31496  0.81398  Biso   1.000  H
  H92      1.0000 0.14305  0.29597  0.85503  Biso   1.000  H
  O25      1.0000 0.03513  0.22641  0.89471  Biso   1.000  O
  H93      1.0000 0.86301  0.41497  0.35199  Biso   1.000  H
  H94      1.0000 0.94905  0.40893  0.42998  Biso   1.000  H
  C104     1.0000 0.81353  0.37577  0.45580  Biso   1.000  C
  C105     1.0000 0.92566  0.40875  0.05711  Biso   1.000  C
  C106     1.0000 0.05120  0.32645  0.02219  Biso   1.000  C
  H95      1.0000 0.98402  0.50095  0.21802  Biso   1.000  H
  H96      1.0000 0.05204  0.55797  0.16002  Biso   1.000  H
  C107     1.0000 0.12635  0.54060  0.27442  Biso   1.000  C
  H97      1.0000 0.59712  0.96596  0.92701  Biso   1.000  H
  O26      1.0000 0.61496  0.08726  0.88674  Biso   1.000  O
  H98      1.0000 0.71006  0.01397  0.93504  Biso   1.000  H
  C108     1.0000 0.69061  0.31717  0.06020  Biso   1.000  C
  C109     1.0000 0.61100  0.16757  0.02177  Biso   1.000  C
  H99      1.0000 0.63707  0.38797  0.21201  Biso   1.000  H
  H100     1.0000 0.53406  0.36798  0.14801  Biso   1.000  H
  C110     1.0000 0.52593  0.33288  0.26317  Biso   1.000  C
  H101     1.0000 0.25303  0.30399  0.38799  Biso   1.000  H
  C111     1.0000 0.00256  0.29027  0.94801  Biso   1.000  C
  H102     1.0000 0.74903  0.34696  0.42201  Biso   1.000  H
  H103     1.0000 0.83405  0.33395  0.49797  Biso   1.000  H
  C112     1.0000 0.80078  0.46748  0.50047  Biso   1.000  C
  C113     1.0000 0.87694  0.37250  0.98293  Biso   1.000  C
  H104     1.0000 0.89603  0.45497  0.09899  Biso   1.000  H
  H105     1.0000 0.12805  0.48796  0.30999  Biso   1.000  H
  H106     1.0000 0.19205  0.55194  0.25401  Biso   1.000  H
  C114     1.0000 0.10634  0.62734  0.32558  Biso   1.000  C
  C115     1.0000 0.64004  0.16118  0.94682  Biso   1.000  C
  C116     1.0000 0.71966  0.31089  0.98519  Biso   1.000  C
  H107     1.0000 0.71005  0.37796  0.10398  Biso   1.000  H
  H108     1.0000 0.56807  0.30797  0.30803  Biso   1.000  H
  H109     1.0000 0.46406  0.28797  0.24402  Biso   1.000  H
  C117     1.0000 0.50322  0.43113  0.29607  Biso   1.000  C
  C118     1.0000 0.91532  0.31317  0.92844  Biso   1.000  C
  C119     1.0000 0.86028  0.54486  0.50410  Biso   1.000  C
  C120     1.0000 0.72219  0.47257  0.53718  Biso   1.000  C
  C121     1.0000 0.77865  0.38701  0.96502  Biso   1.000  C
  C122     1.0000 0.17037  0.70277  0.33718  Biso   1.000  C
  C123     1.0000 0.02665  0.63217  0.36067  Biso   1.000  C
  C124     1.0000 0.69431  0.23290  0.92850  Biso   1.000  C
  C125     1.0000 0.44334  0.47587  0.25229  Biso   1.000  C
  C126     1.0000 0.54397  0.47257  0.37198  Biso   1.000  C
  O27      1.0000 0.86790  0.28408  0.85360  Biso   1.000  O
  C127     1.0000 0.84106  0.62733  0.54437  Biso   1.000  C
  H110     1.0000 0.92104  0.54093  0.47602  Biso   1.000  H
  C128     1.0000 0.70297  0.55505  0.57751  Biso   1.000  C
  H111     1.0000 0.67606  0.41297  0.53402  Biso   1.000  H
  H112     1.0000 0.76106  0.38398  0.90202  Biso   1.000  H
  C129     1.0000 0.76022  0.48620  0.99929  Biso   1.000  C
  C130     1.0000 0.15464  0.78296  0.38387  Biso   1.000  C
  H113     1.0000 0.23205  0.69895  0.30999  Biso   1.000  H
  H114     1.0000 0.97706  0.57396  0.35199  Biso   1.000  H
  C131     1.0000 0.01094  0.71239  0.40749  Biso   1.000  C
  O28      1.0000 0.71601  0.22837  0.85134  Biso   1.000  O
  C132     1.0000 0.42425  0.56189  0.28429  Biso   1.000  C
  H115     1.0000 0.41205  0.44399  0.19399  Biso   1.000  H
  C133     1.0000 0.52475  0.55858  0.40398  Biso   1.000  C
  H116     1.0000 0.59004  0.43796  0.40600  Biso   1.000  H
  C134     1.0000 0.80553  0.20570  0.84444  Biso   1.000  C
  C135     1.0000 0.76233  0.63242  0.58108  Biso   1.000  C
  H117     1.0000 0.88706  0.68695  0.54699  Biso   1.000  H
  H118     1.0000 0.64206  0.55893  0.60600  Biso   1.000  H
  H119     1.0000 0.81006  0.53395  0.98299  Biso   1.000  H
  C136     1.0000 0.66567  0.50210  0.96449  Biso   1.000  C
  H120     1.0000 0.76400  0.49494  0.06300  Biso   1.000  H
  C137     1.0000 0.07496  0.78775  0.41909  Biso   1.000  C
  H121     1.0000 0.20406  0.84093  0.39298  Biso   1.000  H
  H122     1.0000 0.94907  0.71593  0.43497  Biso   1.000  H
  C138     1.0000 0.46498  0.60316  0.36008  Biso   1.000  C
  H123     1.0000 0.37804  0.59598  0.25003  Biso   1.000  H
  H124     1.0000 0.55604  0.59094  0.46299  Biso   1.000  H
  H125     1.0000 0.82504  0.16795  0.89001  Biso   1.000  H
  H126     1.0000 0.80700  0.16499  0.78703  Biso   1.000  H
  H127     1.0000 0.74707  0.69596  0.61201  Biso   1.000  H
  H128     1.0000 0.66604  0.49897  0.90101  Biso   1.000  H
  H129     1.0000 0.61902  0.44799  0.97400  Biso   1.000  H
  C139     1.0000 0.63005  0.58845  0.99590  Biso   1.000  C
  H130     1.0000 0.06303  0.84999  0.45502  Biso   1.000  H
  H131     1.0000 0.45004  0.66998  0.38501  Biso   1.000  H
  C140     1.0000 0.63662  0.66677  0.96312  Biso   1.000  C
  C141     1.0000 0.58904  0.58714  0.06490  Biso   1.000  C
  C142     1.0000 0.60224  0.74382  0.99923  Biso   1.000  C
  H132     1.0000 0.66805  0.66800  0.90999  Biso   1.000  H
  C143     1.0000 0.55473  0.66408  0.10113  Biso   1.000  C
  H133     1.0000 0.58404  0.52694  0.09001  Biso   1.000  H
  H134     1.0000 0.60702  0.80400  0.97400  Biso   1.000  H
  C144     1.0000 0.56135  0.74236  0.06817  Biso   1.000  C
  H135     1.0000 0.52308  0.66301  0.15503  Biso   1.000  H
  H136     1.0000 0.53501  0.80196  0.09601  Biso   1.000  H
