data_image0
_cell_length_a       12.485
_cell_length_b       17.202
_cell_length_c       17.659
_cell_angle_alpha    94.55
_cell_angle_beta     93.3
_cell_angle_gamma    111.02

_symmetry_space_group_name_H-M    "P 1"
_symmetry_int_tables_number       1

loop_
  _symmetry_equiv_pos_as_xyz
  'x, y, z'

loop_
  _atom_site_label
  _atom_site_occupancy
  _atom_site_fract_x
  _atom_site_fract_y
  _atom_site_fract_z
  _atom_site_thermal_displace_type
  _atom_site_B_iso_or_equiv
  _atom_site_type_symbol
  C1       1.0000 0.35870  0.32510  0.68907  Biso   1.000  C
  N1       1.0000 0.25409  0.33612  0.68211  Biso   1.000  N
  N2       1.0000 0.43035  0.38629  0.74219  Biso   1.000  N
  O1       1.0000 0.38035  0.26888  0.65478  Biso   1.000  O
  C2       1.0000 0.15775  0.28180  0.63230  Biso   1.000  C
  C3       1.0000 0.25652  0.40702  0.73209  Biso   1.000  C
  C4       1.0000 0.37869  0.44243  0.77419  Biso   1.000  C
  C5       1.0000 0.54926  0.39338  0.76170  Biso   1.000  C
  N3       1.0000 0.14419  0.31211  0.55922  Biso   1.000  N
  H1       1.0000 0.16564  0.22779  0.62318  Biso   1.000  H
  H2       1.0000 0.08831  0.27322  0.65781  Biso   1.000  H
  N4       1.0000 0.24982  0.47644  0.69278  Biso   1.000  N
  H3       1.0000 0.19747  0.39038  0.76797  Biso   1.000  H
  H4       1.0000 0.37600  0.44053  0.82942  Biso   1.000  H
  N5       1.0000 0.42407  0.52729  0.75548  Biso   1.000  N
  H5       1.0000 0.55641  0.34012  0.74681  Biso   1.000  H
  H6       1.0000 0.56678  0.40551  0.81658  Biso   1.000  H
  N6       1.0000 0.63316  0.45850  0.72501  Biso   1.000  N
  C6       1.0000 0.18027  0.28648  0.49390  Biso   1.000  C
  C7       1.0000 0.07300  0.36174  0.54541  Biso   1.000  C
  C8       1.0000 0.14460  0.47883  0.65598  Biso   1.000  C
  C9       1.0000 0.34633  0.54753  0.71372  Biso   1.000  C
  C10      1.0000 0.52835  0.59110  0.79701  Biso   1.000  C
  C11      1.0000 0.69579  0.43921  0.67281  Biso   1.000  C
  C12      1.0000 0.69236  0.54359  0.76541  Biso   1.000  C
  N7       1.0000 0.14443  0.32079  0.43462  Biso   1.000  N
  O2       1.0000 0.23425  0.23960  0.48819  Biso   1.000  O
  C13      1.0000 0.07131  0.36671  0.45909  Biso   1.000  C
  N8       1.0000 0.12500  0.44991  0.57702  Biso   1.000  N
  H7       1.0000 0.99521  0.33499  0.56099  Biso   1.000  H
  H8       1.0000 0.14715  0.53593  0.66231  Biso   1.000  H
  H9       1.0000 0.08014  0.44484  0.68148  Biso   1.000  H
  O3       1.0000 0.35928  0.61849  0.69592  Biso   1.000  O
  H10      1.0000 0.53700  0.57620  0.84819  Biso   1.000  H
  H11      1.0000 0.51844  0.64459  0.80118  Biso   1.000  H
  N9       1.0000 0.63261  0.60010  0.76078  Biso   1.000  N
  N10      1.0000 0.79108  0.51053  0.66551  Biso   1.000  N
  O4       1.0000 0.67590  0.37069  0.63778  Biso   1.000  O
  C14      1.0000 0.79608  0.58073  0.71800  Biso   1.000  C
  H12      1.0000 0.71805  0.54130  0.81841  Biso   1.000  H
  C15      1.0000 0.14607  0.29319  0.35572  Biso   1.000  C
  N11      1.0000 0.11725  0.45408  0.45168  Biso   1.000  N
  H13      1.0000 0.99291  0.34053  0.43411  Biso   1.000  H
  C16      1.0000 0.14459  0.50129  0.52048  Biso   1.000  C
  C17      1.0000 0.68050  0.66040  0.71337  Biso   1.000  C
  C18      1.0000 0.88370  0.50990  0.62049  Biso   1.000  C
  N12      1.0000 0.76883  0.64529  0.68291  Biso   1.000  N
  H14      1.0000 0.86917  0.60384  0.75029  Biso   1.000  H
  N13      1.0000 0.23124  0.35471  0.31709  Biso   1.000  N
  H15      1.0000 0.07038  0.28050  0.32947  Biso   1.000  H
  H16      1.0000 0.16205  0.24190  0.35281  Biso   1.000  H
  C19      1.0000 0.11629  0.49011  0.37951  Biso   1.000  C
  O5       1.0000 0.17959  0.57878  0.53121  Biso   1.000  O
  O6       1.0000 0.64859  0.71874  0.70219  Biso   1.000  O
  N14      1.0000 0.88273  0.54592  0.54832  Biso   1.000  N
  H17      1.0000 0.95651  0.54099  0.65027  Biso   1.000  H
  H18      1.0000 0.87910  0.45259  0.60983  Biso   1.000  H
  C20      1.0000 0.85392  0.70682  0.64428  Biso   1.000  C
  C21      1.0000 0.31949  0.33960  0.28663  Biso   1.000  C
  C22      1.0000 0.20393  0.41933  0.28201  Biso   1.000  C
  N15      1.0000 0.20894  0.48954  0.33449  Biso   1.000  N
  H19      1.0000 0.04355  0.45901  0.34973  Biso   1.000  H
  H20      1.0000 0.12089  0.54741  0.39018  Biso   1.000  H
  C23      1.0000 0.85540  0.49871  0.47952  Biso   1.000  C
  C24      1.0000 0.92867  0.63330  0.54091  Biso   1.000  C
  N16      1.0000 0.85564  0.67921  0.56538  Biso   1.000  N
  H21      1.0000 0.92960  0.71949  0.67047  Biso   1.000  H
  H22      1.0000 0.83793  0.75810  0.64719  Biso   1.000  H
  O7       1.0000 0.35143  0.28132  0.29781  Biso   1.000  O
  N17      1.0000 0.36738  0.39991  0.23922  Biso   1.000  N
  C25      1.0000 0.30762  0.45641  0.23460  Biso   1.000  C
  H23      1.0000 0.13085  0.39622  0.24972  Biso   1.000  H
  C26      1.0000 0.30419  0.56079  0.32719  Biso   1.000  C
  N18      1.0000 0.87498  0.55009  0.42298  Biso   1.000  N
  O8       1.0000 0.82039  0.42122  0.46879  Biso   1.000  O
  C27      1.0000 0.92701  0.63833  0.45459  Biso   1.000  C
  H24      1.0000 0.00711  0.65953  0.56590  Biso   1.000  H
  C28      1.0000 0.81971  0.71352  0.50611  Biso   1.000  C
  C29      1.0000 0.47164  0.40891  0.20299  Biso   1.000  C
  H25      1.0000 0.28193  0.45870  0.18160  Biso   1.000  H
  N19      1.0000 0.36682  0.54150  0.27499  Biso   1.000  N
  O9       1.0000 0.32409  0.62931  0.36222  Biso   1.000  O
  C30      1.0000 0.85542  0.52124  0.34402  Biso   1.000  C
  N20      1.0000 0.85579  0.68789  0.44078  Biso   1.000  N
  H26      1.0000 0.00485  0.66501  0.43901  Biso   1.000  H
  O10      1.0000 0.76573  0.76040  0.51181  Biso   1.000  O
  H27      1.0000 0.46306  0.42380  0.15181  Biso   1.000  H
  H28      1.0000 0.48155  0.35542  0.19883  Biso   1.000  H
  N21      1.0000 0.57592  0.47271  0.24452  Biso   1.000  N
  C31      1.0000 0.45072  0.60662  0.23830  Biso   1.000  C
  N22      1.0000 0.75020  0.52363  0.30722  Biso   1.000  N
  H29      1.0000 0.85295  0.46413  0.33769  Biso   1.000  H
  H30      1.0000 0.91996  0.55523  0.31852  Biso   1.000  H
  C32      1.0000 0.84223  0.71821  0.36770  Biso   1.000  C
  C33      1.0000 0.62133  0.55763  0.22581  Biso   1.000  C
  C34      1.0000 0.65369  0.45253  0.28629  Biso   1.000  C
  H31      1.0000 0.44368  0.65994  0.25320  Biso   1.000  H
  H32      1.0000 0.43321  0.59449  0.18342  Biso   1.000  H
  N23      1.0000 0.56963  0.61372  0.25782  Biso   1.000  N
  C35      1.0000 0.74355  0.59298  0.26791  Biso   1.000  C
  N24      1.0000 0.74590  0.66389  0.31789  Biso   1.000  N
  H33      1.0000 0.83435  0.77222  0.37683  Biso   1.000  H
  H34      1.0000 0.91168  0.72679  0.34220  Biso   1.000  H
  H35      1.0000 0.62402  0.55954  0.17058  Biso   1.000  H
  O11      1.0000 0.64070  0.38152  0.30409  Biso   1.000  O
  C36      1.0000 0.64135  0.67489  0.31087  Biso   1.000  C
  H36      1.0000 0.80250  0.60961  0.23197  Biso   1.000  H
  O12      1.0000 0.61964  0.73113  0.34522  Biso   1.000  O
  N25      1.0000 0.25517  0.18553  0.83330  Biso   1.000  N
  C37      1.0000 0.14811  0.18769  0.82149  Biso   1.000  C
  C38      1.0000 0.29365  0.12609  0.79022  Biso   1.000  C
  C39      1.0000 0.32740  0.24782  0.89371  Biso   1.000  C
  O13      1.0000 0.07316  0.14259  0.77282  Biso   1.000  O
  N26      1.0000 0.13837  0.24871  0.86958  Biso   1.000  N
  H37      1.0000 0.37296  0.15439  0.77990  Biso   1.000  H
  H38      1.0000 0.24730  0.10723  0.74167  Biso   1.000  H
  N27      1.0000 0.28603  0.05429  0.82942  Biso   1.000  N
  C40      1.0000 0.24424  0.29254  0.91910  Biso   1.000  C
  H39      1.0000 0.39665  0.28683  0.87489  Biso   1.000  H
  N28      1.0000 0.35404  0.21671  0.96212  Biso   1.000  N
  C41      1.0000 0.03426  0.26763  0.86998  Biso   1.000  C
  C42      1.0000 0.37867  0.04691  0.87677  Biso   1.000  C
  C43      1.0000 0.19742  0.97783  0.81110  Biso   1.000  C
  H40      1.0000 0.27564  0.35233  0.91231  Biso   1.000  H
  N29      1.0000 0.23595  0.27960  0.99909  Biso   1.000  N
  C44      1.0000 0.44103  0.18069  0.97039  Biso   1.000  C
  C45      1.0000 0.30776  0.24131  0.02351  Biso   1.000  C
  H41      1.0000 0.05503  0.32779  0.87312  Biso   1.000  H
  H42      1.0000 0.98724  0.24339  0.82229  Biso   1.000  H
  N30      1.0000 0.96657  0.23622  0.93268  Biso   1.000  N
  H43      1.0000 0.44989  0.06198  0.85138  Biso   1.000  H
  N31      1.0000 0.39759  0.09123  0.95322  Biso   1.000  N
  C46      1.0000 0.33531  0.95366  0.89349  Biso   1.000  C
  N32      1.0000 0.22040  0.91943  0.85081  Biso   1.000  N
  O14      1.0000 0.11351  0.96372  0.76740  Biso   1.000  O
  C47      1.0000 0.18990  0.32540  0.05169  Biso   1.000  C
  H44      1.0000 0.50037  0.20528  0.93702  Biso   1.000  H
  H45      1.0000 0.47665  0.19491  0.02242  Biso   1.000  H
  O15      1.0000 0.32905  0.23090  0.08952  Biso   1.000  O
  C48      1.0000 0.86087  0.17060  0.91808  Biso   1.000  C
  C49      1.0000 0.97692  0.28282  0.00422  Biso   1.000  C
  C50      1.0000 0.37671  0.03784  0.00810  Biso   1.000  C
  H46      1.0000 0.38556  0.92544  0.87437  Biso   1.000  H
  N33      1.0000 0.33699  0.95752  0.97439  Biso   1.000  N
  C51      1.0000 0.16012  0.83066  0.83318  Biso   1.000  C
  N34      1.0000 0.06912  0.28354  0.05899  Biso   1.000  N
  H47      1.0000 0.23208  0.33432  0.10150  Biso   1.000  H
  H48      1.0000 0.20208  0.37994  0.03457  Biso   1.000  H
  N35      1.0000 0.80606  0.16558  0.98380  Biso   1.000  N
  O16      1.0000 0.82539  0.12421  0.85840  Biso   1.000  O
  H49      1.0000 0.98078  0.33981  0.99789  Biso   1.000  H
  C52      1.0000 0.86606  0.23304  0.04159  Biso   1.000  C
  O17      1.0000 0.39366  0.05821  0.07788  Biso   1.000  O
  C53      1.0000 0.31382  0.88401  0.01592  Biso   1.000  C
  H50      1.0000 0.21590  0.80403  0.82599  Biso   1.000  H
  H51      1.0000 0.11232  0.82042  0.78537  Biso   1.000  H
  N36      1.0000 0.08848  0.79234  0.89120  Biso   1.000  N
  C54      1.0000 0.02920  0.24190  0.12049  Biso   1.000  C
  C55      1.0000 0.68626  0.11598  0.98408  Biso   1.000  C
  H52      1.0000 0.82061  0.26746  0.05460  Biso   1.000  H
  N37      1.0000 0.91147  0.20770  0.10880  Biso   1.000  N
  H53      1.0000 0.35219  0.84916  0.99338  Biso   1.000  H
  H54      1.0000 0.34690  0.90231  0.06818  Biso   1.000  H
  N38      1.0000 0.19401  0.83441  0.01620  Biso   1.000  N
  C56      1.0000 0.97082  0.75814  0.87951  Biso   1.000  C
  C57      1.0000 0.13392  0.76706  0.95841  Biso   1.000  C
  O18      1.0000 0.08780  0.23846  0.17641  Biso   1.000  O
  H55      1.0000 0.65313  0.09774  0.93182  Biso   1.000  H
  H56      1.0000 0.64779  0.15095  0.00662  Biso   1.000  H
  N39      1.0000 0.66295  0.04252  0.02562  Biso   1.000  N
  C58      1.0000 0.83986  0.16945  0.16682  Biso   1.000  C
  C59      1.0000 0.13913  0.82938  0.08193  Biso   1.000  C
  N40      1.0000 0.93085  0.71656  0.94101  Biso   1.000  N
  O19      1.0000 0.91218  0.76165  0.82360  Biso   1.000  O
  C60      1.0000 0.02310  0.71722  0.99578  Biso   1.000  C
  H57      1.0000 0.17937  0.73265  0.94540  Biso   1.000  H
  C61      1.0000 0.62326  0.96226  0.99190  Biso   1.000  C
  C62      1.0000 0.66467  0.04645  0.10652  Biso   1.000  C
  H58      1.0000 0.78405  0.19601  0.17401  Biso   1.000  H
  H59      1.0000 0.88770  0.17962  0.21457  Biso   1.000  H
  N41      1.0000 0.77955  0.08062  0.14919  Biso   1.000  N
  N42      1.0000 0.03346  0.76383  0.06732  Biso   1.000  N
  O20      1.0000 0.17468  0.87577  0.14160  Biso   1.000  O
  C63      1.0000 0.81005  0.67464  0.94831  Biso   1.000  C
  H60      1.0000 0.01929  0.66018  0.00211  Biso   1.000  H
  O21      1.0000 0.60628  0.94183  0.92207  Biso   1.000  O
  N43      1.0000 0.60252  0.90882  0.04678  Biso   1.000  N
  C64      1.0000 0.62143  0.95313  0.12318  Biso   1.000  C
  H61      1.0000 0.61438  0.07461  0.12563  Biso   1.000  H
  C65      1.0000 0.80253  0.02221  0.18890  Biso   1.000  C
  C66      1.0000 0.96577  0.73241  0.13002  Biso   1.000  C
  H62      1.0000 0.76786  0.66572  0.89851  Biso   1.000  H
  H63      1.0000 0.79786  0.62010  0.96537  Biso   1.000  H
  N44      1.0000 0.76405  0.72038  0.00091  Biso   1.000  N
  C67      1.0000 0.55896  0.81929  0.02961  Biso   1.000  C
  H64      1.0000 0.55010  0.93800  0.14862  Biso   1.000  H
  N45      1.0000 0.71396  0.94569  0.17059  Biso   1.000  N
  O22      1.0000 0.88643  0.03633  0.23260  Biso   1.000  O
  H65      1.0000 0.94496  0.67219  0.12688  Biso   1.000  H
  N46      1.0000 0.86162  0.75127  0.13042  Biso   1.000  N
  H66      1.0000 0.01276  0.75659  0.17772  Biso   1.000  H
  C68      1.0000 0.69219  0.75873  0.97650  Biso   1.000  C
  C69      1.0000 0.75579  0.70751  0.08090  Biso   1.000  C
  H67      1.0000 0.52330  0.80513  0.97758  Biso   1.000  H
  H68      1.0000 0.49970  0.79470  0.06299  Biso   1.000  H
  N47      1.0000 0.64596  0.78328  0.03788  Biso   1.000  N
  C70      1.0000 0.70634  0.87390  0.20978  Biso   1.000  C
  C71      1.0000 0.85189  0.81230  0.17852  Biso   1.000  C
  O23      1.0000 0.67089  0.76914  0.91049  Biso   1.000  O
  C72      1.0000 0.67267  0.75216  0.10629  Biso   1.000  C
  H69      1.0000 0.72439  0.64771  0.08769  Biso   1.000  H
  H70      1.0000 0.62704  0.84559  0.22011  Biso   1.000  H
  H71      1.0000 0.75280  0.89281  0.25827  Biso   1.000  H
  N48      1.0000 0.74485  0.81452  0.16671  Biso   1.000  N
  O24      1.0000 0.92683  0.85739  0.22718  Biso   1.000  O
  H72      1.0000 0.60338  0.71321  0.12512  Biso   1.000  H
  Ne1      1.0000 0.50000  0.50001  0.50000  Biso   1.000  Ne
  He1      1.0000 0.48003  0.68596  0.53463  Biso   1.000  He
  He2      1.0000 0.51863  0.32589  0.46700  Biso   1.000  He
  Ar1      1.0000 0.50000  0.50001  0.50000  Biso   1.000  Ar
  Ne2      1.0000 1.00000  0.00002  1.00000  Biso   1.000  Ne
  He3      1.0000 0.14447  0.06207  0.15697  Biso   1.000  He
  He4      1.0000 0.86279  0.94042  0.85117  Biso   1.000  He
  Ar2      1.0000 0.00001  0.00000  0.00001  Biso   1.000  Ar
