data_image0
_cell_length_a       10.229
_cell_length_b       17.037
_cell_length_c       14.599
_cell_angle_alpha    90
_cell_angle_beta     108.8
_cell_angle_gamma    90

_symmetry_space_group_name_H-M    "P 1"
_symmetry_int_tables_number       1

loop_
  _symmetry_equiv_pos_as_xyz
  'x, y, z'

loop_
  _atom_site_label
  _atom_site_occupancy
  _atom_site_fract_x
  _atom_site_fract_y
  _atom_site_fract_z
  _atom_site_thermal_displace_type
  _atom_site_B_iso_or_equiv
  _atom_site_type_symbol
  C1       1.0000 0.71274  0.43752  0.53661  Biso   1.000  C
  C2       1.0000 0.66210  0.37771  0.58422  Biso   1.000  C
  C3       1.0000 0.67620  0.41950  0.44037  Biso   1.000  C
  H1       1.0000 0.76354  0.48248  0.56671  Biso   1.000  H
  C4       1.0000 0.59533  0.32353  0.51620  Biso   1.000  C
  H2       1.0000 0.67271  0.37583  0.65130  Biso   1.000  H
  N1       1.0000 0.60635  0.34848  0.42879  Biso   1.000  N
  C5       1.0000 0.70005  0.46059  0.35492  Biso   1.000  C
  C6       1.0000 0.51451  0.24999  0.52329  Biso   1.000  C
  H3       1.0000 0.57366  0.32289  0.37366  Biso   1.000  H
  C7       1.0000 0.81782  0.42161  0.33082  Biso   1.000  C
  C8       1.0000 0.56570  0.45830  0.26751  Biso   1.000  C
  C9       1.0000 0.73723  0.54751  0.38198  Biso   1.000  C
  C10      1.0000 0.37307  0.24999  0.44363  Biso   1.000  C
  C11      1.0000 0.59533  0.17650  0.51620  Biso   1.000  C
  C12      1.0000 0.49216  0.24999  0.62221  Biso   1.000  C
  C13      1.0000 0.94947  0.44497  0.34160  Biso   1.000  C
  N2       1.0000 0.80376  0.34783  0.28878  Biso   1.000  N
  C14      1.0000 0.43840  0.46622  0.28278  Biso   1.000  C
  C15      1.0000 0.56397  0.45055  0.17171  Biso   1.000  C
  H4       1.0000 0.82045  0.54998  0.43900  Biso   1.000  H
  H5       1.0000 0.66050  0.57311  0.39667  Biso   1.000  H
  H6       1.0000 0.75440  0.57440  0.32771  Biso   1.000  H
  H7       1.0000 0.32464  0.20092  0.44631  Biso   1.000  H
  H8       1.0000 0.32464  0.29911  0.44631  Biso   1.000  H
  H9       1.0000 0.31813  0.29442  0.45340  Biso   1.000  H
  H10      1.0000 0.31813  0.20561  0.45340  Biso   1.000  H
  H11      1.0000 0.38612  0.25468  0.38017  Biso   1.000  H
  H12      1.0000 0.38612  0.24529  0.38017  Biso   1.000  H
  C16      1.0000 0.66210  0.12226  0.58422  Biso   1.000  C
  N3       1.0000 0.60635  0.15155  0.42879  Biso   1.000  N
  H13      1.0000 0.45244  0.19962  0.63212  Biso   1.000  H
  H14      1.0000 0.45244  0.30041  0.63212  Biso   1.000  H
  H15      1.0000 0.42880  0.29260  0.62452  Biso   1.000  H
  H16      1.0000 0.42880  0.20737  0.62452  Biso   1.000  H
  H17      1.0000 0.58077  0.25779  0.67329  Biso   1.000  H
  H18      1.0000 0.58077  0.24218  0.67329  Biso   1.000  H
  H19      1.0000 0.99024  0.49340  0.36859  Biso   1.000  H
  C17      1.0000 0.01466  0.38469  0.30542  Biso   1.000  C
  C18      1.0000 0.92266  0.32441  0.27120  Biso   1.000  C
  H20      1.0000 0.72825  0.31931  0.27511  Biso   1.000  H
  H21      1.0000 0.43608  0.47403  0.34660  Biso   1.000  H
  C19      1.0000 0.31566  0.46293  0.20658  Biso   1.000  C
  C20      1.0000 0.44089  0.44709  0.09349  Biso   1.000  C
  H22      1.0000 0.64939  0.44750  0.15912  Biso   1.000  H
  H23      1.0000 0.67271  0.12420  0.65130  Biso   1.000  H
  C21      1.0000 0.71274  0.06245  0.53661  Biso   1.000  C
  C22      1.0000 0.67620  0.08053  0.44037  Biso   1.000  C
  H24      1.0000 0.57366  0.17709  0.37366  Biso   1.000  H
  H25      1.0000 0.10740  0.38581  0.30492  Biso   1.000  H
  C23      1.0000 0.92861  0.24999  0.21548  Biso   1.000  C
  H26      1.0000 0.23050  0.46810  0.21910  Biso   1.000  H
  C24      1.0000 0.31557  0.45219  0.11179  Biso   1.000  C
  H27      1.0000 0.44294  0.44139  0.02931  Biso   1.000  H
  H28      1.0000 0.76354  0.01749  0.56671  Biso   1.000  H
  C25      1.0000 0.70005  0.03944  0.35492  Biso   1.000  C
  C26      1.0000 0.92266  0.17562  0.27120  Biso   1.000  C
  C27      1.0000 0.80485  0.24999  0.12069  Biso   1.000  C
  C28      1.0000 0.06223  0.24999  0.18907  Biso   1.000  C
  O1       1.0000 0.18698  0.44521  0.04392  Biso   1.000  O
  C29      1.0000 0.81782  0.07842  0.33082  Biso   1.000  C
  C30      1.0000 0.56570  0.04173  0.26751  Biso   1.000  C
  C31      1.0000 0.73723  0.95252  0.38198  Biso   1.000  C
  N4       1.0000 0.80376  0.15220  0.28878  Biso   1.000  N
  C32      1.0000 0.01466  0.11528  0.30542  Biso   1.000  C
  H29      1.0000 0.80539  0.20139  0.08488  Biso   1.000  H
  H30      1.0000 0.80539  0.29859  0.08488  Biso   1.000  H
  H31      1.0000 0.71864  0.25351  0.13603  Biso   1.000  H
  H32      1.0000 0.71864  0.24652  0.13603  Biso   1.000  H
  H33      1.0000 0.81219  0.29512  0.08097  Biso   1.000  H
  H34      1.0000 0.81219  0.20491  0.08097  Biso   1.000  H
  H35      1.0000 0.14211  0.24999  0.24841  Biso   1.000  H
  H36      1.0000 0.06367  0.29618  0.14949  Biso   1.000  H
  H37      1.0000 0.06367  0.20379  0.14949  Biso   1.000  H
  C33      1.0000 0.17366  0.43658  0.94291  Biso   1.000  C
  C34      1.0000 0.94947  0.05500  0.34160  Biso   1.000  C
  C35      1.0000 0.43840  0.03375  0.28278  Biso   1.000  C
  C36      1.0000 0.56397  0.04948  0.17171  Biso   1.000  C
  H38      1.0000 0.82045  0.94999  0.43900  Biso   1.000  H
  H39      1.0000 0.66050  0.92692  0.39667  Biso   1.000  H
  H40      1.0000 0.75440  0.92557  0.32771  Biso   1.000  H
  H41      1.0000 0.72825  0.18072  0.27511  Biso   1.000  H
  H42      1.0000 0.10740  0.11422  0.30492  Biso   1.000  H
  H43      1.0000 0.24189  0.39819  0.93481  Biso   1.000  H
  H44      1.0000 0.18871  0.48753  0.91527  Biso   1.000  H
  C37      1.0000 0.02893  0.40776  0.89392  Biso   1.000  C
  H45      1.0000 0.99024  0.00657  0.36859  Biso   1.000  H
  H46      1.0000 0.43608  0.02600  0.34660  Biso   1.000  H
  C38      1.0000 0.31566  0.03710  0.20658  Biso   1.000  C
  C39      1.0000 0.44089  0.05288  0.09349  Biso   1.000  C
  H47      1.0000 0.64939  0.05247  0.15912  Biso   1.000  H
  H48      1.0000 0.96267  0.43828  0.91606  Biso   1.000  H
  H49      1.0000 0.00417  0.41381  0.82287  Biso   1.000  H
  O2       1.0000 0.02496  0.32670  0.91867  Biso   1.000  O
  H50      1.0000 0.23050  0.03187  0.21910  Biso   1.000  H
  C40      1.0000 0.31557  0.04784  0.11179  Biso   1.000  C
  H51      1.0000 0.44294  0.05858  0.02931  Biso   1.000  H
  C41      1.0000 0.89674  0.29236  0.89899  Biso   1.000  C
  O3       1.0000 0.18698  0.05482  0.04392  Biso   1.000  O
  C42      1.0000 0.89674  0.20761  0.89899  Biso   1.000  C
  C43      1.0000 0.77546  0.33198  0.88249  Biso   1.000  C
  C44      1.0000 0.17366  0.06345  0.94291  Biso   1.000  C
  O4       1.0000 0.02496  0.17333  0.91867  Biso   1.000  O
  C45      1.0000 0.77546  0.16805  0.88249  Biso   1.000  C
  H52      1.0000 0.77590  0.38769  0.88112  Biso   1.000  H
  C46      1.0000 0.64822  0.29172  0.86730  Biso   1.000  C
  H53      1.0000 0.24189  0.10178  0.93481  Biso   1.000  H
  H54      1.0000 0.18871  0.01250  0.91527  Biso   1.000  H
  C47      1.0000 0.02893  0.09221  0.89392  Biso   1.000  C
  H55      1.0000 0.77590  0.11229  0.88112  Biso   1.000  H
  C48      1.0000 0.64822  0.20825  0.86730  Biso   1.000  C
  C49      1.0000 0.52045  0.33192  0.85029  Biso   1.000  C
  H56      1.0000 0.96267  0.06169  0.91606  Biso   1.000  H
  H57      1.0000 0.00417  0.08622  0.82287  Biso   1.000  H
  C50      1.0000 0.52045  0.16805  0.85029  Biso   1.000  C
  H58      1.0000 0.51908  0.38769  0.85073  Biso   1.000  H
  C51      1.0000 0.39948  0.29107  0.83321  Biso   1.000  C
  H59      1.0000 0.51908  0.11229  0.85073  Biso   1.000  H
  C52      1.0000 0.39948  0.20890  0.83321  Biso   1.000  C
  H60      1.0000 0.31497  0.31878  0.82142  Biso   1.000  H
  H61      1.0000 0.31497  0.18119  0.82142  Biso   1.000  H
  C53      1.0000 0.28713  0.56248  0.46338  Biso   1.000  C
  C54      1.0000 0.33787  0.62229  0.41577  Biso   1.000  C
  H62      1.0000 0.23634  0.51752  0.43328  Biso   1.000  H
  C55      1.0000 0.32377  0.58050  0.55962  Biso   1.000  C
  C56      1.0000 0.40455  0.67647  0.48379  Biso   1.000  C
  H63      1.0000 0.32716  0.62417  0.34869  Biso   1.000  H
  C57      1.0000 0.29983  0.53941  0.64507  Biso   1.000  C
  N5       1.0000 0.39352  0.65152  0.57120  Biso   1.000  N
  C58      1.0000 0.48536  0.75001  0.47670  Biso   1.000  C
  C59      1.0000 0.18216  0.57839  0.66917  Biso   1.000  C
  C60      1.0000 0.43427  0.54170  0.73248  Biso   1.000  C
  C61      1.0000 0.26264  0.45249  0.61801  Biso   1.000  C
  H64      1.0000 0.42628  0.67711  0.62626  Biso   1.000  H
  C62      1.0000 0.40455  0.82350  0.48379  Biso   1.000  C
  C63      1.0000 0.62680  0.75001  0.55636  Biso   1.000  C
  C64      1.0000 0.50781  0.75001  0.37778  Biso   1.000  C
  C65      1.0000 0.05040  0.55503  0.65839  Biso   1.000  C
  N6       1.0000 0.19612  0.65217  0.71121  Biso   1.000  N
  C66      1.0000 0.56157  0.53378  0.71721  Biso   1.000  C
  C67      1.0000 0.43591  0.54945  0.82828  Biso   1.000  C
  H65      1.0000 0.17942  0.45002  0.56099  Biso   1.000  H
  H66      1.0000 0.33947  0.42689  0.60332  Biso   1.000  H
  H67      1.0000 0.24557  0.42560  0.67228  Biso   1.000  H
  C68      1.0000 0.33787  0.87774  0.41577  Biso   1.000  C
  N7       1.0000 0.39352  0.84845  0.57120  Biso   1.000  N
  H68      1.0000 0.67523  0.70089  0.55368  Biso   1.000  H
  H69      1.0000 0.67523  0.79908  0.55368  Biso   1.000  H
  H70      1.0000 0.68175  0.79439  0.54659  Biso   1.000  H
  H71      1.0000 0.68175  0.70558  0.54659  Biso   1.000  H
  H72      1.0000 0.61376  0.75471  0.61982  Biso   1.000  H
  H73      1.0000 0.61376  0.74532  0.61982  Biso   1.000  H
  H74      1.0000 0.54744  0.69959  0.36787  Biso   1.000  H
  H75      1.0000 0.54744  0.80038  0.36787  Biso   1.000  H
  H76      1.0000 0.57117  0.79263  0.37547  Biso   1.000  H
  H77      1.0000 0.57117  0.70740  0.37547  Biso   1.000  H
  H78      1.0000 0.41920  0.75782  0.32670  Biso   1.000  H
  H79      1.0000 0.41920  0.74221  0.32670  Biso   1.000  H
  H80      1.0000 0.00964  0.50660  0.63140  Biso   1.000  H
  C69      1.0000 0.98522  0.61531  0.69457  Biso   1.000  C
  C70      1.0000 0.07721  0.67559  0.72879  Biso   1.000  C
  H81      1.0000 0.27162  0.68069  0.72488  Biso   1.000  H
  H82      1.0000 0.56389  0.52597  0.65339  Biso   1.000  H
  C71      1.0000 0.68421  0.53707  0.79341  Biso   1.000  C
  C72      1.0000 0.55908  0.55291  0.90650  Biso   1.000  C
  H83      1.0000 0.35049  0.55250  0.84087  Biso   1.000  H
  H84      1.0000 0.32716  0.87580  0.34869  Biso   1.000  H
  C73      1.0000 0.28713  0.93755  0.46338  Biso   1.000  C
  C74      1.0000 0.32377  0.91947  0.55962  Biso   1.000  C
  H85      1.0000 0.42628  0.82291  0.62626  Biso   1.000  H
  H86      1.0000 0.89257  0.61419  0.69507  Biso   1.000  H
  C75      1.0000 0.07136  0.75001  0.78451  Biso   1.000  C
  H87      1.0000 0.76947  0.53190  0.78089  Biso   1.000  H
  C76      1.0000 0.68430  0.54781  0.88820  Biso   1.000  C
  H88      1.0000 0.55703  0.55861  0.97069  Biso   1.000  H
  H89      1.0000 0.23634  0.98251  0.43328  Biso   1.000  H
  C77      1.0000 0.29983  0.96056  0.64507  Biso   1.000  C
  C78      1.0000 0.07721  0.82438  0.72879  Biso   1.000  C
  C79      1.0000 0.19502  0.75001  0.87930  Biso   1.000  C
  C80      1.0000 0.93765  0.75001  0.81092  Biso   1.000  C
  O5       1.0000 0.81289  0.55479  0.95607  Biso   1.000  O
  C81      1.0000 0.18216  0.92158  0.66917  Biso   1.000  C
  C82      1.0000 0.43427  0.95827  0.73248  Biso   1.000  C
  C83      1.0000 0.26264  0.04748  0.61801  Biso   1.000  C
  N8       1.0000 0.19612  0.84780  0.71121  Biso   1.000  N
  C84      1.0000 0.98522  0.88472  0.69457  Biso   1.000  C
  H90      1.0000 0.19458  0.70141  0.91511  Biso   1.000  H
  H91      1.0000 0.19458  0.79861  0.91511  Biso   1.000  H
  H92      1.0000 0.28133  0.75348  0.86396  Biso   1.000  H
  H93      1.0000 0.28133  0.74649  0.86396  Biso   1.000  H
  H94      1.0000 0.18774  0.79509  0.91895  Biso   1.000  H
  H95      1.0000 0.18774  0.70488  0.91895  Biso   1.000  H
  H96      1.0000 0.85786  0.75001  0.75158  Biso   1.000  H
  H97      1.0000 0.93620  0.79621  0.85050  Biso   1.000  H
  H98      1.0000 0.93620  0.70382  0.85050  Biso   1.000  H
  C85      1.0000 0.82631  0.56342  0.05708  Biso   1.000  C
  C86      1.0000 0.05040  0.94500  0.65839  Biso   1.000  C
  C87      1.0000 0.56157  0.96625  0.71721  Biso   1.000  C
  C88      1.0000 0.43591  0.95052  0.82828  Biso   1.000  C
  H99      1.0000 0.17942  0.05001  0.56099  Biso   1.000  H
  H100     1.0000 0.33947  0.07308  0.60332  Biso   1.000  H
  H101     1.0000 0.24557  0.07443  0.67228  Biso   1.000  H
  H102     1.0000 0.27162  0.81928  0.72488  Biso   1.000  H
  H103     1.0000 0.89257  0.88578  0.69507  Biso   1.000  H
  H104     1.0000 0.75808  0.60181  0.06519  Biso   1.000  H
  H105     1.0000 0.81116  0.51247  0.08472  Biso   1.000  H
  C89      1.0000 0.97094  0.59224  0.10607  Biso   1.000  C
  H106     1.0000 0.00964  0.99343  0.63140  Biso   1.000  H
  H107     1.0000 0.56389  0.97400  0.65339  Biso   1.000  H
  C90      1.0000 0.68421  0.96290  0.79341  Biso   1.000  C
  C91      1.0000 0.55908  0.94712  0.90650  Biso   1.000  C
  H108     1.0000 0.35049  0.94753  0.84087  Biso   1.000  H
  H109     1.0000 0.99580  0.58619  0.17712  Biso   1.000  H
  O6       1.0000 0.97491  0.67330  0.08132  Biso   1.000  O
  H110     1.0000 0.03727  0.56172  0.08385  Biso   1.000  H
  H111     1.0000 0.76947  0.96813  0.78089  Biso   1.000  H
  C92      1.0000 0.68430  0.95216  0.88820  Biso   1.000  C
  H112     1.0000 0.55703  0.94142  0.97069  Biso   1.000  H
  C93      1.0000 0.10313  0.70764  0.10100  Biso   1.000  C
  O7       1.0000 0.81289  0.94518  0.95607  Biso   1.000  O
  C94      1.0000 0.10313  0.79239  0.10100  Biso   1.000  C
  C95      1.0000 0.22452  0.66802  0.11750  Biso   1.000  C
  C96      1.0000 0.82631  0.93655  0.05708  Biso   1.000  C
  O8       1.0000 0.97491  0.82667  0.08132  Biso   1.000  O
  C97      1.0000 0.22452  0.83195  0.11750  Biso   1.000  C
  H113     1.0000 0.22407  0.61231  0.11887  Biso   1.000  H
  C98      1.0000 0.35165  0.70828  0.13270  Biso   1.000  C
  H114     1.0000 0.75808  0.89822  0.06519  Biso   1.000  H
  H115     1.0000 0.81116  0.98750  0.08472  Biso   1.000  H
  C99      1.0000 0.97094  0.90779  0.10607  Biso   1.000  C
  H116     1.0000 0.22407  0.88771  0.11887  Biso   1.000  H
  C100     1.0000 0.35165  0.79175  0.13270  Biso   1.000  C
  C101     1.0000 0.47943  0.66808  0.14970  Biso   1.000  C
  H117     1.0000 0.99580  0.91378  0.17712  Biso   1.000  H
  H118     1.0000 0.03727  0.93831  0.08385  Biso   1.000  H
  C102     1.0000 0.47943  0.83195  0.14970  Biso   1.000  C
  H119     1.0000 0.48089  0.61231  0.14927  Biso   1.000  H
  C103     1.0000 0.60046  0.70893  0.16670  Biso   1.000  C
  H120     1.0000 0.48089  0.88771  0.14927  Biso   1.000  H
  C104     1.0000 0.60046  0.79110  0.16670  Biso   1.000  C
  H121     1.0000 0.68490  0.68122  0.17857  Biso   1.000  H
  H122     1.0000 0.68490  0.81881  0.17857  Biso   1.000  H
