data_image0
_cell_length_a       15.927
_cell_length_b       13.322
_cell_length_c       16.149
_cell_angle_alpha    90
_cell_angle_beta     111.4
_cell_angle_gamma    90

_symmetry_space_group_name_H-M    "P 1"
_symmetry_int_tables_number       1

loop_
  _symmetry_equiv_pos_as_xyz
  'x, y, z'

loop_
  _atom_site_label
  _atom_site_occupancy
  _atom_site_fract_x
  _atom_site_fract_y
  _atom_site_fract_z
  _atom_site_thermal_displace_type
  _atom_site_B_iso_or_equiv
  _atom_site_type_symbol
  C1       1.0000 0.18463  0.40970  0.54930  Biso   1.000  C
  C2       1.0000 0.12302  0.41120  0.45013  Biso   1.000  C
  H1       1.0000 0.15062  0.43019  0.58481  Biso   1.000  H
  H2       1.0000 0.23407  0.45496  0.55887  Biso   1.000  H
  H3       1.0000 0.20724  0.34297  0.56592  Biso   1.000  H
  C3       1.0000 0.17807  0.38740  0.39340  Biso   1.000  C
  C4       1.0000 0.08773  0.51869  0.42838  Biso   1.000  C
  C5       1.0000 0.04853  0.33599  0.43377  Biso   1.000  C
  N1       1.0000 0.14717  0.32540  0.32144  Biso   1.000  N
  C6       1.0000 0.25748  0.42569  0.39386  Biso   1.000  C
  O1       1.0000 0.03438  0.52560  0.33527  Biso   1.000  O
  H4       1.0000 0.05141  0.53626  0.46310  Biso   1.000  H
  H5       1.0000 0.13799  0.56516  0.44341  Biso   1.000  H
  C7       1.0000 0.05020  0.24231  0.46782  Biso   1.000  C
  N2       1.0000 0.96399  0.34890  0.37192  Biso   1.000  N
  C8       1.0000 0.20433  0.32488  0.27481  Biso   1.000  C
  H6       1.0000 0.09801  0.28997  0.30700  Biso   1.000  H
  C9       1.0000 0.27251  0.38688  0.31911  Biso   1.000  C
  H7       1.0000 0.29521  0.46945  0.43596  Biso   1.000  H
  C10      1.0000 0.01762  0.61898  0.29743  Biso   1.000  C
  H8       1.0000 0.09904  0.21258  0.51192  Biso   1.000  H
  C11      1.0000 0.96551  0.19847  0.42472  Biso   1.000  C
  C12      1.0000 0.91171  0.26498  0.36467  Biso   1.000  C
  H9       1.0000 0.94499  0.40197  0.33600  Biso   1.000  H
  C13      1.0000 0.18608  0.26182  0.19307  Biso   1.000  C
  H10      1.0000 0.32150  0.40182  0.30301  Biso   1.000  H
  C14      1.0000 0.98238  0.61898  0.20252  Biso   1.000  C
  C15      1.0000 0.03200  0.70718  0.34259  Biso   1.000  C
  H11      1.0000 0.94870  0.13436  0.43530  Biso   1.000  H
  C16      1.0000 0.81391  0.26182  0.30687  Biso   1.000  C
  C17      1.0000 0.08829  0.26498  0.13528  Biso   1.000  C
  C18      1.0000 0.24062  0.30161  0.13887  Biso   1.000  C
  C19      1.0000 0.21391  0.15253  0.22061  Biso   1.000  C
  O2       1.0000 0.96564  0.52560  0.16474  Biso   1.000  O
  C20      1.0000 0.96802  0.70718  0.15743  Biso   1.000  C
  H12      1.0000 0.05279  0.70658  0.40437  Biso   1.000  H
  C21      1.0000 0.01565  0.79995  0.29670  Biso   1.000  C
  C22      1.0000 0.79569  0.32488  0.22520  Biso   1.000  C
  C23      1.0000 0.75938  0.30161  0.36108  Biso   1.000  C
  C24      1.0000 0.78611  0.15253  0.27940  Biso   1.000  C
  N3       1.0000 0.03603  0.34890  0.12810  Biso   1.000  N
  C25      1.0000 0.03451  0.19847  0.07529  Biso   1.000  C
  H13      1.0000 0.22410  0.26543  0.08387  Biso   1.000  H
  H14      1.0000 0.30380  0.29260  0.17219  Biso   1.000  H
  H15      1.0000 0.22810  0.37172  0.12677  Biso   1.000  H
  H16      1.0000 0.18202  0.12828  0.25679  Biso   1.000  H
  H17      1.0000 0.27761  0.14968  0.25380  Biso   1.000  H
  H18      1.0000 0.19949  0.11147  0.16840  Biso   1.000  H
  C26      1.0000 0.91227  0.51869  0.07156  Biso   1.000  C
  H19      1.0000 0.94721  0.70658  0.09557  Biso   1.000  H
  C27      1.0000 0.98437  0.79995  0.20332  Biso   1.000  C
  C28      1.0000 0.03093  0.89258  0.34259  Biso   1.000  C
  N4       1.0000 0.85284  0.32540  0.17858  Biso   1.000  N
  C29      1.0000 0.72750  0.38688  0.18090  Biso   1.000  C
  H20      1.0000 0.77590  0.26543  0.41608  Biso   1.000  H
  H21      1.0000 0.69622  0.29260  0.32782  Biso   1.000  H
  H22      1.0000 0.77189  0.37172  0.37318  Biso   1.000  H
  H23      1.0000 0.81799  0.12828  0.24322  Biso   1.000  H
  H24      1.0000 0.72241  0.14968  0.24622  Biso   1.000  H
  H25      1.0000 0.80053  0.11147  0.33161  Biso   1.000  H
  H26      1.0000 0.05503  0.40197  0.16401  Biso   1.000  H
  C30      1.0000 0.95149  0.33599  0.06624  Biso   1.000  C
  H27      1.0000 0.05132  0.13436  0.06471  Biso   1.000  H
  C31      1.0000 0.94981  0.24231  0.03219  Biso   1.000  C
  C32      1.0000 0.87700  0.41120  0.04988  Biso   1.000  C
  H28      1.0000 0.94861  0.53626  0.03691  Biso   1.000  H
  H29      1.0000 0.86203  0.56516  0.05660  Biso   1.000  H
  C33      1.0000 0.96909  0.89258  0.15743  Biso   1.000  C
  H30      1.0000 0.05090  0.89333  0.40437  Biso   1.000  H
  C34      1.0000 0.01617  0.98063  0.29656  Biso   1.000  C
  C35      1.0000 0.82195  0.38740  0.10661  Biso   1.000  C
  H31      1.0000 0.90201  0.28997  0.19301  Biso   1.000  H
  C36      1.0000 0.74252  0.42569  0.10608  Biso   1.000  C
  H32      1.0000 0.67852  0.40182  0.19700  Biso   1.000  H
  H33      1.0000 0.90095  0.21258  0.98803  Biso   1.000  H
  C37      1.0000 0.81536  0.40970  0.95065  Biso   1.000  C
  H34      1.0000 0.94909  0.89333  0.09557  Biso   1.000  H
  C38      1.0000 0.98376  0.98063  0.20338  Biso   1.000  C
  H35      1.0000 0.02782  0.04129  0.32722  Biso   1.000  H
  H36      1.0000 0.70478  0.46945  0.06398  Biso   1.000  H
  H37      1.0000 0.84937  0.43019  0.91513  Biso   1.000  H
  H38      1.0000 0.76586  0.45496  0.94107  Biso   1.000  H
  H39      1.0000 0.79278  0.34297  0.93409  Biso   1.000  H
  H40      1.0000 0.97219  0.04129  0.17279  Biso   1.000  H
  C39      1.0000 0.24063  0.69839  0.63888  Biso   1.000  C
  C40      1.0000 0.18610  0.73818  0.69309  Biso   1.000  C
  H41      1.0000 0.22411  0.73457  0.58388  Biso   1.000  H
  H42      1.0000 0.30382  0.70740  0.67220  Biso   1.000  H
  H43      1.0000 0.22812  0.62828  0.62678  Biso   1.000  H
  C41      1.0000 0.08830  0.73495  0.63529  Biso   1.000  C
  C42      1.0000 0.20432  0.67505  0.77476  Biso   1.000  C
  C43      1.0000 0.21390  0.84747  0.72056  Biso   1.000  C
  N5       1.0000 0.03604  0.65103  0.62811  Biso   1.000  N
  C44      1.0000 0.03453  0.80146  0.57530  Biso   1.000  C
  N6       1.0000 0.14719  0.67460  0.82145  Biso   1.000  N
  C45      1.0000 0.27251  0.61305  0.81905  Biso   1.000  C
  H44      1.0000 0.18204  0.87164  0.75680  Biso   1.000  H
  H45      1.0000 0.27763  0.85025  0.75381  Biso   1.000  H
  H46      1.0000 0.19951  0.88846  0.66841  Biso   1.000  H
  H47      1.0000 0.05502  0.59796  0.66396  Biso   1.000  H
  C46      1.0000 0.95148  0.66394  0.56619  Biso   1.000  C
  H48      1.0000 0.05131  0.86556  0.56466  Biso   1.000  H
  C47      1.0000 0.94983  0.75769  0.53220  Biso   1.000  C
  C48      1.0000 0.17808  0.61260  0.89341  Biso   1.000  C
  H49      1.0000 0.09803  0.70995  0.80702  Biso   1.000  H
  C49      1.0000 0.25749  0.57431  0.89388  Biso   1.000  C
  H50      1.0000 0.32149  0.59818  0.80296  Biso   1.000  H
  C50      1.0000 0.87701  0.58880  0.54989  Biso   1.000  C
  H51      1.0000 0.90099  0.78734  0.48811  Biso   1.000  H
  C51      1.0000 0.12301  0.58880  0.95008  Biso   1.000  C
  H52      1.0000 0.29523  0.53048  0.93598  Biso   1.000  H
  C52      1.0000 0.91228  0.48131  0.57158  Biso   1.000  C
  C53      1.0000 0.82194  0.61260  0.60656  Biso   1.000  C
  C54      1.0000 0.81538  0.59030  0.45066  Biso   1.000  C
  C55      1.0000 0.08774  0.48131  0.92840  Biso   1.000  C
  C56      1.0000 0.04855  0.66394  0.93378  Biso   1.000  C
  C57      1.0000 0.18465  0.59030  0.04931  Biso   1.000  C
  O3       1.0000 0.96563  0.47440  0.66469  Biso   1.000  O
  H53      1.0000 0.94860  0.46367  0.53686  Biso   1.000  H
  H54      1.0000 0.86204  0.43477  0.55661  Biso   1.000  H
  N7       1.0000 0.85284  0.67460  0.67852  Biso   1.000  N
  C58      1.0000 0.74253  0.57431  0.60609  Biso   1.000  C
  H55      1.0000 0.84941  0.56981  0.41521  Biso   1.000  H
  H56      1.0000 0.76587  0.54496  0.44109  Biso   1.000  H
  H57      1.0000 0.79280  0.65696  0.43410  Biso   1.000  H
  O4       1.0000 0.03440  0.47440  0.83528  Biso   1.000  O
  H58      1.0000 0.05142  0.46367  0.96311  Biso   1.000  H
  H59      1.0000 0.13798  0.43477  0.94336  Biso   1.000  H
  C59      1.0000 0.05020  0.75769  0.96777  Biso   1.000  C
  N8       1.0000 0.96398  0.65103  0.87186  Biso   1.000  N
  H60      1.0000 0.15064  0.56981  0.08482  Biso   1.000  H
  H61      1.0000 0.23412  0.54496  0.05895  Biso   1.000  H
  H62      1.0000 0.20725  0.65696  0.06594  Biso   1.000  H
  C60      1.0000 0.98239  0.38095  0.70253  Biso   1.000  C
  C61      1.0000 0.79571  0.67505  0.72521  Biso   1.000  C
  H63      1.0000 0.90200  0.70995  0.69295  Biso   1.000  H
  H64      1.0000 0.70480  0.53048  0.56399  Biso   1.000  H
  C62      1.0000 0.72752  0.61305  0.68092  Biso   1.000  C
  C63      1.0000 0.01763  0.38095  0.79744  Biso   1.000  C
  C64      1.0000 0.96550  0.80146  0.92467  Biso   1.000  C
  H65      1.0000 0.09906  0.78734  0.01193  Biso   1.000  H
  C65      1.0000 0.91172  0.73495  0.86468  Biso   1.000  C
  H66      1.0000 0.94501  0.59796  0.83601  Biso   1.000  H
  C66      1.0000 0.96803  0.29282  0.65744  Biso   1.000  C
  C67      1.0000 0.81393  0.73818  0.80688  Biso   1.000  C
  H67      1.0000 0.67854  0.59818  0.69701  Biso   1.000  H
  C68      1.0000 0.03199  0.29282  0.84253  Biso   1.000  C
  H68      1.0000 0.94872  0.86556  0.93531  Biso   1.000  H
  H69      1.0000 0.94722  0.29342  0.59559  Biso   1.000  H
  C69      1.0000 0.98436  0.19997  0.70326  Biso   1.000  C
  C70      1.0000 0.75939  0.69839  0.86109  Biso   1.000  C
  C71      1.0000 0.78613  0.84747  0.77942  Biso   1.000  C
  H70      1.0000 0.05280  0.29342  0.90439  Biso   1.000  H
  C72      1.0000 0.01567  0.19997  0.79671  Biso   1.000  C
  C73      1.0000 0.96908  0.10742  0.65737  Biso   1.000  C
  H71      1.0000 0.77591  0.73457  0.91609  Biso   1.000  H
  H72      1.0000 0.69621  0.70740  0.82777  Biso   1.000  H
  H73      1.0000 0.77191  0.62828  0.87319  Biso   1.000  H
  H74      1.0000 0.81798  0.87164  0.74317  Biso   1.000  H
  H75      1.0000 0.72240  0.85025  0.74616  Biso   1.000  H
  H76      1.0000 0.80052  0.88846  0.83156  Biso   1.000  H
  C74      1.0000 0.03095  0.10742  0.84260  Biso   1.000  C
  H77      1.0000 0.94911  0.10659  0.59559  Biso   1.000  H
  C75      1.0000 0.98378  0.01929  0.70340  Biso   1.000  C
  H78      1.0000 0.05092  0.10659  0.90439  Biso   1.000  H
  C76      1.0000 0.01618  0.01929  0.79658  Biso   1.000  C
  H79      1.0000 0.97221  0.95864  0.67280  Biso   1.000  H
  H80      1.0000 0.02781  0.95864  0.82717  Biso   1.000  H
  C77      1.0000 0.28608  0.65245  0.27940  Biso   1.000  C
  C78      1.0000 0.31388  0.76175  0.30687  Biso   1.000  C
  H81      1.0000 0.31802  0.62828  0.24322  Biso   1.000  H
  H82      1.0000 0.22244  0.64968  0.24622  Biso   1.000  H
  H83      1.0000 0.30050  0.61147  0.33161  Biso   1.000  H
  C79      1.0000 0.41168  0.76498  0.36467  Biso   1.000  C
  C80      1.0000 0.29572  0.82488  0.22520  Biso   1.000  C
  C81      1.0000 0.25941  0.80161  0.36108  Biso   1.000  C
  N9       1.0000 0.46402  0.84890  0.37192  Biso   1.000  N
  C82      1.0000 0.46554  0.69847  0.42472  Biso   1.000  C
  N10      1.0000 0.35281  0.82540  0.17858  Biso   1.000  N
  C83      1.0000 0.22754  0.88688  0.18090  Biso   1.000  C
  H84      1.0000 0.27593  0.76535  0.41608  Biso   1.000  H
  H85      1.0000 0.19619  0.79260  0.32782  Biso   1.000  H
  H86      1.0000 0.27192  0.87164  0.37318  Biso   1.000  H
  C84      1.0000 0.54850  0.83599  0.43377  Biso   1.000  C
  H87      1.0000 0.44502  0.90197  0.33600  Biso   1.000  H
  C85      1.0000 0.55024  0.74231  0.46782  Biso   1.000  C
  H88      1.0000 0.44873  0.63436  0.43530  Biso   1.000  H
  C86      1.0000 0.32192  0.88733  0.10661  Biso   1.000  C
  H89      1.0000 0.40198  0.78997  0.19301  Biso   1.000  H
  C87      1.0000 0.24249  0.92569  0.10608  Biso   1.000  C
  H90      1.0000 0.17849  0.90174  0.19700  Biso   1.000  H
  C88      1.0000 0.62299  0.91120  0.45013  Biso   1.000  C
  H91      1.0000 0.59901  0.71258  0.51192  Biso   1.000  H
  C89      1.0000 0.37703  0.91120  0.04988  Biso   1.000  C
  H92      1.0000 0.20481  0.96945  0.06398  Biso   1.000  H
  C90      1.0000 0.67810  0.88733  0.39340  Biso   1.000  C
  C91      1.0000 0.68460  0.90970  0.54930  Biso   1.000  C
  C92      1.0000 0.58776  0.01869  0.42838  Biso   1.000  C
  C93      1.0000 0.45152  0.83599  0.06624  Biso   1.000  C
  C94      1.0000 0.31539  0.90970  0.95065  Biso   1.000  C
  C95      1.0000 0.41224  0.01869  0.07156  Biso   1.000  C
  N11      1.0000 0.64720  0.82540  0.32144  Biso   1.000  N
  C96      1.0000 0.75751  0.92569  0.39386  Biso   1.000  C
  H93      1.0000 0.65059  0.93019  0.58481  Biso   1.000  H
  H94      1.0000 0.73411  0.95496  0.55887  Biso   1.000  H
  H95      1.0000 0.70720  0.84297  0.56592  Biso   1.000  H
  O5       1.0000 0.53435  0.02560  0.33527  Biso   1.000  O
  H96      1.0000 0.55144  0.03633  0.46310  Biso   1.000  H
  H97      1.0000 0.63802  0.06523  0.44341  Biso   1.000  H
  N12      1.0000 0.53599  0.84890  0.12810  Biso   1.000  N
  C97      1.0000 0.44978  0.74231  0.03219  Biso   1.000  C
  H98      1.0000 0.34940  0.93019  0.91513  Biso   1.000  H
  H99      1.0000 0.26589  0.95496  0.94107  Biso   1.000  H
  H100     1.0000 0.29281  0.84297  0.93409  Biso   1.000  H
  O6       1.0000 0.46567  0.02560  0.16474  Biso   1.000  O
  H101     1.0000 0.44858  0.03633  0.03691  Biso   1.000  H
  H102     1.0000 0.36200  0.06523  0.05660  Biso   1.000  H
  C98      1.0000 0.70430  0.82488  0.27481  Biso   1.000  C
  H103     1.0000 0.59798  0.78997  0.30700  Biso   1.000  H
  H104     1.0000 0.79518  0.96945  0.43596  Biso   1.000  H
  C99      1.0000 0.77248  0.88688  0.31911  Biso   1.000  C
  C100     1.0000 0.51765  0.11905  0.29743  Biso   1.000  C
  C101     1.0000 0.58832  0.76498  0.13528  Biso   1.000  C
  H105     1.0000 0.55500  0.90197  0.16401  Biso   1.000  H
  C102     1.0000 0.53448  0.69847  0.07529  Biso   1.000  C
  H106     1.0000 0.40098  0.71258  0.98803  Biso   1.000  H
  C103     1.0000 0.48235  0.11905  0.20252  Biso   1.000  C
  C104     1.0000 0.68611  0.76175  0.19307  Biso   1.000  C
  H107     1.0000 0.82153  0.90174  0.30301  Biso   1.000  H
  C105     1.0000 0.53197  0.20718  0.34259  Biso   1.000  C
  H108     1.0000 0.55128  0.63436  0.06471  Biso   1.000  H
  C106     1.0000 0.46805  0.20718  0.15743  Biso   1.000  C
  C107     1.0000 0.74058  0.80161  0.13887  Biso   1.000  C
  C108     1.0000 0.71388  0.65245  0.22061  Biso   1.000  C
  H109     1.0000 0.55282  0.20658  0.40437  Biso   1.000  H
  C109     1.0000 0.51568  0.29995  0.29670  Biso   1.000  C
  H110     1.0000 0.44717  0.20658  0.09557  Biso   1.000  H
  C110     1.0000 0.48434  0.29995  0.20332  Biso   1.000  C
  H111     1.0000 0.72406  0.76535  0.08387  Biso   1.000  H
  H112     1.0000 0.80377  0.79260  0.17219  Biso   1.000  H
  H113     1.0000 0.72807  0.87164  0.12677  Biso   1.000  H
  H114     1.0000 0.68199  0.62828  0.25679  Biso   1.000  H
  H115     1.0000 0.77758  0.64968  0.25380  Biso   1.000  H
  H116     1.0000 0.69952  0.61147  0.16840  Biso   1.000  H
  C111     1.0000 0.53090  0.39258  0.34259  Biso   1.000  C
  C112     1.0000 0.46912  0.39258  0.15743  Biso   1.000  C
  H117     1.0000 0.55087  0.39341  0.40437  Biso   1.000  H
  C113     1.0000 0.51620  0.48071  0.29656  Biso   1.000  C
  H118     1.0000 0.44906  0.39341  0.09557  Biso   1.000  H
  C114     1.0000 0.48380  0.48071  0.20338  Biso   1.000  C
  H119     1.0000 0.52779  0.54129  0.32722  Biso   1.000  H
  H120     1.0000 0.47223  0.54129  0.17279  Biso   1.000  H
  C115     1.0000 0.44980  0.25769  0.53220  Biso   1.000  C
  C116     1.0000 0.45151  0.16401  0.56619  Biso   1.000  C
  H121     1.0000 0.40102  0.28742  0.48811  Biso   1.000  H
  C117     1.0000 0.53449  0.30146  0.57530  Biso   1.000  C
  C118     1.0000 0.37704  0.08880  0.54989  Biso   1.000  C
  N13      1.0000 0.53601  0.15103  0.62811  Biso   1.000  N
  C119     1.0000 0.58833  0.23502  0.63529  Biso   1.000  C
  H122     1.0000 0.55128  0.36556  0.56466  Biso   1.000  H
  C120     1.0000 0.31541  0.09030  0.45066  Biso   1.000  C
  C121     1.0000 0.32191  0.11260  0.60656  Biso   1.000  C
  C122     1.0000 0.41225  0.98123  0.57158  Biso   1.000  C
  H123     1.0000 0.55499  0.09803  0.66396  Biso   1.000  H
  C123     1.0000 0.68613  0.23818  0.69309  Biso   1.000  C
  H124     1.0000 0.34944  0.06981  0.41521  Biso   1.000  H
  H125     1.0000 0.26590  0.04496  0.44109  Biso   1.000  H
  H126     1.0000 0.29283  0.15696  0.43410  Biso   1.000  H
  N14      1.0000 0.35280  0.17460  0.67852  Biso   1.000  N
  C124     1.0000 0.24250  0.07431  0.60609  Biso   1.000  C
  O7       1.0000 0.46566  0.97433  0.66469  Biso   1.000  O
  H127     1.0000 0.44857  0.96367  0.53686  Biso   1.000  H
  H128     1.0000 0.36201  0.93477  0.55661  Biso   1.000  H
  C125     1.0000 0.70429  0.17512  0.77476  Biso   1.000  C
  C126     1.0000 0.74060  0.19839  0.63888  Biso   1.000  C
  C127     1.0000 0.71387  0.34747  0.72056  Biso   1.000  C
  C128     1.0000 0.29574  0.17512  0.72521  Biso   1.000  C
  H129     1.0000 0.40197  0.21003  0.69295  Biso   1.000  H
  H130     1.0000 0.20483  0.03048  0.56399  Biso   1.000  H
  C129     1.0000 0.22755  0.11312  0.68092  Biso   1.000  C
  C130     1.0000 0.48236  0.88095  0.70253  Biso   1.000  C
  N15      1.0000 0.64722  0.17460  0.82145  Biso   1.000  N
  C131     1.0000 0.77247  0.11312  0.81905  Biso   1.000  C
  H131     1.0000 0.72408  0.23457  0.58388  Biso   1.000  H
  H132     1.0000 0.80379  0.20740  0.67220  Biso   1.000  H
  H133     1.0000 0.72809  0.12828  0.62678  Biso   1.000  H
  H134     1.0000 0.68201  0.37172  0.75680  Biso   1.000  H
  H135     1.0000 0.77759  0.35032  0.75381  Biso   1.000  H
  H136     1.0000 0.69954  0.38846  0.66841  Biso   1.000  H
  C132     1.0000 0.31390  0.23818  0.80688  Biso   1.000  C
  H137     1.0000 0.17851  0.09818  0.69701  Biso   1.000  H
  C133     1.0000 0.51766  0.88095  0.79744  Biso   1.000  C
  C134     1.0000 0.46807  0.79275  0.65744  Biso   1.000  C
  C135     1.0000 0.67811  0.11260  0.89341  Biso   1.000  C
  H138     1.0000 0.59799  0.21003  0.80702  Biso   1.000  H
  C136     1.0000 0.75752  0.07431  0.89388  Biso   1.000  C
  H139     1.0000 0.82152  0.09818  0.80296  Biso   1.000  H
  C137     1.0000 0.41169  0.23502  0.86468  Biso   1.000  C
  C138     1.0000 0.25943  0.19839  0.86109  Biso   1.000  C
  C139     1.0000 0.28609  0.34747  0.77942  Biso   1.000  C
  O8       1.0000 0.53436  0.97433  0.83528  Biso   1.000  O
  C140     1.0000 0.53196  0.79275  0.84253  Biso   1.000  C
  H140     1.0000 0.44719  0.79335  0.59559  Biso   1.000  H
  C141     1.0000 0.48433  0.69997  0.70326  Biso   1.000  C
  C142     1.0000 0.62298  0.08880  0.95008  Biso   1.000  C
  H141     1.0000 0.79520  0.03048  0.93598  Biso   1.000  H
  N16      1.0000 0.46401  0.15103  0.87186  Biso   1.000  N
  C143     1.0000 0.46553  0.30146  0.92467  Biso   1.000  C
  H142     1.0000 0.27594  0.23457  0.91609  Biso   1.000  H
  H143     1.0000 0.19618  0.20740  0.82777  Biso   1.000  H
  H144     1.0000 0.27194  0.12828  0.87319  Biso   1.000  H
  H145     1.0000 0.31802  0.37172  0.74317  Biso   1.000  H
  H146     1.0000 0.22243  0.35032  0.74616  Biso   1.000  H
  H147     1.0000 0.30049  0.38846  0.83156  Biso   1.000  H
  C144     1.0000 0.58777  0.98123  0.92840  Biso   1.000  C
  H148     1.0000 0.55283  0.79335  0.90439  Biso   1.000  H
  C145     1.0000 0.51570  0.69997  0.79671  Biso   1.000  C
  C146     1.0000 0.46911  0.60734  0.65737  Biso   1.000  C
  C147     1.0000 0.54852  0.16401  0.93378  Biso   1.000  C
  C148     1.0000 0.68462  0.09030  0.04931  Biso   1.000  C
  H149     1.0000 0.44504  0.09803  0.83601  Biso   1.000  H
  C149     1.0000 0.55023  0.25769  0.96777  Biso   1.000  C
  H150     1.0000 0.44875  0.36556  0.93531  Biso   1.000  H
  H151     1.0000 0.55146  0.96367  0.96311  Biso   1.000  H
  H152     1.0000 0.63801  0.93477  0.94336  Biso   1.000  H
  C150     1.0000 0.53092  0.60734  0.84260  Biso   1.000  C
  H153     1.0000 0.44914  0.60659  0.59559  Biso   1.000  H
  C151     1.0000 0.48381  0.51929  0.70340  Biso   1.000  C
  H154     1.0000 0.65061  0.06981  0.08482  Biso   1.000  H
  H155     1.0000 0.73415  0.04496  0.05895  Biso   1.000  H
  H156     1.0000 0.70722  0.15696  0.06594  Biso   1.000  H
  H157     1.0000 0.59903  0.28742  0.01193  Biso   1.000  H
  H158     1.0000 0.55089  0.60659  0.90439  Biso   1.000  H
  C152     1.0000 0.51621  0.51929  0.79658  Biso   1.000  C
  H159     1.0000 0.47224  0.45871  0.67280  Biso   1.000  H
  H160     1.0000 0.52778  0.45871  0.82717  Biso   1.000  H
