data_image0
_cell_length_a       11.691
_cell_length_b       13.399
_cell_length_c       13.665
_cell_angle_alpha    105.23
_cell_angle_beta     99.55
_cell_angle_gamma    102.61

_symmetry_space_group_name_H-M    "P 1"
_symmetry_int_tables_number       1

loop_
  _symmetry_equiv_pos_as_xyz
  'x, y, z'

loop_
  _atom_site_label
  _atom_site_occupancy
  _atom_site_fract_x
  _atom_site_fract_y
  _atom_site_fract_z
  _atom_site_thermal_displace_type
  _atom_site_B_iso_or_equiv
  _atom_site_type_symbol
  C1       1.0000 0.53743  0.12481  0.66297  Biso   1.000  C
  C2       1.0000 0.42250  0.13781  0.62737  Biso   1.000  C
  C3       1.0000 0.54649  0.01675  0.64532  Biso   1.000  C
  C4       1.0000 0.64266  0.21397  0.71121  Biso   1.000  C
  C5       1.0000 0.32212  0.05164  0.58349  Biso   1.000  C
  H1       1.0000 0.41476  0.20675  0.63392  Biso   1.000  H
  C6       1.0000 0.44171  0.92749  0.60035  Biso   1.000  C
  C7       1.0000 0.66250  0.00174  0.67273  Biso   1.000  C
  C8       1.0000 0.64110  0.33154  0.74689  Biso   1.000  C
  C9       1.0000 0.75265  0.19265  0.72940  Biso   1.000  C
  H2       1.0000 0.24788  0.06291  0.56062  Biso   1.000  H
  C10      1.0000 0.33063  0.94564  0.57272  Biso   1.000  C
  C11      1.0000 0.45170  0.81388  0.58326  Biso   1.000  C
  C12      1.0000 0.76338  0.08715  0.71137  Biso   1.000  C
  H3       1.0000 0.67025  0.93258  0.66429  Biso   1.000  H
  C13      1.0000 0.65124  0.36821  0.86478  Biso   1.000  C
  H4       1.0000 0.56789  0.34155  0.70887  Biso   1.000  H
  C14      1.0000 0.75424  0.39714  0.72605  Biso   1.000  C
  O1       1.0000 0.86190  0.27117  0.76805  Biso   1.000  O
  O2       1.0000 0.23269  0.85758  0.53368  Biso   1.000  O
  H5       1.0000 0.51550  0.80368  0.54781  Biso   1.000  H
  H6       1.0000 0.37657  0.76302  0.53977  Biso   1.000  H
  N1       1.0000 0.47790  0.79483  0.68381  Biso   1.000  N
  H7       1.0000 0.83913  0.07553  0.72573  Biso   1.000  H
  C15      1.0000 0.54874  0.36185  0.90990  Biso   1.000  C
  C16      1.0000 0.76386  0.40658  0.93114  Biso   1.000  C
  H8       1.0000 0.75673  0.47273  0.74549  Biso   1.000  H
  H9       1.0000 0.75363  0.37276  0.65251  Biso   1.000  H
  C17      1.0000 0.86231  0.38110  0.79061  Biso   1.000  C
  C18      1.0000 0.11637  0.87243  0.50004  Biso   1.000  C
  C19      1.0000 0.48327  0.69825  0.69365  Biso   1.000  C
  H10      1.0000 0.49064  0.84790  0.73971  Biso   1.000  H
  C20      1.0000 0.42956  0.33160  0.84908  Biso   1.000  C
  C21      1.0000 0.56402  0.38724  0.02076  Biso   1.000  C
  O3       1.0000 0.87070  0.42293  0.89905  Biso   1.000  O
  C22      1.0000 0.78074  0.43185  0.04067  Biso   1.000  C
  H11      1.0000 0.93489  0.42003  0.77507  Biso   1.000  H
  H12      1.0000 0.09449  0.91751  0.55796  Biso   1.000  H
  H13      1.0000 0.11714  0.90666  0.44570  Biso   1.000  H
  C23      1.0000 0.02733  0.76219  0.45881  Biso   1.000  C
  N2       1.0000 0.50525  0.69453  0.79241  Biso   1.000  N
  O4       1.0000 0.46667  0.61829  0.61683  Biso   1.000  O
  H14      1.0000 0.41710  0.31674  0.77710  Biso   1.000  H
  C24      1.0000 0.33157  0.32335  0.89210  Biso   1.000  C
  C25      1.0000 0.46173  0.37799  0.06495  Biso   1.000  C
  C26      1.0000 0.68362  0.42072  0.08353  Biso   1.000  C
  H15      1.0000 0.85831  0.45615  0.08337  Biso   1.000  H
  C27      1.0000 0.90439  0.76414  0.40588  Biso   1.000  C
  H16      1.0000 0.02007  0.73314  0.51620  Biso   1.000  H
  H17      1.0000 0.05788  0.71471  0.40940  Biso   1.000  H
  C28      1.0000 0.52325  0.59935  0.81879  Biso   1.000  C
  H18      1.0000 0.50880  0.75078  0.84221  Biso   1.000  H
  H19      1.0000 0.25432  0.30404  0.84947  Biso   1.000  H
  C29      1.0000 0.34736  0.34380  0.00093  Biso   1.000  C
  C30      1.0000 0.47677  0.40067  0.18119  Biso   1.000  C
  H20      1.0000 0.69572  0.43520  0.15551  Biso   1.000  H
  H21      1.0000 0.87282  0.81034  0.45561  Biso   1.000  H
  H22      1.0000 0.91157  0.79407  0.34913  Biso   1.000  H
  C31      1.0000 0.81763  0.65255  0.36357  Biso   1.000  C
  C32      1.0000 0.53832  0.62211  0.93504  Biso   1.000  C
  H23      1.0000 0.45424  0.53792  0.78171  Biso   1.000  H
  H24      1.0000 0.59445  0.58316  0.79881  Biso   1.000  H
  O5       1.0000 0.25297  0.33269  0.04816  Biso   1.000  O
  H25      1.0000 0.54569  0.46209  0.21828  Biso   1.000  H
  H26      1.0000 0.40551  0.41693  0.20118  Biso   1.000  H
  N3       1.0000 0.49479  0.30556  0.20758  Biso   1.000  N
  H27      1.0000 0.81194  0.62203  0.41947  Biso   1.000  H
  H28      1.0000 0.73944  0.65675  0.33297  Biso   1.000  H
  H29      1.0000 0.84629  0.60781  0.31150  Biso   1.000  H
  C33      1.0000 0.43594  0.61280  0.97930  Biso   1.000  C
  C34      1.0000 0.65269  0.65629  0.99906  Biso   1.000  C
  C35      1.0000 0.13202  0.30024  0.98547  Biso   1.000  C
  C36      1.0000 0.51667  0.30177  0.30634  Biso   1.000  C
  H30      1.0000 0.49124  0.24932  0.15777  Biso   1.000  H
  C37      1.0000 0.31634  0.57937  0.91646  Biso   1.000  C
  C38      1.0000 0.45122  0.63824  0.09009  Biso   1.000  C
  O6       1.0000 0.74707  0.66740  0.95182  Biso   1.000  O
  C39      1.0000 0.66841  0.67682  0.10788  Biso   1.000  C
  H31      1.0000 0.11950  0.35345  0.95151  Biso   1.000  H
  H32      1.0000 0.11755  0.23183  0.93207  Biso   1.000  H
  C40      1.0000 0.04742  0.29009  0.05722  Biso   1.000  C
  N4       1.0000 0.52213  0.20519  0.31617  Biso   1.000  N
  O7       1.0000 0.53335  0.38173  0.38316  Biso   1.000  O
  H33      1.0000 0.30421  0.56482  0.84448  Biso   1.000  H
  C41      1.0000 0.21929  0.56816  0.95932  Biso   1.000  C
  C42      1.0000 0.57050  0.66857  0.15090  Biso   1.000  C
  C43      1.0000 0.34882  0.63196  0.13521  Biso   1.000  C
  C44      1.0000 0.86794  0.69986  0.01451  Biso   1.000  C
  H34      1.0000 0.74564  0.69605  0.15051  Biso   1.000  H
  C45      1.0000 0.93387  0.21907  0.01717  Biso   1.000  C
  H35      1.0000 0.07171  0.33111  0.12732  Biso   1.000  H
  H36      1.0000 0.01841  0.34671  0.08860  Biso   1.000  H
  C46      1.0000 0.01670  0.19230  0.07260  Biso   1.000  C
  C47      1.0000 0.54832  0.18614  0.41673  Biso   1.000  C
  H37      1.0000 0.50940  0.15219  0.26028  Biso   1.000  H
  H38      1.0000 0.14163  0.54386  0.91661  Biso   1.000  H
  C48      1.0000 0.23620  0.59353  0.06893  Biso   1.000  C
  H39      1.0000 0.58294  0.68335  0.22288  Biso   1.000  H
  C49      1.0000 0.35887  0.66862  0.25309  Biso   1.000  C
  C50      1.0000 0.95260  0.70993  0.94277  Biso   1.000  C
  H40      1.0000 0.88054  0.64664  0.04847  Biso   1.000  H
  H41      1.0000 0.88249  0.76827  0.06791  Biso   1.000  H
  H42      1.0000 0.89298  0.23949  0.96080  Biso   1.000  H
  C51      1.0000 0.92467  0.09967  0.97603  Biso   1.000  C
  H43      1.0000 0.88943  0.22879  0.07143  Biso   1.000  H
  H44      1.0000 0.98130  0.19956  0.13255  Biso   1.000  H
  H45      1.0000 0.08960  0.17063  0.08923  Biso   1.000  H
  C52      1.0000 0.55823  0.07253  0.39963  Biso   1.000  C
  H46      1.0000 0.48446  0.19641  0.45217  Biso   1.000  H
  H47      1.0000 0.62345  0.23700  0.46021  Biso   1.000  H
  O8       1.0000 0.12934  0.57717  0.10094  Biso   1.000  O
  H48      1.0000 0.43217  0.65862  0.29111  Biso   1.000  H
  C53      1.0000 0.24583  0.60303  0.27394  Biso   1.000  C
  C54      1.0000 0.35740  0.78619  0.28877  Biso   1.000  C
  H49      1.0000 0.92833  0.66898  0.87266  Biso   1.000  H
  H50      1.0000 0.98164  0.65338  0.91138  Biso   1.000  H
  C55      1.0000 0.98334  0.80779  0.92739  Biso   1.000  C
  C56      1.0000 0.06615  0.78095  0.98282  Biso   1.000  C
  H51      1.0000 0.84138  0.05933  0.95057  Biso   1.000  H
  H52      1.0000 0.96528  0.08746  0.92021  Biso   1.000  H
  H53      1.0000 0.90774  0.03379  0.99312  Biso   1.000  H
  H54      1.0000 0.95954  0.09001  0.91646  Biso   1.000  H
  H55      1.0000 0.85118  0.11917  0.96002  Biso   1.000  H
  H56      1.0000 0.96182  0.07676  0.03130  Biso   1.000  H
  C57      1.0000 0.45357  0.98341  0.35466  Biso   1.000  C
  C58      1.0000 0.66931  0.05438  0.42727  Biso   1.000  C
  C59      1.0000 0.13767  0.61907  0.20938  Biso   1.000  C
  H57      1.0000 0.24331  0.52736  0.25450  Biso   1.000  H
  H58      1.0000 0.24643  0.62741  0.34748  Biso   1.000  H
  C60      1.0000 0.46263  0.87536  0.33702  Biso   1.000  C
  C61      1.0000 0.24742  0.80752  0.27058  Biso   1.000  C
  H59      1.0000 0.91036  0.82946  0.91076  Biso   1.000  H
  H60      1.0000 0.01864  0.80045  0.86743  Biso   1.000  H
  C62      1.0000 0.07539  0.90050  0.02396  Biso   1.000  C
  H61      1.0000 0.11051  0.77123  0.92856  Biso   1.000  H
  H62      1.0000 0.10708  0.76068  0.03918  Biso   1.000  H
  C63      1.0000 0.33746  0.99835  0.32726  Biso   1.000  C
  C64      1.0000 0.67792  0.94845  0.41649  Biso   1.000  C
  O9       1.0000 0.76727  0.14251  0.46630  Biso   1.000  O
  H63      1.0000 0.06515  0.58007  0.22491  Biso   1.000  H
  O10      1.0000 0.13814  0.72892  0.23194  Biso   1.000  O
  C65      1.0000 0.57756  0.86236  0.37262  Biso   1.000  C
  C66      1.0000 0.23668  0.91302  0.28862  Biso   1.000  C
  H64      1.0000 0.03821  0.92326  0.96869  Biso   1.000  H
  H65      1.0000 0.15866  0.94076  0.04941  Biso   1.000  H
  H66      1.0000 0.03478  0.91271  0.07978  Biso   1.000  H
  H67      1.0000 0.09224  0.96638  0.00686  Biso   1.000  H
  H68      1.0000 0.04050  0.91008  0.08353  Biso   1.000  H
  H69      1.0000 0.14889  0.88099  0.03996  Biso   1.000  H
  H70      1.0000 0.32980  0.06751  0.33569  Biso   1.000  H
  H71      1.0000 0.75216  0.93719  0.43937  Biso   1.000  H
  C67      1.0000 0.88367  0.12761  0.50003  Biso   1.000  C
  H72      1.0000 0.58520  0.79335  0.36606  Biso   1.000  H
  H73      1.0000 0.16093  0.92458  0.27433  Biso   1.000  H
  H74      1.0000 0.90553  0.08250  0.44202  Biso   1.000  H
  H75      1.0000 0.88291  0.09343  0.55429  Biso   1.000  H
  C68      1.0000 0.97262  0.23790  0.54117  Biso   1.000  C
  H76      1.0000 0.97995  0.26687  0.48379  Biso   1.000  H
  H77      1.0000 0.94215  0.28531  0.59059  Biso   1.000  H
  C69      1.0000 0.09555  0.23588  0.59410  Biso   1.000  C
  H78      1.0000 0.12720  0.18968  0.54437  Biso   1.000  H
  H79      1.0000 0.08848  0.20602  0.65086  Biso   1.000  H
  C70      1.0000 0.18241  0.34755  0.63642  Biso   1.000  C
  H80      1.0000 0.18811  0.37806  0.58052  Biso   1.000  H
  H81      1.0000 0.26060  0.34335  0.66702  Biso   1.000  H
  H82      1.0000 0.15365  0.39220  0.68849  Biso   1.000  H
