data_image0
_cell_length_a       19.47
_cell_length_b       24.156
_cell_length_c       13.294
_cell_angle_alpha    90
_cell_angle_beta     131.46
_cell_angle_gamma    90

_symmetry_space_group_name_H-M    "P 1"
_symmetry_int_tables_number       1

loop_
  _symmetry_equiv_pos_as_xyz
  'x, y, z'

loop_
  _atom_site_label
  _atom_site_occupancy
  _atom_site_fract_x
  _atom_site_fract_y
  _atom_site_fract_z
  _atom_site_thermal_displace_type
  _atom_site_B_iso_or_equiv
  _atom_site_type_symbol
  N1       1.0000 0.57339  0.37109  0.46272  Biso   1.000  N
  C1       1.0000 0.51811  0.34608  0.32943  Biso   1.000  C
  H1       1.0000 0.54864  0.37962  0.49705  Biso   1.000  H
  C2       1.0000 0.67289  0.38189  0.53991  Biso   1.000  C
  C3       1.0000 0.44469  0.30361  0.30132  Biso   1.000  C
  C4       1.0000 0.46971  0.38711  0.21600  Biso   1.000  C
  H2       1.0000 0.56078  0.32452  0.32702  Biso   1.000  H
  C5       1.0000 0.71740  0.41331  0.64028  Biso   1.000  C
  H3       1.0000 0.70250  0.36492  0.51281  Biso   1.000  H
  C6       1.0000 0.39788  0.27741  0.16391  Biso   1.000  C
  H4       1.0000 0.47510  0.27492  0.37199  Biso   1.000  H
  H5       1.0000 0.39910  0.32311  0.29941  Biso   1.000  H
  C7       1.0000 0.42702  0.36380  0.07839  Biso   1.000  C
  N2       1.0000 0.54211  0.42880  0.25254  Biso   1.000  N
  H6       1.0000 0.42138  0.40669  0.20908  Biso   1.000  H
  C8       1.0000 0.67670  0.45161  0.67421  Biso   1.000  C
  C9       1.0000 0.80957  0.42279  0.69579  Biso   1.000  C
  C10      1.0000 0.36542  0.31731  0.05882  Biso   1.000  C
  H7       1.0000 0.44180  0.25211  0.17335  Biso   1.000  H
  H8       1.0000 0.34519  0.25488  0.13621  Biso   1.000  H
  H9       1.0000 0.47452  0.34911  0.07849  Biso   1.000  H
  H10      1.0000 0.39072  0.39232  0.00753  Biso   1.000  H
  C11      1.0000 0.54422  0.47479  0.31015  Biso   1.000  C
  H11      1.0000 0.57899  0.42300  0.23698  Biso   1.000  H
  O1       1.0000 0.59423  0.44179  0.63095  Biso   1.000  O
  C12      1.0000 0.72881  0.49789  0.76926  Biso   1.000  C
  O2       1.0000 0.84486  0.39261  0.66889  Biso   1.000  O
  C13      1.0000 0.86222  0.46829  0.78954  Biso   1.000  C
  H12      1.0000 0.31050  0.33532  0.03493  Biso   1.000  H
  H13      1.0000 0.34408  0.29591  0.97912  Biso   1.000  H
  C14      1.0000 0.61661  0.51151  0.37951  Biso   1.000  C
  H14      1.0000 0.49330  0.48270  0.30283  Biso   1.000  H
  C15      1.0000 0.82847  0.50840  0.83009  Biso   1.000  C
  C16      1.0000 0.68038  0.53949  0.77268  Biso   1.000  C
  C17      1.0000 0.94390  0.48332  0.83059  Biso   1.000  C
  C18      1.0000 0.61559  0.55792  0.44054  Biso   1.000  C
  C19      1.0000 0.70722  0.49619  0.41735  Biso   1.000  C
  O3       1.0000 0.87279  0.54599  0.91039  Biso   1.000  O
  H15      1.0000 0.61647  0.53432  0.72038  Biso   1.000  H
  N3       1.0000 0.71792  0.58590  0.84434  Biso   1.000  N
  N4       1.0000 0.99220  0.45670  0.80700  Biso   1.000  N
  H16      1.0000 0.96997  0.51639  0.88188  Biso   1.000  H
  O4       1.0000 0.53891  0.57294  0.41555  Biso   1.000  O
  C20      1.0000 0.69621  0.58950  0.52616  Biso   1.000  C
  O5       1.0000 0.70743  0.45252  0.35773  Biso   1.000  O
  C21      1.0000 0.78183  0.53080  0.49514  Biso   1.000  C
  H17      1.0000 0.77777  0.58772  0.90959  Biso   1.000  H
  C22      1.0000 0.66210  0.63400  0.81744  Biso   1.000  C
  H18      1.0000 0.97919  0.42180  0.78141  Biso   1.000  H
  C23      1.0000 0.06860  0.48460  0.82296  Biso   1.000  C
  C24      1.0000 0.70019  0.63330  0.61278  Biso   1.000  C
  C25      1.0000 0.78517  0.57940  0.55888  Biso   1.000  C
  C26      1.0000 0.86932  0.51300  0.53951  Biso   1.000  C
  C27      1.0000 0.66279  0.67590  0.73945  Biso   1.000  C
  H19      1.0000 0.59760  0.62150  0.76555  Biso   1.000  H
  C28      1.0000 0.69843  0.66000  0.95235  Biso   1.000  C
  C29      1.0000 0.02502  0.50253  0.68304  Biso   1.000  C
  C30      1.0000 0.14929  0.44391  0.88068  Biso   1.000  C
  H20      1.0000 0.09119  0.51772  0.88259  Biso   1.000  H
  N5       1.0000 0.63869  0.64762  0.61479  Biso   1.000  N
  H21      1.0000 0.75690  0.65251  0.67381  Biso   1.000  H
  O6       1.0000 0.85042  0.61289  0.62914  Biso   1.000  O
  H22      1.0000 0.87017  0.47901  0.50468  Biso   1.000  H
  N6       1.0000 0.94229  0.53792  0.61820  Biso   1.000  N
  C31      1.0000 0.58917  0.72032  0.68907  Biso   1.000  C
  H23      1.0000 0.72470  0.69349  0.79516  Biso   1.000  H
  C32      1.0000 0.62550  0.71249  0.90838  Biso   1.000  C
  H24      1.0000 0.76161  0.67412  0.00484  Biso   1.000  H
  H25      1.0000 0.69820  0.63222  0.00705  Biso   1.000  H
  H26      1.0000 0.01010  0.46970  0.62563  Biso   1.000  H
  C33      1.0000 0.10242  0.53862  0.70894  Biso   1.000  C
  C34      1.0000 0.22470  0.47562  0.89604  Biso   1.000  C
  H27      1.0000 0.17401  0.42971  0.96911  Biso   1.000  H
  H28      1.0000 0.12763  0.41199  0.81935  Biso   1.000  H
  H29      1.0000 0.58093  0.64129  0.54382  Biso   1.000  H
  H30      1.0000 0.94561  0.57352  0.63486  Biso   1.000  H
  C35      1.0000 0.62003  0.75062  0.81243  Biso   1.000  C
  H31      1.0000 0.58430  0.74632  0.62693  Biso   1.000  H
  H32      1.0000 0.52868  0.70281  0.64149  Biso   1.000  H
  H33      1.0000 0.56402  0.69751  0.86452  Biso   1.000  H
  H34      1.0000 0.64780  0.73332  0.98928  Biso   1.000  H
  H35      1.0000 0.07972  0.55510  0.62352  Biso   1.000  H
  H36      1.0000 0.11968  0.56901  0.77177  Biso   1.000  H
  C36      1.0000 0.18622  0.50219  0.76866  Biso   1.000  C
  H37      1.0000 0.25201  0.50410  0.96680  Biso   1.000  H
  H38      1.0000 0.27380  0.44962  0.92354  Biso   1.000  H
  H39      1.0000 0.57652  0.78101  0.78482  Biso   1.000  H
  H40      1.0000 0.68097  0.76730  0.85930  Biso   1.000  H
  H41      1.0000 0.16848  0.47309  0.70272  Biso   1.000  H
  H42      1.0000 0.23419  0.52521  0.78332  Biso   1.000  H
  N7       1.0000 0.42662  0.37109  0.53730  Biso   1.000  N
  C37      1.0000 0.32711  0.38189  0.46011  Biso   1.000  C
  C38      1.0000 0.48190  0.34608  0.67060  Biso   1.000  C
  H43      1.0000 0.45137  0.37962  0.50297  Biso   1.000  H
  C39      1.0000 0.28261  0.41331  0.35974  Biso   1.000  C
  H44      1.0000 0.29750  0.36492  0.48721  Biso   1.000  H
  C40      1.0000 0.53030  0.38711  0.78402  Biso   1.000  C
  C41      1.0000 0.55531  0.30361  0.69870  Biso   1.000  C
  H45      1.0000 0.43918  0.32452  0.67301  Biso   1.000  H
  C42      1.0000 0.32331  0.45161  0.32581  Biso   1.000  C
  C43      1.0000 0.19039  0.42279  0.30423  Biso   1.000  C
  N8       1.0000 0.45790  0.42880  0.74748  Biso   1.000  N
  H46      1.0000 0.57863  0.40669  0.79095  Biso   1.000  H
  C44      1.0000 0.57299  0.36380  0.92163  Biso   1.000  C
  C45      1.0000 0.60208  0.27741  0.83611  Biso   1.000  C
  H47      1.0000 0.52491  0.27492  0.62804  Biso   1.000  H
  H48      1.0000 0.60091  0.32311  0.70061  Biso   1.000  H
  O7       1.0000 0.40578  0.44179  0.36907  Biso   1.000  O
  C46      1.0000 0.27119  0.49789  0.23076  Biso   1.000  C
  O8       1.0000 0.15509  0.39261  0.33113  Biso   1.000  O
  C47      1.0000 0.13778  0.46829  0.21048  Biso   1.000  C
  C48      1.0000 0.45579  0.47479  0.68987  Biso   1.000  C
  H49      1.0000 0.42102  0.42300  0.76304  Biso   1.000  H
  H50      1.0000 0.52549  0.34911  0.92153  Biso   1.000  H
  H51      1.0000 0.60929  0.39232  0.99250  Biso   1.000  H
  C49      1.0000 0.63459  0.31731  0.94120  Biso   1.000  C
  H52      1.0000 0.55816  0.25211  0.82668  Biso   1.000  H
  H53      1.0000 0.65481  0.25488  0.86382  Biso   1.000  H
  C50      1.0000 0.17153  0.50840  0.16993  Biso   1.000  C
  C51      1.0000 0.31962  0.53949  0.22735  Biso   1.000  C
  C52      1.0000 0.05610  0.48332  0.16943  Biso   1.000  C
  C53      1.0000 0.38339  0.51151  0.62051  Biso   1.000  C
  H54      1.0000 0.50671  0.48270  0.69720  Biso   1.000  H
  H55      1.0000 0.68951  0.33532  0.96509  Biso   1.000  H
  H56      1.0000 0.65588  0.29591  0.02090  Biso   1.000  H
  O9       1.0000 0.12722  0.54599  0.08963  Biso   1.000  O
  H57      1.0000 0.38353  0.53432  0.27964  Biso   1.000  H
  N9       1.0000 0.28209  0.58590  0.15568  Biso   1.000  N
  N10      1.0000 0.00780  0.45670  0.19302  Biso   1.000  N
  H58      1.0000 0.03004  0.51639  0.11814  Biso   1.000  H
  C54      1.0000 0.38436  0.55792  0.55948  Biso   1.000  C
  C55      1.0000 0.29279  0.49619  0.58267  Biso   1.000  C
  H59      1.0000 0.22224  0.58772  0.09044  Biso   1.000  H
  C56      1.0000 0.33791  0.63400  0.18258  Biso   1.000  C
  H60      1.0000 0.02081  0.42180  0.21861  Biso   1.000  H
  C57      1.0000 0.93141  0.48460  0.17706  Biso   1.000  C
  O10      1.0000 0.46109  0.57294  0.58448  Biso   1.000  O
  C58      1.0000 0.30380  0.58950  0.47386  Biso   1.000  C
  O11      1.0000 0.29257  0.45252  0.64229  Biso   1.000  O
  C59      1.0000 0.21818  0.53080  0.50488  Biso   1.000  C
  H61      1.0000 0.40240  0.62150  0.23447  Biso   1.000  H
  C60      1.0000 0.30157  0.66000  0.04768  Biso   1.000  C
  C61      1.0000 0.33716  0.67590  0.26057  Biso   1.000  C
  C62      1.0000 0.97499  0.50253  0.31698  Biso   1.000  C
  C63      1.0000 0.85072  0.44391  0.11934  Biso   1.000  C
  H62      1.0000 0.90882  0.51772  0.11744  Biso   1.000  H
  C64      1.0000 0.29982  0.63330  0.38724  Biso   1.000  C
  C65      1.0000 0.21484  0.57940  0.44114  Biso   1.000  C
  C66      1.0000 0.13068  0.51300  0.46051  Biso   1.000  C
  C67      1.0000 0.37451  0.71249  0.09164  Biso   1.000  C
  H63      1.0000 0.23840  0.67412  0.99518  Biso   1.000  H
  H64      1.0000 0.30181  0.63222  0.99297  Biso   1.000  H
  C68      1.0000 0.41079  0.72032  0.31086  Biso   1.000  C
  H65      1.0000 0.27530  0.69349  0.20486  Biso   1.000  H
  N11      1.0000 0.36131  0.64762  0.38523  Biso   1.000  N
  N12      1.0000 0.05772  0.53792  0.38182  Biso   1.000  N
  H66      1.0000 0.98990  0.46970  0.37439  Biso   1.000  H
  C69      1.0000 0.89759  0.53862  0.29108  Biso   1.000  C
  C70      1.0000 0.77531  0.47562  0.10399  Biso   1.000  C
  H67      1.0000 0.82599  0.42971  0.03092  Biso   1.000  H
  H68      1.0000 0.87238  0.41199  0.18067  Biso   1.000  H
  H69      1.0000 0.24311  0.65251  0.32621  Biso   1.000  H
  O12      1.0000 0.14959  0.61289  0.37088  Biso   1.000  O
  H70      1.0000 0.12984  0.47901  0.49534  Biso   1.000  H
  H71      1.0000 0.43599  0.69751  0.13550  Biso   1.000  H
  H72      1.0000 0.35221  0.73332  0.01074  Biso   1.000  H
  C71      1.0000 0.37998  0.75062  0.18760  Biso   1.000  C
  H73      1.0000 0.41571  0.74632  0.37309  Biso   1.000  H
  H74      1.0000 0.47133  0.70281  0.35854  Biso   1.000  H
  H75      1.0000 0.41908  0.64129  0.45620  Biso   1.000  H
  H76      1.0000 0.05440  0.57352  0.36516  Biso   1.000  H
  H77      1.0000 0.92028  0.55510  0.37650  Biso   1.000  H
  H78      1.0000 0.88033  0.56901  0.22825  Biso   1.000  H
  C72      1.0000 0.81379  0.50219  0.23136  Biso   1.000  C
  H79      1.0000 0.74799  0.50410  0.03322  Biso   1.000  H
  H80      1.0000 0.72621  0.44962  0.07648  Biso   1.000  H
  H81      1.0000 0.42348  0.78101  0.21520  Biso   1.000  H
  H82      1.0000 0.31899  0.76730  0.14072  Biso   1.000  H
  H83      1.0000 0.83148  0.47309  0.29731  Biso   1.000  H
  H84      1.0000 0.76582  0.52521  0.21671  Biso   1.000  H
  O13      1.0000 0.64959  0.11289  0.37088  Biso   1.000  O
  C73      1.0000 0.71484  0.07940  0.44114  Biso   1.000  C
  C74      1.0000 0.71818  0.03080  0.50488  Biso   1.000  C
  C75      1.0000 0.80380  0.08950  0.47386  Biso   1.000  C
  C76      1.0000 0.63068  0.01300  0.46051  Biso   1.000  C
  C77      1.0000 0.79279  0.99623  0.58267  Biso   1.000  C
  C78      1.0000 0.79982  0.13330  0.38724  Biso   1.000  C
  C79      1.0000 0.88436  0.05792  0.55948  Biso   1.000  C
  N13      1.0000 0.55772  0.03792  0.38182  Biso   1.000  N
  H85      1.0000 0.62984  0.97901  0.49534  Biso   1.000  H
  C80      1.0000 0.88339  0.01151  0.62051  Biso   1.000  C
  O14      1.0000 0.79257  0.95252  0.64229  Biso   1.000  O
  N14      1.0000 0.86131  0.14758  0.38523  Biso   1.000  N
  H86      1.0000 0.74311  0.15251  0.32621  Biso   1.000  H
  O15      1.0000 0.96109  0.07294  0.58448  Biso   1.000  O
  C81      1.0000 0.47499  0.00248  0.31698  Biso   1.000  C
  H87      1.0000 0.55440  0.07348  0.36516  Biso   1.000  H
  C82      1.0000 0.95579  0.97483  0.68987  Biso   1.000  C
  C83      1.0000 0.83716  0.17590  0.26057  Biso   1.000  C
  H88      1.0000 0.91908  0.14129  0.45620  Biso   1.000  H
  C84      1.0000 0.39759  0.03858  0.29108  Biso   1.000  C
  H89      1.0000 0.48990  0.96970  0.37439  Biso   1.000  H
  C85      1.0000 0.43141  0.98460  0.17706  Biso   1.000  C
  N15      1.0000 0.95790  0.92880  0.74748  Biso   1.000  N
  H90      1.0000 0.00671  0.98270  0.69720  Biso   1.000  H
  C86      1.0000 0.83791  0.13400  0.18258  Biso   1.000  C
  C87      1.0000 0.91079  0.22032  0.31086  Biso   1.000  C
  H91      1.0000 0.77530  0.19349  0.20486  Biso   1.000  H
  H92      1.0000 0.42028  0.05510  0.37650  Biso   1.000  H
  H93      1.0000 0.38033  0.06901  0.22825  Biso   1.000  H
  C88      1.0000 0.31379  0.00219  0.23136  Biso   1.000  C
  H94      1.0000 0.40882  0.01772  0.11744  Biso   1.000  H
  C89      1.0000 0.35072  0.94391  0.11934  Biso   1.000  C
  N16      1.0000 0.50780  0.95670  0.19302  Biso   1.000  N
  H95      1.0000 0.92102  0.92300  0.76304  Biso   1.000  H
  C90      1.0000 0.03030  0.88711  0.78402  Biso   1.000  C
  N17      1.0000 0.78209  0.08590  0.15568  Biso   1.000  N
  H96      1.0000 0.90240  0.12150  0.23447  Biso   1.000  H
  C91      1.0000 0.80157  0.16000  0.04768  Biso   1.000  C
  C92      1.0000 0.87998  0.25062  0.18760  Biso   1.000  C
  H97      1.0000 0.91571  0.24632  0.37309  Biso   1.000  H
  H98      1.0000 0.97133  0.20281  0.35854  Biso   1.000  H
  H99      1.0000 0.26582  0.02521  0.21671  Biso   1.000  H
  H100     1.0000 0.33148  0.97309  0.29731  Biso   1.000  H
  C93      1.0000 0.27531  0.97562  0.10399  Biso   1.000  C
  H101     1.0000 0.32599  0.92971  0.03092  Biso   1.000  H
  H102     1.0000 0.37238  0.91203  0.18067  Biso   1.000  H
  H103     1.0000 0.52081  0.92180  0.21861  Biso   1.000  H
  C94      1.0000 0.55610  0.98332  0.16943  Biso   1.000  C
  C95      1.0000 0.98190  0.84613  0.67060  Biso   1.000  C
  H104     1.0000 0.07863  0.90673  0.79095  Biso   1.000  H
  C96      1.0000 0.07299  0.86380  0.92163  Biso   1.000  C
  C97      1.0000 0.81962  0.03949  0.22735  Biso   1.000  C
  H105     1.0000 0.72224  0.08772  0.09044  Biso   1.000  H
  C98      1.0000 0.87451  0.21249  0.09164  Biso   1.000  C
  H106     1.0000 0.73840  0.17412  0.99518  Biso   1.000  H
  H107     1.0000 0.80181  0.13218  0.99297  Biso   1.000  H
  H108     1.0000 0.92348  0.28101  0.21520  Biso   1.000  H
  H109     1.0000 0.81899  0.26730  0.14072  Biso   1.000  H
  H110     1.0000 0.24799  0.00410  0.03322  Biso   1.000  H
  H111     1.0000 0.22621  0.94962  0.07648  Biso   1.000  H
  H112     1.0000 0.53004  0.01639  0.11814  Biso   1.000  H
  C99      1.0000 0.63778  0.96833  0.21048  Biso   1.000  C
  N18      1.0000 0.92662  0.87113  0.53730  Biso   1.000  N
  H113     1.0000 0.93918  0.82452  0.67301  Biso   1.000  H
  C100     1.0000 0.05531  0.80361  0.69870  Biso   1.000  C
  H114     1.0000 0.02549  0.84911  0.92153  Biso   1.000  H
  H115     1.0000 0.10929  0.89232  0.99250  Biso   1.000  H
  C101     1.0000 0.13459  0.81731  0.94120  Biso   1.000  C
  C102     1.0000 0.77119  0.99793  0.23076  Biso   1.000  C
  H116     1.0000 0.88353  0.03432  0.27964  Biso   1.000  H
  H117     1.0000 0.93599  0.19751  0.13550  Biso   1.000  H
  H118     1.0000 0.85221  0.23332  0.01074  Biso   1.000  H
  C103     1.0000 0.67153  0.00840  0.16993  Biso   1.000  C
  C104     1.0000 0.69039  0.92279  0.30423  Biso   1.000  C
  C105     1.0000 0.82711  0.88189  0.46011  Biso   1.000  C
  H119     1.0000 0.95137  0.87962  0.50297  Biso   1.000  H
  C106     1.0000 0.10208  0.77741  0.83611  Biso   1.000  C
  H120     1.0000 0.02491  0.77492  0.62804  Biso   1.000  H
  H121     1.0000 0.10091  0.82311  0.70061  Biso   1.000  H
  H122     1.0000 0.18951  0.83532  0.96509  Biso   1.000  H
  H123     1.0000 0.15588  0.79591  0.02090  Biso   1.000  H
  C107     1.0000 0.82331  0.95161  0.32581  Biso   1.000  C
  O16      1.0000 0.62722  0.04599  0.08963  Biso   1.000  O
  O17      1.0000 0.65509  0.89266  0.33113  Biso   1.000  O
  C108     1.0000 0.78261  0.91331  0.35974  Biso   1.000  C
  H124     1.0000 0.79750  0.86492  0.48721  Biso   1.000  H
  H125     1.0000 0.05816  0.75211  0.82668  Biso   1.000  H
  H126     1.0000 0.15481  0.75493  0.86382  Biso   1.000  H
  O18      1.0000 0.90578  0.94179  0.36907  Biso   1.000  O
  O19      1.0000 0.35042  0.11289  0.62914  Biso   1.000  O
  C109     1.0000 0.28517  0.07940  0.55888  Biso   1.000  C
  C110     1.0000 0.19621  0.08950  0.52616  Biso   1.000  C
  C111     1.0000 0.28183  0.03080  0.49514  Biso   1.000  C
  C112     1.0000 0.20019  0.13330  0.61278  Biso   1.000  C
  C113     1.0000 0.11559  0.05792  0.44054  Biso   1.000  C
  C114     1.0000 0.36932  0.01300  0.53951  Biso   1.000  C
  C115     1.0000 0.20722  0.99623  0.41735  Biso   1.000  C
  N19      1.0000 0.13869  0.14758  0.61479  Biso   1.000  N
  H127     1.0000 0.25690  0.15251  0.67381  Biso   1.000  H
  O20      1.0000 0.03891  0.07294  0.41555  Biso   1.000  O
  C116     1.0000 0.11661  0.01151  0.37951  Biso   1.000  C
  N20      1.0000 0.44229  0.03792  0.61820  Biso   1.000  N
  H128     1.0000 0.37017  0.97901  0.50468  Biso   1.000  H
  O21      1.0000 0.20743  0.95252  0.35773  Biso   1.000  O
  C117     1.0000 0.16279  0.17590  0.73945  Biso   1.000  C
  H129     1.0000 0.08093  0.14129  0.54382  Biso   1.000  H
  C118     1.0000 0.04422  0.97483  0.31015  Biso   1.000  C
  H130     1.0000 0.44561  0.07348  0.63486  Biso   1.000  H
  C119     1.0000 0.52502  0.00248  0.68304  Biso   1.000  C
  C120     1.0000 0.16210  0.13400  0.81744  Biso   1.000  C
  C121     1.0000 0.08917  0.22032  0.68907  Biso   1.000  C
  H131     1.0000 0.22470  0.19349  0.79516  Biso   1.000  H
  H132     1.0000 0.99330  0.98270  0.30283  Biso   1.000  H
  N21      1.0000 0.04211  0.92880  0.25254  Biso   1.000  N
  C122     1.0000 0.60242  0.03858  0.70894  Biso   1.000  C
  H133     1.0000 0.51010  0.96970  0.62563  Biso   1.000  H
  C123     1.0000 0.56860  0.98460  0.82296  Biso   1.000  C
  N22      1.0000 0.21792  0.08590  0.84434  Biso   1.000  N
  H134     1.0000 0.09760  0.12150  0.76555  Biso   1.000  H
  C124     1.0000 0.19843  0.16000  0.95235  Biso   1.000  C
  C125     1.0000 0.12003  0.25062  0.81243  Biso   1.000  C
  H135     1.0000 0.08430  0.24632  0.62693  Biso   1.000  H
  H136     1.0000 0.02868  0.20281  0.64149  Biso   1.000  H
  C126     1.0000 0.96971  0.88711  0.21600  Biso   1.000  C
  H137     1.0000 0.07899  0.92300  0.23698  Biso   1.000  H
  H138     1.0000 0.57972  0.05510  0.62352  Biso   1.000  H
  H139     1.0000 0.61968  0.06901  0.77177  Biso   1.000  H
  C127     1.0000 0.68622  0.00219  0.76866  Biso   1.000  C
  H140     1.0000 0.59119  0.01772  0.88259  Biso   1.000  H
  C128     1.0000 0.64929  0.94391  0.88068  Biso   1.000  C
  N23      1.0000 0.49220  0.95670  0.80700  Biso   1.000  N
  C129     1.0000 0.18038  0.03949  0.77268  Biso   1.000  C
  H141     1.0000 0.27777  0.08772  0.90959  Biso   1.000  H
  C130     1.0000 0.12550  0.21249  0.90838  Biso   1.000  C
  H142     1.0000 0.26161  0.17412  0.00484  Biso   1.000  H
  H143     1.0000 0.19820  0.13218  0.00705  Biso   1.000  H
  H144     1.0000 0.07652  0.28101  0.78482  Biso   1.000  H
  H145     1.0000 0.18097  0.26730  0.85930  Biso   1.000  H
  H146     1.0000 0.92138  0.90673  0.20908  Biso   1.000  H
  C131     1.0000 0.92702  0.86380  0.07839  Biso   1.000  C
  C132     1.0000 0.01811  0.84613  0.32943  Biso   1.000  C
  H147     1.0000 0.73419  0.02521  0.78332  Biso   1.000  H
  H148     1.0000 0.66848  0.97309  0.70272  Biso   1.000  H
  C133     1.0000 0.72470  0.97562  0.89604  Biso   1.000  C
  H149     1.0000 0.67401  0.92971  0.96911  Biso   1.000  H
  H150     1.0000 0.62763  0.91203  0.81935  Biso   1.000  H
  H151     1.0000 0.47919  0.92180  0.78141  Biso   1.000  H
  C134     1.0000 0.44390  0.98332  0.83059  Biso   1.000  C
  H152     1.0000 0.11647  0.03432  0.72038  Biso   1.000  H
  C135     1.0000 0.22881  0.99793  0.76926  Biso   1.000  C
  H153     1.0000 0.06402  0.19751  0.86452  Biso   1.000  H
  H154     1.0000 0.14780  0.23332  0.98928  Biso   1.000  H
  H155     1.0000 0.97452  0.84911  0.07849  Biso   1.000  H
  H156     1.0000 0.89072  0.89232  0.00753  Biso   1.000  H
  C136     1.0000 0.86542  0.81731  0.05882  Biso   1.000  C
  C137     1.0000 0.94469  0.80361  0.30132  Biso   1.000  C
  H157     1.0000 0.06078  0.82452  0.32702  Biso   1.000  H
  N24      1.0000 0.07339  0.87113  0.46272  Biso   1.000  N
  H158     1.0000 0.75201  0.00410  0.96680  Biso   1.000  H
  H159     1.0000 0.77380  0.94962  0.92354  Biso   1.000  H
  H160     1.0000 0.46997  0.01639  0.88188  Biso   1.000  H
  C138     1.0000 0.36222  0.96833  0.78954  Biso   1.000  C
  C139     1.0000 0.32847  0.00840  0.83009  Biso   1.000  C
  C140     1.0000 0.17670  0.95161  0.67421  Biso   1.000  C
  H161     1.0000 0.84408  0.79591  0.97912  Biso   1.000  H
  H162     1.0000 0.81050  0.83532  0.03493  Biso   1.000  H
  C141     1.0000 0.89788  0.77741  0.16391  Biso   1.000  C
  H163     1.0000 0.97510  0.77492  0.37199  Biso   1.000  H
  H164     1.0000 0.89910  0.82311  0.29941  Biso   1.000  H
  H165     1.0000 0.04864  0.87962  0.49705  Biso   1.000  H
  C142     1.0000 0.17289  0.88189  0.53991  Biso   1.000  C
  C143     1.0000 0.30957  0.92279  0.69579  Biso   1.000  C
  O22      1.0000 0.37279  0.04599  0.91039  Biso   1.000  O
  O23      1.0000 0.09423  0.94179  0.63095  Biso   1.000  O
  C144     1.0000 0.21740  0.91331  0.64028  Biso   1.000  C
  H166     1.0000 0.94180  0.75211  0.17335  Biso   1.000  H
  H167     1.0000 0.84519  0.75493  0.13621  Biso   1.000  H
  H168     1.0000 0.20250  0.86492  0.51281  Biso   1.000  H
  O24      1.0000 0.34486  0.89266  0.66889  Biso   1.000  O
  Ne1      1.0000 0.73516  0.50414  0.60125  Biso   1.000  Ne
  He1      1.0000 0.83530  0.59575  0.76086  Biso   1.000  He
  He2      1.0000 0.66504  0.51718  0.59271  Biso   1.000  He
  Ar1      1.0000 0.73255  0.50383  0.60578  Biso   1.000  Ar
  Ne2      1.0000 0.26484  0.50414  0.39877  Biso   1.000  Ne
  He3      1.0000 0.33905  0.51792  0.40807  Biso   1.000  He
  He4      1.0000 0.21545  0.55617  0.30951  Biso   1.000  He
  Ar2      1.0000 0.26520  0.50454  0.39371  Biso   1.000  Ar
  Ne3      1.0000 0.23516  0.00414  0.60125  Biso   1.000  Ne
  He5      1.0000 0.33530  0.09575  0.76086  Biso   1.000  He
  He6      1.0000 0.16462  0.01730  0.59266  Biso   1.000  He
  Ar3      1.0000 0.23481  0.00454  0.60629  Biso   1.000  Ar
  Ne4      1.0000 0.76484  0.00414  0.39877  Biso   1.000  Ne
  He7      1.0000 0.84035  0.01815  0.40832  Biso   1.000  He
  He8      1.0000 0.66650  0.09405  0.24186  Biso   1.000  He
  Ar4      1.0000 0.76748  0.00383  0.39427  Biso   1.000  Ar
