data_image0
_cell_length_a       20.549
_cell_length_b       7.456
_cell_length_c       16.856
_cell_angle_alpha    90
_cell_angle_beta     105.3
_cell_angle_gamma    90

_symmetry_space_group_name_H-M    "P 1"
_symmetry_int_tables_number       1

loop_
  _symmetry_equiv_pos_as_xyz
  'x, y, z'

loop_
  _atom_site_label
  _atom_site_occupancy
  _atom_site_fract_x
  _atom_site_fract_y
  _atom_site_fract_z
  _atom_site_thermal_displace_type
  _atom_site_B_iso_or_equiv
  _atom_site_type_symbol
  C1       1.0000 0.59824  0.20722  0.74219  Biso   1.000  C
  C2       1.0000 0.58154  0.23686  0.65043  Biso   1.000  C
  H1       1.0000 0.64580  0.21325  0.76790  Biso   1.000  H
  H2       1.0000 0.57522  0.29426  0.76692  Biso   1.000  H
  H3       1.0000 0.58188  0.08946  0.74957  Biso   1.000  H
  C3       1.0000 0.51370  0.21298  0.60411  Biso   1.000  C
  C4       1.0000 0.62900  0.28085  0.61069  Biso   1.000  C
  C5       1.0000 0.49527  0.22733  0.52034  Biso   1.000  C
  H4       1.0000 0.47999  0.18562  0.63228  Biso   1.000  H
  C6       1.0000 0.61248  0.29332  0.52335  Biso   1.000  C
  O1       1.0000 0.69646  0.30459  0.65233  Biso   1.000  O
  O2       1.0000 0.43134  0.20333  0.47206  Biso   1.000  O
  C7       1.0000 0.54482  0.26408  0.47766  Biso   1.000  C
  C8       1.0000 0.66194  0.32605  0.48116  Biso   1.000  C
  C9       1.0000 0.71273  0.46473  0.70055  Biso   1.000  C
  C10      1.0000 0.37811  0.17999  0.51099  Biso   1.000  C
  C11      1.0000 0.52893  0.26891  0.39075  Biso   1.000  C
  C12      1.0000 0.64565  0.32766  0.39739  Biso   1.000  C
  H5       1.0000 0.70820  0.34227  0.51142  Biso   1.000  H
  C13      1.0000 0.68134  0.63358  0.65873  Biso   1.000  C
  H6       1.0000 0.76040  0.48270  0.70990  Biso   1.000  H
  H7       1.0000 0.70388  0.44783  0.75320  Biso   1.000  H
  C14      1.0000 0.31258  0.15826  0.44500  Biso   1.000  C
  H8       1.0000 0.38609  0.07685  0.54630  Biso   1.000  H
  H9       1.0000 0.37459  0.28380  0.54328  Biso   1.000  H
  H10      1.0000 0.48469  0.23055  0.36061  Biso   1.000  H
  C15      1.0000 0.57820  0.30016  0.35194  Biso   1.000  C
  H11      1.0000 0.67898  0.34724  0.36768  Biso   1.000  H
  O3       1.0000 0.71259  0.68187  0.59692  Biso   1.000  O
  H12      1.0000 0.63412  0.61172  0.63548  Biso   1.000  H
  H13      1.0000 0.68662  0.72867  0.69840  Biso   1.000  H
  O4       1.0000 0.28740  0.31813  0.40305  Biso   1.000  O
  H14      1.0000 0.27822  0.10716  0.46701  Biso   1.000  H
  H15      1.0000 0.32120  0.07578  0.40520  Biso   1.000  H
  H16      1.0000 0.56547  0.31706  0.29338  Biso   1.000  H
  C16      1.0000 0.68741  0.84174  0.55503  Biso   1.000  C
  C17      1.0000 0.31864  0.36642  0.34124  Biso   1.000  C
  C18      1.0000 0.62189  0.82001  0.48903  Biso   1.000  C
  H17      1.0000 0.72182  0.89284  0.53301  Biso   1.000  H
  H18      1.0000 0.67880  0.92422  0.59482  Biso   1.000  H
  H19      1.0000 0.36591  0.38828  0.36448  Biso   1.000  H
  H20      1.0000 0.31343  0.27133  0.30163  Biso   1.000  H
  C19      1.0000 0.28726  0.53527  0.29947  Biso   1.000  C
  O5       1.0000 0.56869  0.79667  0.52791  Biso   1.000  O
  H21      1.0000 0.61390  0.92315  0.45373  Biso   1.000  H
  H22      1.0000 0.62540  0.71620  0.45668  Biso   1.000  H
  O6       1.0000 0.30353  0.69541  0.34763  Biso   1.000  O
  H23      1.0000 0.23959  0.51730  0.29012  Biso   1.000  H
  H24      1.0000 0.29611  0.55217  0.24682  Biso   1.000  H
  C20      1.0000 0.50471  0.77267  0.47962  Biso   1.000  C
  C21      1.0000 0.37099  0.71915  0.38927  Biso   1.000  C
  C22      1.0000 0.45523  0.73592  0.52237  Biso   1.000  C
  C23      1.0000 0.48633  0.78702  0.39585  Biso   1.000  C
  C24      1.0000 0.38752  0.70668  0.47667  Biso   1.000  C
  C25      1.0000 0.41845  0.76314  0.34954  Biso   1.000  C
  C26      1.0000 0.47105  0.73109  0.60922  Biso   1.000  C
  H25      1.0000 0.52000  0.81438  0.36768  Biso   1.000  H
  C27      1.0000 0.33805  0.67395  0.51880  Biso   1.000  C
  C28      1.0000 0.40175  0.79278  0.25777  Biso   1.000  C
  H26      1.0000 0.51531  0.76945  0.63942  Biso   1.000  H
  C29      1.0000 0.42180  0.69984  0.64809  Biso   1.000  C
  C30      1.0000 0.35434  0.67234  0.60264  Biso   1.000  C
  H27      1.0000 0.29180  0.65773  0.48860  Biso   1.000  H
  H28      1.0000 0.35420  0.78675  0.23212  Biso   1.000  H
  H29      1.0000 0.42478  0.70574  0.23311  Biso   1.000  H
  H30      1.0000 0.41811  0.91054  0.25039  Biso   1.000  H
  H31      1.0000 0.43451  0.68294  0.70658  Biso   1.000  H
  H32      1.0000 0.32100  0.65276  0.63228  Biso   1.000  H
  C31      1.0000 0.40175  0.20722  0.75782  Biso   1.000  C
  C32      1.0000 0.41844  0.23686  0.84952  Biso   1.000  C
  H33      1.0000 0.35419  0.21325  0.73211  Biso   1.000  H
  H34      1.0000 0.42482  0.29426  0.73309  Biso   1.000  H
  H35      1.0000 0.41810  0.08946  0.75037  Biso   1.000  H
  C33      1.0000 0.37099  0.28085  0.88932  Biso   1.000  C
  C34      1.0000 0.48634  0.21298  0.89590  Biso   1.000  C
  O7       1.0000 0.30353  0.30459  0.84768  Biso   1.000  O
  C35      1.0000 0.38751  0.29332  0.97665  Biso   1.000  C
  H36      1.0000 0.52000  0.18562  0.86773  Biso   1.000  H
  C36      1.0000 0.50476  0.22733  0.97967  Biso   1.000  C
  C37      1.0000 0.28726  0.46473  0.79945  Biso   1.000  C
  C38      1.0000 0.45522  0.26408  0.02235  Biso   1.000  C
  C39      1.0000 0.33805  0.32605  0.01885  Biso   1.000  C
  O8       1.0000 0.56870  0.20333  0.02795  Biso   1.000  O
  C40      1.0000 0.31865  0.63358  0.84128  Biso   1.000  C
  H37      1.0000 0.23959  0.48270  0.79011  Biso   1.000  H
  H38      1.0000 0.29611  0.44783  0.74681  Biso   1.000  H
  C41      1.0000 0.47106  0.26891  0.10926  Biso   1.000  C
  H39      1.0000 0.29179  0.34227  0.98859  Biso   1.000  H
  C42      1.0000 0.35435  0.32766  0.10268  Biso   1.000  C
  C43      1.0000 0.62188  0.17999  0.98902  Biso   1.000  C
  O9       1.0000 0.28739  0.68187  0.90303  Biso   1.000  O
  H40      1.0000 0.36592  0.61172  0.86453  Biso   1.000  H
  H41      1.0000 0.31342  0.72867  0.80161  Biso   1.000  H
  H42      1.0000 0.51530  0.23055  0.13940  Biso   1.000  H
  C44      1.0000 0.42179  0.30016  0.14807  Biso   1.000  C
  H43      1.0000 0.32101  0.34724  0.13233  Biso   1.000  H
  H44      1.0000 0.61390  0.07685  0.95371  Biso   1.000  H
  H45      1.0000 0.62540  0.28380  0.95673  Biso   1.000  H
  C45      1.0000 0.68741  0.15826  0.05501  Biso   1.000  C
  C46      1.0000 0.31258  0.84174  0.94498  Biso   1.000  C
  H46      1.0000 0.43452  0.31706  0.20662  Biso   1.000  H
  O10      1.0000 0.71259  0.31813  0.09696  Biso   1.000  O
  H47      1.0000 0.72178  0.10716  0.03305  Biso   1.000  H
  H48      1.0000 0.67879  0.07578  0.09481  Biso   1.000  H
  H49      1.0000 0.27822  0.89284  0.96700  Biso   1.000  H
  H50      1.0000 0.32119  0.92422  0.90518  Biso   1.000  H
  C47      1.0000 0.37810  0.82001  0.01097  Biso   1.000  C
  C48      1.0000 0.68135  0.36642  0.15877  Biso   1.000  C
  O11      1.0000 0.43133  0.79667  0.97204  Biso   1.000  O
  H51      1.0000 0.38610  0.92315  0.04634  Biso   1.000  H
  H52      1.0000 0.37459  0.71620  0.04333  Biso   1.000  H
  H53      1.0000 0.63408  0.38828  0.13552  Biso   1.000  H
  H54      1.0000 0.68658  0.27133  0.19844  Biso   1.000  H
  C49      1.0000 0.71274  0.53527  0.20060  Biso   1.000  C
  C50      1.0000 0.49528  0.77267  0.02038  Biso   1.000  C
  O12      1.0000 0.69646  0.69541  0.15238  Biso   1.000  O
  H55      1.0000 0.76041  0.51730  0.20995  Biso   1.000  H
  H56      1.0000 0.70389  0.55217  0.25325  Biso   1.000  H
  C51      1.0000 0.54481  0.73592  0.97764  Biso   1.000  C
  C52      1.0000 0.51370  0.78702  0.10416  Biso   1.000  C
  C53      1.0000 0.62900  0.71915  0.11074  Biso   1.000  C
  C54      1.0000 0.52892  0.73109  0.89073  Biso   1.000  C
  C55      1.0000 0.61248  0.70668  0.02340  Biso   1.000  C
  C56      1.0000 0.58154  0.76314  0.15047  Biso   1.000  C
  H57      1.0000 0.47999  0.81438  0.13233  Biso   1.000  H
  H58      1.0000 0.48468  0.76945  0.86059  Biso   1.000  H
  C57      1.0000 0.57819  0.69984  0.85192  Biso   1.000  C
  C58      1.0000 0.66194  0.67395  0.98121  Biso   1.000  C
  C59      1.0000 0.59824  0.79278  0.24224  Biso   1.000  C
  H59      1.0000 0.56553  0.68294  0.79343  Biso   1.000  H
  C60      1.0000 0.64569  0.67234  0.89737  Biso   1.000  C
  H60      1.0000 0.70819  0.65773  0.01140  Biso   1.000  H
  H61      1.0000 0.64580  0.78675  0.26795  Biso   1.000  H
  H62      1.0000 0.57521  0.70574  0.26690  Biso   1.000  H
  H63      1.0000 0.58188  0.91054  0.24962  Biso   1.000  H
  H64      1.0000 0.67899  0.65276  0.86773  Biso   1.000  H
  C61      1.0000 0.85432  0.17234  0.60264  Biso   1.000  C
  C62      1.0000 0.83807  0.17395  0.51880  Biso   1.000  C
  C63      1.0000 0.92178  0.19984  0.64809  Biso   1.000  C
  H65      1.0000 0.82098  0.15276  0.63228  Biso   1.000  H
  C64      1.0000 0.88750  0.20668  0.47667  Biso   1.000  C
  H66      1.0000 0.79178  0.15773  0.48860  Biso   1.000  H
  C65      1.0000 0.97108  0.23109  0.60922  Biso   1.000  C
  H67      1.0000 0.93449  0.18294  0.70658  Biso   1.000  H
  C66      1.0000 0.87096  0.21915  0.38927  Biso   1.000  C
  C67      1.0000 0.95520  0.23592  0.52237  Biso   1.000  C
  H68      1.0000 0.01528  0.26945  0.63942  Biso   1.000  H
  O13      1.0000 0.80350  0.19541  0.34763  Biso   1.000  O
  C68      1.0000 0.91842  0.26314  0.34954  Biso   1.000  C
  C69      1.0000 0.00473  0.27267  0.47962  Biso   1.000  C
  C70      1.0000 0.78729  0.03527  0.29947  Biso   1.000  C
  C71      1.0000 0.98631  0.28702  0.39585  Biso   1.000  C
  C72      1.0000 0.90172  0.29278  0.25777  Biso   1.000  C
  O14      1.0000 0.06867  0.29667  0.52791  Biso   1.000  O
  H69      1.0000 0.73962  0.01730  0.29012  Biso   1.000  H
  H70      1.0000 0.79609  0.05217  0.24682  Biso   1.000  H
  C73      1.0000 0.81867  0.86642  0.34124  Biso   1.000  C
  H71      1.0000 0.02002  0.31438  0.36768  Biso   1.000  H
  H72      1.0000 0.85422  0.28675  0.23212  Biso   1.000  H
  H73      1.0000 0.92481  0.20574  0.23311  Biso   1.000  H
  H74      1.0000 0.91808  0.41054  0.25039  Biso   1.000  H
  C74      1.0000 0.12186  0.32001  0.48903  Biso   1.000  C
  O15      1.0000 0.78742  0.81813  0.40305  Biso   1.000  O
  H75      1.0000 0.86589  0.88828  0.36448  Biso   1.000  H
  H76      1.0000 0.81340  0.77133  0.30163  Biso   1.000  H
  H77      1.0000 0.11393  0.42315  0.45373  Biso   1.000  H
  H78      1.0000 0.12542  0.21620  0.45668  Biso   1.000  H
  C75      1.0000 0.18744  0.34174  0.55503  Biso   1.000  C
  C76      1.0000 0.81256  0.65826  0.44500  Biso   1.000  C
  O16      1.0000 0.21256  0.18187  0.59692  Biso   1.000  O
  H79      1.0000 0.22180  0.39284  0.53301  Biso   1.000  H
  H80      1.0000 0.17883  0.42422  0.59482  Biso   1.000  H
  C77      1.0000 0.87814  0.67999  0.51099  Biso   1.000  C
  H81      1.0000 0.77820  0.60716  0.46701  Biso   1.000  H
  H82      1.0000 0.82122  0.57578  0.40520  Biso   1.000  H
  C78      1.0000 0.18132  0.13358  0.65873  Biso   1.000  C
  O17      1.0000 0.93132  0.70333  0.47206  Biso   1.000  O
  H83      1.0000 0.88612  0.57685  0.54630  Biso   1.000  H
  H84      1.0000 0.87461  0.78380  0.54328  Biso   1.000  H
  C79      1.0000 0.21271  0.96473  0.70055  Biso   1.000  C
  H85      1.0000 0.13409  0.11172  0.63548  Biso   1.000  H
  H86      1.0000 0.18660  0.22867  0.69840  Biso   1.000  H
  C80      1.0000 0.99525  0.72733  0.52034  Biso   1.000  C
  O18      1.0000 0.19648  0.80459  0.65233  Biso   1.000  O
  H87      1.0000 0.26038  0.98270  0.70990  Biso   1.000  H
  H88      1.0000 0.20391  0.94783  0.75320  Biso   1.000  H
  C81      1.0000 0.04480  0.76408  0.47766  Biso   1.000  C
  C82      1.0000 0.01367  0.71298  0.60411  Biso   1.000  C
  C83      1.0000 0.12902  0.78085  0.61069  Biso   1.000  C
  C84      1.0000 0.02891  0.76891  0.39075  Biso   1.000  C
  C85      1.0000 0.11250  0.79332  0.52335  Biso   1.000  C
  H89      1.0000 0.98001  0.68562  0.63228  Biso   1.000  H
  C86      1.0000 0.08156  0.73686  0.65043  Biso   1.000  C
  H90      1.0000 0.98472  0.73055  0.36061  Biso   1.000  H
  C87      1.0000 0.07822  0.80016  0.35194  Biso   1.000  C
  C88      1.0000 0.16191  0.82605  0.48116  Biso   1.000  C
  C89      1.0000 0.09826  0.70722  0.74219  Biso   1.000  C
  H91      1.0000 0.06550  0.81706  0.29338  Biso   1.000  H
  C90      1.0000 0.14568  0.82766  0.39739  Biso   1.000  C
  H92      1.0000 0.20822  0.84227  0.51142  Biso   1.000  H
  H93      1.0000 0.14582  0.71325  0.76790  Biso   1.000  H
  H94      1.0000 0.07519  0.79426  0.76692  Biso   1.000  H
  H95      1.0000 0.08190  0.58946  0.74957  Biso   1.000  H
  H96      1.0000 0.17901  0.84724  0.36768  Biso   1.000  H
  C91      1.0000 0.14567  0.17234  0.89737  Biso   1.000  C
  C92      1.0000 0.07821  0.19984  0.85192  Biso   1.000  C
  H97      1.0000 0.17901  0.15276  0.86773  Biso   1.000  H
  C93      1.0000 0.16197  0.17395  0.98121  Biso   1.000  C
  C94      1.0000 0.02895  0.23109  0.89073  Biso   1.000  C
  H98      1.0000 0.06550  0.18294  0.79343  Biso   1.000  H
  C95      1.0000 0.11251  0.20668  0.02340  Biso   1.000  C
  H99      1.0000 0.20821  0.15773  0.01140  Biso   1.000  H
  C96      1.0000 0.04479  0.23592  0.97764  Biso   1.000  C
  H100     1.0000 0.98471  0.26945  0.86059  Biso   1.000  H
  C97      1.0000 0.12903  0.21915  0.11074  Biso   1.000  C
  C98      1.0000 0.99526  0.27267  0.02038  Biso   1.000  C
  C99      1.0000 0.08157  0.26314  0.15047  Biso   1.000  C
  O19      1.0000 0.19649  0.19541  0.15238  Biso   1.000  O
  O20      1.0000 0.93131  0.29667  0.97204  Biso   1.000  O
  C100     1.0000 0.01368  0.28702  0.10416  Biso   1.000  C
  C101     1.0000 0.09827  0.29278  0.24224  Biso   1.000  C
  C102     1.0000 0.21271  0.03527  0.20060  Biso   1.000  C
  C103     1.0000 0.87813  0.32001  0.01097  Biso   1.000  C
  H101     1.0000 0.98002  0.31438  0.13233  Biso   1.000  H
  H102     1.0000 0.14578  0.28675  0.26795  Biso   1.000  H
  H103     1.0000 0.07518  0.20574  0.26690  Biso   1.000  H
  H104     1.0000 0.08191  0.41054  0.24962  Biso   1.000  H
  C104     1.0000 0.18132  0.86642  0.15877  Biso   1.000  C
  H105     1.0000 0.26038  0.01730  0.20995  Biso   1.000  H
  H106     1.0000 0.20391  0.05217  0.25325  Biso   1.000  H
  C105     1.0000 0.81255  0.34174  0.94498  Biso   1.000  C
  H107     1.0000 0.88612  0.42315  0.04634  Biso   1.000  H
  H108     1.0000 0.87462  0.21620  0.04333  Biso   1.000  H
  O21      1.0000 0.21257  0.81813  0.09696  Biso   1.000  O
  H109     1.0000 0.13410  0.88828  0.13552  Biso   1.000  H
  H110     1.0000 0.18660  0.77133  0.19844  Biso   1.000  H
  O22      1.0000 0.78741  0.18187  0.90303  Biso   1.000  O
  H111     1.0000 0.77819  0.39284  0.96700  Biso   1.000  H
  H112     1.0000 0.82121  0.42422  0.90518  Biso   1.000  H
  C106     1.0000 0.18743  0.65826  0.05501  Biso   1.000  C
  C107     1.0000 0.81867  0.13358  0.84128  Biso   1.000  C
  C108     1.0000 0.12185  0.67999  0.98902  Biso   1.000  C
  H113     1.0000 0.22180  0.60716  0.03305  Biso   1.000  H
  H114     1.0000 0.17882  0.57578  0.09481  Biso   1.000  H
  C109     1.0000 0.78728  0.96473  0.79945  Biso   1.000  C
  H115     1.0000 0.86590  0.11172  0.86453  Biso   1.000  H
  H116     1.0000 0.81339  0.22867  0.80161  Biso   1.000  H
  H117     1.0000 0.11392  0.57685  0.95371  Biso   1.000  H
  H118     1.0000 0.12543  0.78380  0.95673  Biso   1.000  H
  O23      1.0000 0.06867  0.70333  0.02795  Biso   1.000  O
  O24      1.0000 0.80351  0.80459  0.84768  Biso   1.000  O
  H119     1.0000 0.73961  0.98270  0.79011  Biso   1.000  H
  H120     1.0000 0.79608  0.94783  0.74681  Biso   1.000  H
  C110     1.0000 0.00474  0.72733  0.97967  Biso   1.000  C
  C111     1.0000 0.87097  0.78085  0.88932  Biso   1.000  C
  C112     1.0000 0.95519  0.76408  0.02235  Biso   1.000  C
  C113     1.0000 0.98632  0.71298  0.89590  Biso   1.000  C
  C114     1.0000 0.88749  0.79332  0.97665  Biso   1.000  C
  C115     1.0000 0.91846  0.73686  0.84952  Biso   1.000  C
  C116     1.0000 0.97108  0.76891  0.10926  Biso   1.000  C
  H121     1.0000 0.02003  0.68562  0.86773  Biso   1.000  H
  C117     1.0000 0.83808  0.82605  0.01885  Biso   1.000  C
  C118     1.0000 0.90173  0.70722  0.75782  Biso   1.000  C
  C119     1.0000 0.92177  0.80016  0.14807  Biso   1.000  C
  H122     1.0000 0.01527  0.73055  0.13940  Biso   1.000  H
  H123     1.0000 0.79182  0.84227  0.98859  Biso   1.000  H
  C120     1.0000 0.85433  0.82766  0.10268  Biso   1.000  C
  H124     1.0000 0.85422  0.71325  0.73211  Biso   1.000  H
  H125     1.0000 0.92480  0.79426  0.73309  Biso   1.000  H
  H126     1.0000 0.91808  0.58946  0.75037  Biso   1.000  H
  H127     1.0000 0.93449  0.81706  0.20662  Biso   1.000  H
  H128     1.0000 0.82098  0.84724  0.13233  Biso   1.000  H
