data_image0
_cell_length_a       10.295
_cell_length_b       13.858
_cell_length_c       35.376
_cell_angle_alpha    90
_cell_angle_beta     92.18
_cell_angle_gamma    90

_symmetry_space_group_name_H-M    "P 1"
_symmetry_int_tables_number       1

loop_
  _symmetry_equiv_pos_as_xyz
  'x, y, z'

loop_
  _atom_site_label
  _atom_site_occupancy
  _atom_site_fract_x
  _atom_site_fract_y
  _atom_site_fract_z
  _atom_site_thermal_displace_type
  _atom_site_B_iso_or_equiv
  _atom_site_type_symbol
  C1       1.0000 0.49832  0.62181  0.45343  Biso   1.000  C
  C2       1.0000 0.62070  0.62592  0.43782  Biso   1.000  C
  C3       1.0000 0.42307  0.70342  0.45292  Biso   1.000  C
  H1       1.0000 0.46787  0.56357  0.46421  Biso   1.000  H
  N1       1.0000 0.70267  0.54272  0.43841  Biso   1.000  N
  N2       1.0000 0.66663  0.70551  0.42209  Biso   1.000  N
  C4       1.0000 0.47011  0.78713  0.43683  Biso   1.000  C
  H2       1.0000 0.33956  0.70263  0.46350  Biso   1.000  H
  C5       1.0000 0.76700  0.51883  0.40370  Biso   1.000  C
  C6       1.0000 0.75623  0.51133  0.47295  Biso   1.000  C
  C7       1.0000 0.59236  0.78467  0.42234  Biso   1.000  C
  H3       1.0000 0.41937  0.84442  0.43581  Biso   1.000  H
  H4       1.0000 0.85728  0.54128  0.40551  Biso   1.000  H
  H5       1.0000 0.72155  0.55030  0.38220  Biso   1.000  H
  H6       1.0000 0.76564  0.44869  0.40000  Biso   1.000  H
  N3       1.0000 0.72368  0.56285  0.50328  Biso   1.000  N
  C8       1.0000 0.83752  0.43123  0.47578  Biso   1.000  C
  N4       1.0000 0.64738  0.87040  0.40707  Biso   1.000  N
  C9       1.0000 0.77047  0.53659  0.53731  Biso   1.000  C
  H7       1.0000 0.85858  0.39501  0.45411  Biso   1.000  H
  C10      1.0000 0.88617  0.40648  0.51137  Biso   1.000  C
  C11      1.0000 0.70594  0.93318  0.43295  Biso   1.000  C
  C12      1.0000 0.70201  0.86131  0.36950  Biso   1.000  C
  N5       1.0000 0.72917  0.59237  0.56690  Biso   1.000  N
  C13      1.0000 0.85388  0.45743  0.54302  Biso   1.000  C
  H8       1.0000 0.94335  0.35286  0.51411  Biso   1.000  H
  N6       1.0000 0.69156  0.91139  0.46936  Biso   1.000  N
  C14      1.0000 0.77675  0.01422  0.42181  Biso   1.000  C
  H9       1.0000 0.79104  0.83641  0.37210  Biso   1.000  H
  H10      1.0000 0.70294  0.92466  0.35731  Biso   1.000  H
  H11      1.0000 0.64860  0.81671  0.35400  Biso   1.000  H
  C15      1.0000 0.65951  0.67968  0.55858  Biso   1.000  C
  C16      1.0000 0.76286  0.56812  0.60610  Biso   1.000  C
  H12      1.0000 0.88651  0.43989  0.56749  Biso   1.000  H
  C17      1.0000 0.74708  0.96681  0.49578  Biso   1.000  C
  C18      1.0000 0.83063  0.07180  0.44981  Biso   1.000  C
  H13      1.0000 0.78704  0.02872  0.39581  Biso   1.000  H
  C19      1.0000 0.72402  0.76411  0.54902  Biso   1.000  C
  C20      1.0000 0.52516  0.68278  0.55847  Biso   1.000  C
  H14      1.0000 0.73469  0.50202  0.61131  Biso   1.000  H
  H15      1.0000 0.71930  0.61293  0.62291  Biso   1.000  H
  H16      1.0000 0.85717  0.57288  0.61049  Biso   1.000  H
  N7       1.0000 0.73228  0.93578  0.53270  Biso   1.000  N
  C21      1.0000 0.81747  0.05051  0.48735  Biso   1.000  C
  H17      1.0000 0.87793  0.12772  0.44311  Biso   1.000  H
  N8       1.0000 0.86787  0.76129  0.54820  Biso   1.000  N
  C22      1.0000 0.66163  0.84991  0.53985  Biso   1.000  C
  H18      1.0000 0.47801  0.62657  0.56489  Biso   1.000  H
  C23      1.0000 0.45886  0.76671  0.54913  Biso   1.000  C
  C24      1.0000 0.80459  0.98203  0.56424  Biso   1.000  C
  H19      1.0000 0.85430  0.09042  0.50681  Biso   1.000  H
  O1       1.0000 0.92786  0.74448  0.57767  Biso   1.000  O
  O2       1.0000 0.91747  0.77637  0.51818  Biso   1.000  O
  C25      1.0000 0.52653  0.85041  0.53999  Biso   1.000  C
  H20      1.0000 0.36665  0.76750  0.54890  Biso   1.000  H
  H21      1.0000 0.89723  0.98398  0.55881  Biso   1.000  H
  H22      1.0000 0.79248  0.94509  0.58749  Biso   1.000  H
  H23      1.0000 0.77238  0.04791  0.56749  Biso   1.000  H
  H24      1.0000 0.47997  0.90792  0.53380  Biso   1.000  H
  C26      1.0000 0.50175  0.37819  0.54656  Biso   1.000  C
  C27      1.0000 0.37927  0.37408  0.56220  Biso   1.000  C
  C28      1.0000 0.57690  0.29658  0.54707  Biso   1.000  C
  H25      1.0000 0.53210  0.43643  0.53581  Biso   1.000  H
  N9       1.0000 0.29730  0.45728  0.56158  Biso   1.000  N
  N10      1.0000 0.33343  0.29449  0.57790  Biso   1.000  N
  C29      1.0000 0.52985  0.21287  0.56316  Biso   1.000  C
  H26      1.0000 0.66041  0.29737  0.53649  Biso   1.000  H
  C30      1.0000 0.24383  0.48867  0.52704  Biso   1.000  C
  C31      1.0000 0.23297  0.48117  0.59632  Biso   1.000  C
  C32      1.0000 0.40761  0.21533  0.57765  Biso   1.000  C
  H27      1.0000 0.58060  0.15558  0.56421  Biso   1.000  H
  N11      1.0000 0.27629  0.43715  0.49674  Biso   1.000  N
  C33      1.0000 0.16255  0.56877  0.52421  Biso   1.000  C
  H28      1.0000 0.14269  0.45872  0.59451  Biso   1.000  H
  H29      1.0000 0.27852  0.44970  0.61779  Biso   1.000  H
  H30      1.0000 0.23442  0.55131  0.59999  Biso   1.000  H
  N12      1.0000 0.35259  0.12960  0.59295  Biso   1.000  N
  C34      1.0000 0.22950  0.46341  0.46271  Biso   1.000  C
  C35      1.0000 0.11380  0.59352  0.48862  Biso   1.000  C
  H31      1.0000 0.14139  0.60499  0.54591  Biso   1.000  H
  C36      1.0000 0.29413  0.06682  0.56707  Biso   1.000  C
  C37      1.0000 0.29795  0.13869  0.63049  Biso   1.000  C
  N13      1.0000 0.27080  0.40763  0.43312  Biso   1.000  N
  C38      1.0000 0.14608  0.54257  0.45697  Biso   1.000  C
  H32      1.0000 0.05662  0.64714  0.48591  Biso   1.000  H
  N14      1.0000 0.30841  0.08861  0.53063  Biso   1.000  N
  C39      1.0000 0.22332  0.98578  0.57818  Biso   1.000  C
  H33      1.0000 0.20903  0.16359  0.62791  Biso   1.000  H
  H34      1.0000 0.29712  0.07534  0.64271  Biso   1.000  H
  H35      1.0000 0.35136  0.18329  0.64599  Biso   1.000  H
  C40      1.0000 0.23711  0.43188  0.39391  Biso   1.000  C
  C41      1.0000 0.34046  0.32032  0.44144  Biso   1.000  C
  H36      1.0000 0.11345  0.56011  0.43250  Biso   1.000  H
  C42      1.0000 0.25289  0.03319  0.50421  Biso   1.000  C
  C43      1.0000 0.16944  0.92820  0.55018  Biso   1.000  C
  H37      1.0000 0.21302  0.97128  0.60421  Biso   1.000  H
  H38      1.0000 0.26528  0.49798  0.38871  Biso   1.000  H
  H39      1.0000 0.28067  0.38707  0.37711  Biso   1.000  H
  H40      1.0000 0.14280  0.42712  0.38950  Biso   1.000  H
  C44      1.0000 0.27605  0.23589  0.45100  Biso   1.000  C
  C45      1.0000 0.47481  0.31722  0.44152  Biso   1.000  C
  N15      1.0000 0.26769  0.06422  0.46729  Biso   1.000  N
  C46      1.0000 0.18250  0.94949  0.51264  Biso   1.000  C
  H41      1.0000 0.12214  0.87228  0.55691  Biso   1.000  H
  N16      1.0000 0.13210  0.23871  0.45179  Biso   1.000  N
  C47      1.0000 0.33844  0.15009  0.46014  Biso   1.000  C
  H42      1.0000 0.52195  0.37343  0.43510  Biso   1.000  H
  C48      1.0000 0.54111  0.23329  0.45086  Biso   1.000  C
  C49      1.0000 0.19537  0.01797  0.43575  Biso   1.000  C
  H43      1.0000 0.14567  0.90958  0.49321  Biso   1.000  H
  O3       1.0000 0.07210  0.25552  0.42231  Biso   1.000  O
  O4       1.0000 0.08250  0.22363  0.48181  Biso   1.000  O
  C50      1.0000 0.47353  0.14959  0.46002  Biso   1.000  C
  H44      1.0000 0.63342  0.23250  0.45111  Biso   1.000  H
  H45      1.0000 0.10284  0.01602  0.44121  Biso   1.000  H
  H46      1.0000 0.20749  0.05491  0.41250  Biso   1.000  H
  H47      1.0000 0.22759  0.95209  0.43250  Biso   1.000  H
  H48      1.0000 0.51999  0.09208  0.46619  Biso   1.000  H
  C51      1.0000 0.70200  0.63869  0.86950  Biso   1.000  C
  N17      1.0000 0.64736  0.62960  0.90706  Biso   1.000  N
  H49      1.0000 0.79102  0.66359  0.87210  Biso   1.000  H
  H50      1.0000 0.70293  0.57534  0.85730  Biso   1.000  H
  H51      1.0000 0.64859  0.68329  0.85399  Biso   1.000  H
  C52      1.0000 0.70592  0.56682  0.93295  Biso   1.000  C
  C53      1.0000 0.59244  0.71533  0.92234  Biso   1.000  C
  N18      1.0000 0.69164  0.58861  0.96938  Biso   1.000  N
  C54      1.0000 0.77673  0.48578  0.92180  Biso   1.000  C
  N19      1.0000 0.66662  0.79449  0.92211  Biso   1.000  N
  C55      1.0000 0.47010  0.71287  0.93682  Biso   1.000  C
  C56      1.0000 0.74706  0.53319  0.99580  Biso   1.000  C
  C57      1.0000 0.83061  0.42820  0.94981  Biso   1.000  C
  H52      1.0000 0.78703  0.47128  0.89580  Biso   1.000  H
  C58      1.0000 0.62069  0.87408  0.93781  Biso   1.000  C
  H53      1.0000 0.41936  0.65558  0.93580  Biso   1.000  H
  C59      1.0000 0.42305  0.79658  0.95292  Biso   1.000  C
  C60      1.0000 0.81755  0.44949  0.98737  Biso   1.000  C
  N20      1.0000 0.73226  0.56422  0.03269  Biso   1.000  N
  H54      1.0000 0.87791  0.37228  0.94310  Biso   1.000  H
  N21      1.0000 0.70275  0.95728  0.93841  Biso   1.000  N
  C61      1.0000 0.49830  0.87819  0.95343  Biso   1.000  C
  H55      1.0000 0.33964  0.79737  0.96350  Biso   1.000  H
  H56      1.0000 0.85428  0.40958  0.00678  Biso   1.000  H
  C62      1.0000 0.66161  0.65009  0.03985  Biso   1.000  C
  C63      1.0000 0.80458  0.51797  0.06423  Biso   1.000  C
  C64      1.0000 0.76698  0.98117  0.90370  Biso   1.000  C
  C65      1.0000 0.75622  0.98867  0.97297  Biso   1.000  C
  H57      1.0000 0.46795  0.93643  0.96420  Biso   1.000  H
  C66      1.0000 0.72400  0.73589  0.04901  Biso   1.000  C
  C67      1.0000 0.52651  0.64959  0.03996  Biso   1.000  C
  H58      1.0000 0.77236  0.45209  0.06748  Biso   1.000  H
  H59      1.0000 0.89721  0.51602  0.05880  Biso   1.000  H
  H60      1.0000 0.79246  0.55491  0.08748  Biso   1.000  H
  H61      1.0000 0.85726  0.95872  0.90551  Biso   1.000  H
  H62      1.0000 0.72153  0.94970  0.88220  Biso   1.000  H
  H63      1.0000 0.76562  0.05131  0.89999  Biso   1.000  H
  N22      1.0000 0.72366  0.93715  0.00327  Biso   1.000  N
  C68      1.0000 0.83750  0.06877  0.97577  Biso   1.000  C
  N23      1.0000 0.86785  0.73871  0.04819  Biso   1.000  N
  C69      1.0000 0.65949  0.82032  0.05855  Biso   1.000  C
  C70      1.0000 0.45884  0.73329  0.04913  Biso   1.000  C
  H64      1.0000 0.47996  0.59208  0.03379  Biso   1.000  H
  C71      1.0000 0.77046  0.96341  0.03730  Biso   1.000  C
  H65      1.0000 0.85856  0.10499  0.95411  Biso   1.000  H
  C72      1.0000 0.88615  0.09352  0.01136  Biso   1.000  C
  O5       1.0000 0.92785  0.75552  0.07767  Biso   1.000  O
  O6       1.0000 0.91745  0.72363  0.01818  Biso   1.000  O
  N24      1.0000 0.72916  0.90763  0.06689  Biso   1.000  N
  C73      1.0000 0.52514  0.81722  0.05846  Biso   1.000  C
  H66      1.0000 0.36653  0.73250  0.04890  Biso   1.000  H
  C74      1.0000 0.85387  0.04257  0.04302  Biso   1.000  C
  H67      1.0000 0.94333  0.14714  0.01408  Biso   1.000  H
  C75      1.0000 0.76284  0.93188  0.10607  Biso   1.000  C
  H68      1.0000 0.47800  0.87343  0.06488  Biso   1.000  H
  H69      1.0000 0.88650  0.06011  0.06748  Biso   1.000  H
  H70      1.0000 0.73467  0.99798  0.11127  Biso   1.000  H
  H71      1.0000 0.71929  0.88707  0.12290  Biso   1.000  H
  H72      1.0000 0.85715  0.92712  0.11048  Biso   1.000  H
  C76      1.0000 0.29797  0.36131  0.13049  Biso   1.000  C
  N25      1.0000 0.35260  0.37040  0.09293  Biso   1.000  N
  H73      1.0000 0.20904  0.33641  0.12789  Biso   1.000  H
  H74      1.0000 0.29714  0.42466  0.14271  Biso   1.000  H
  H75      1.0000 0.35138  0.31671  0.14600  Biso   1.000  H
  C77      1.0000 0.29415  0.43318  0.06707  Biso   1.000  C
  C78      1.0000 0.40762  0.28467  0.07765  Biso   1.000  C
  N26      1.0000 0.30842  0.41139  0.03064  Biso   1.000  N
  C79      1.0000 0.22333  0.51422  0.07819  Biso   1.000  C
  N27      1.0000 0.33345  0.20551  0.07791  Biso   1.000  N
  C80      1.0000 0.52987  0.28713  0.06317  Biso   1.000  C
  C81      1.0000 0.25291  0.46681  0.00421  Biso   1.000  C
  C82      1.0000 0.16936  0.57180  0.05018  Biso   1.000  C
  H76      1.0000 0.21304  0.52872  0.10421  Biso   1.000  H
  C83      1.0000 0.37928  0.12592  0.06218  Biso   1.000  C
  H77      1.0000 0.58061  0.34442  0.06419  Biso   1.000  H
  C84      1.0000 0.57692  0.20342  0.04707  Biso   1.000  C
  C85      1.0000 0.18252  0.55051  0.01264  Biso   1.000  C
  N28      1.0000 0.26770  0.43578  0.96730  Biso   1.000  N
  H78      1.0000 0.12205  0.62772  0.05689  Biso   1.000  H
  N29      1.0000 0.29732  0.04272  0.06158  Biso   1.000  N
  C86      1.0000 0.50167  0.12181  0.04656  Biso   1.000  C
  H79      1.0000 0.66043  0.20263  0.03649  Biso   1.000  H
  H80      1.0000 0.14569  0.59042  0.99321  Biso   1.000  H
  C87      1.0000 0.33846  0.34991  0.96017  Biso   1.000  C
  C88      1.0000 0.19539  0.48203  0.93576  Biso   1.000  C
  C89      1.0000 0.23299  0.01883  0.09632  Biso   1.000  C
  C90      1.0000 0.24385  0.01133  0.02704  Biso   1.000  C
  H81      1.0000 0.53212  0.06357  0.03581  Biso   1.000  H
  C91      1.0000 0.27606  0.26411  0.95100  Biso   1.000  C
  C92      1.0000 0.47355  0.35041  0.96003  Biso   1.000  C
  H82      1.0000 0.22760  0.54791  0.93250  Biso   1.000  H
  H83      1.0000 0.10286  0.48398  0.94122  Biso   1.000  H
  H84      1.0000 0.20750  0.44509  0.91250  Biso   1.000  H
  H85      1.0000 0.14271  0.04128  0.09451  Biso   1.000  H
  H86      1.0000 0.27853  0.05030  0.11779  Biso   1.000  H
  H87      1.0000 0.23444  0.94869  0.10000  Biso   1.000  H
  C93      1.0000 0.16247  0.93123  0.02421  Biso   1.000  C
  N30      1.0000 0.27631  0.06285  0.99675  Biso   1.000  N
  N31      1.0000 0.13212  0.26129  0.95180  Biso   1.000  N
  C94      1.0000 0.34057  0.17968  0.94144  Biso   1.000  C
  C95      1.0000 0.54113  0.26671  0.95089  Biso   1.000  C
  H88      1.0000 0.52001  0.40792  0.96622  Biso   1.000  H
  C96      1.0000 0.11381  0.90648  0.98863  Biso   1.000  C
  H89      1.0000 0.14141  0.89501  0.04591  Biso   1.000  H
  C97      1.0000 0.22951  0.03659  0.96272  Biso   1.000  C
  O7       1.0000 0.07212  0.24448  0.92232  Biso   1.000  O
  O8       1.0000 0.08252  0.27637  0.98181  Biso   1.000  O
  N32      1.0000 0.27081  0.09237  0.93313  Biso   1.000  N
  C98      1.0000 0.47482  0.18278  0.94153  Biso   1.000  C
  H90      1.0000 0.63344  0.26750  0.95112  Biso   1.000  H
  H91      1.0000 0.05663  0.85286  0.98591  Biso   1.000  H
  C99      1.0000 0.14610  0.95743  0.95700  Biso   1.000  C
  C100     1.0000 0.23713  0.06812  0.89392  Biso   1.000  C
  H92      1.0000 0.52207  0.12657  0.93511  Biso   1.000  H
  H93      1.0000 0.11357  0.93989  0.93250  Biso   1.000  H
  H94      1.0000 0.26530  0.00202  0.88871  Biso   1.000  H
  H95      1.0000 0.28078  0.11293  0.87712  Biso   1.000  H
  H96      1.0000 0.14282  0.07288  0.88951  Biso   1.000  H
