data_image0
_cell_length_a       14.239
_cell_length_b       21.245
_cell_length_c       24.51
_cell_angle_alpha    90
_cell_angle_beta     92.19
_cell_angle_gamma    90

_symmetry_space_group_name_H-M    "P 1"
_symmetry_int_tables_number       1

loop_
  _symmetry_equiv_pos_as_xyz
  'x, y, z'

loop_
  _atom_site_label
  _atom_site_occupancy
  _atom_site_fract_x
  _atom_site_fract_y
  _atom_site_fract_z
  _atom_site_thermal_displace_type
  _atom_site_B_iso_or_equiv
  _atom_site_type_symbol
  C1       1.0000 0.72591  0.45286  0.48608  Biso   1.000  C
  C2       1.0000 0.76890  0.41704  0.43814  Biso   1.000  C
  H1       1.0000 0.65862  0.44340  0.48701  Biso   1.000  H
  H2       1.0000 0.73457  0.49819  0.48101  Biso   1.000  H
  H3       1.0000 0.75718  0.43968  0.52049  Biso   1.000  H
  C3       1.0000 0.72005  0.43770  0.38523  Biso   1.000  C
  C4       1.0000 0.75981  0.34700  0.44831  Biso   1.000  C
  C5       1.0000 0.87408  0.43441  0.43879  Biso   1.000  C
  N1       1.0000 0.75562  0.42523  0.33452  Biso   1.000  N
  C6       1.0000 0.63987  0.47239  0.37596  Biso   1.000  C
  N2       1.0000 0.80140  0.30346  0.41544  Biso   1.000  N
  C7       1.0000 0.72428  0.31405  0.49110  Biso   1.000  C
  C8       1.0000 0.90738  0.48430  0.40805  Biso   1.000  C
  C9       1.0000 0.93831  0.40019  0.47150  Biso   1.000  C
  C10      1.0000 0.69893  0.45201  0.29365  Biso   1.000  C
  H4       1.0000 0.80688  0.40339  0.32909  Biso   1.000  H
  C11      1.0000 0.62648  0.48091  0.31872  Biso   1.000  C
  H5       1.0000 0.60008  0.48802  0.40311  Biso   1.000  H
  C12      1.0000 0.79337  0.24387  0.43647  Biso   1.000  C
  H6       1.0000 0.82938  0.31259  0.38498  Biso   1.000  H
  C13      1.0000 0.74470  0.24952  0.48338  Biso   1.000  C
  H7       1.0000 0.69174  0.33151  0.52062  Biso   1.000  H
  H8       1.0000 0.86501  0.50930  0.38641  Biso   1.000  H
  C14      1.0000 0.00256  0.49715  0.40944  Biso   1.000  C
  H9       1.0000 0.91728  0.36649  0.49338  Biso   1.000  H
  C15      1.0000 0.03250  0.41567  0.47170  Biso   1.000  C
  C16      1.0000 0.72274  0.44773  0.23395  Biso   1.000  C
  H10      1.0000 0.57587  0.50289  0.30091  Biso   1.000  H
  C17      1.0000 0.83643  0.18795  0.40878  Biso   1.000  C
  H11      1.0000 0.72769  0.21600  0.50669  Biso   1.000  H
  N3       1.0000 0.03678  0.54822  0.37445  Biso   1.000  N
  C18      1.0000 0.06768  0.46340  0.44059  Biso   1.000  C
  N4       1.0000 0.09913  0.37778  0.50555  Biso   1.000  N
  C19      1.0000 0.70417  0.38235  0.21109  Biso   1.000  C
  C20      1.0000 0.82663  0.46529  0.22673  Biso   1.000  C
  C21      1.0000 0.66042  0.49489  0.20153  Biso   1.000  C
  C22      1.0000 0.78749  0.17708  0.35346  Biso   1.000  C
  C23      1.0000 0.82408  0.12925  0.44418  Biso   1.000  C
  C24      1.0000 0.94222  0.19915  0.40278  Biso   1.000  C
  O1       1.0000 0.97849  0.57896  0.34770  Biso   1.000  O
  O2       1.0000 0.12171  0.55703  0.37367  Biso   1.000  O
  H12      1.0000 0.13299  0.47258  0.44059  Biso   1.000  H
  O3       1.0000 0.18271  0.39026  0.50359  Biso   1.000  O
  O4       1.0000 0.06826  0.33608  0.53380  Biso   1.000  O
  C25      1.0000 0.63894  0.36159  0.17275  Biso   1.000  C
  N5       1.0000 0.75874  0.33104  0.22607  Biso   1.000  N
  H13      1.0000 0.86713  0.43601  0.24771  Biso   1.000  H
  H14      1.0000 0.83788  0.50831  0.23979  Biso   1.000  H
  H15      1.0000 0.84087  0.46270  0.18802  Biso   1.000  H
  H16      1.0000 0.67530  0.49320  0.16291  Biso   1.000  H
  H17      1.0000 0.67209  0.53749  0.21558  Biso   1.000  H
  H18      1.0000 0.59418  0.48402  0.20562  Biso   1.000  H
  N6       1.0000 0.81588  0.20739  0.30683  Biso   1.000  N
  C26      1.0000 0.71271  0.14046  0.33770  Biso   1.000  C
  H19      1.0000 0.85682  0.13542  0.47971  Biso   1.000  H
  H20      1.0000 0.85062  0.09259  0.42601  Biso   1.000  H
  H21      1.0000 0.75708  0.12219  0.44949  Biso   1.000  H
  H22      1.0000 0.95161  0.23799  0.38220  Biso   1.000  H
  H23      1.0000 0.96938  0.16371  0.38331  Biso   1.000  H
  H24      1.0000 0.97312  0.20292  0.43908  Biso   1.000  H
  C27      1.0000 0.65404  0.29612  0.16426  Biso   1.000  C
  H25      1.0000 0.59169  0.38659  0.15491  Biso   1.000  H
  C28      1.0000 0.72850  0.27837  0.19757  Biso   1.000  C
  H26      1.0000 0.80591  0.33180  0.25028  Biso   1.000  H
  C29      1.0000 0.75987  0.18903  0.26245  Biso   1.000  C
  H27      1.0000 0.86272  0.23441  0.30569  Biso   1.000  H
  C30      1.0000 0.69590  0.14747  0.28078  Biso   1.000  C
  H28      1.0000 0.67773  0.11452  0.36101  Biso   1.000  H
  H29      1.0000 0.61879  0.26962  0.13988  Biso   1.000  H
  C31      1.0000 0.77488  0.21436  0.20554  Biso   1.000  C
  H30      1.0000 0.64841  0.12681  0.25919  Biso   1.000  H
  C32      1.0000 0.88012  0.21662  0.19435  Biso   1.000  C
  C33      1.0000 0.72898  0.16795  0.16332  Biso   1.000  C
  C34      1.0000 0.92089  0.26651  0.16707  Biso   1.000  C
  C35      1.0000 0.93833  0.16597  0.21023  Biso   1.000  C
  H31      1.0000 0.75827  0.12638  0.16761  Biso   1.000  H
  H32      1.0000 0.73820  0.18362  0.12629  Biso   1.000  H
  H33      1.0000 0.66162  0.16460  0.16948  Biso   1.000  H
  H34      1.0000 0.88403  0.30209  0.15670  Biso   1.000  H
  C36      1.0000 0.01455  0.26420  0.15507  Biso   1.000  C
  H35      1.0000 0.91321  0.13161  0.22979  Biso   1.000  H
  C37      1.0000 0.03139  0.16597  0.19749  Biso   1.000  C
  N7       1.0000 0.05511  0.31819  0.12669  Biso   1.000  N
  C38      1.0000 0.07293  0.21431  0.16916  Biso   1.000  C
  N8       1.0000 0.09144  0.11250  0.21562  Biso   1.000  N
  O5       1.0000 0.13086  0.31080  0.10501  Biso   1.000  O
  O6       1.0000 0.01061  0.36757  0.12502  Biso   1.000  O
  H36      1.0000 0.13722  0.21332  0.16001  Biso   1.000  H
  O7       1.0000 0.17321  0.11207  0.20215  Biso   1.000  O
  O8       1.0000 0.05552  0.07131  0.24289  Biso   1.000  O
  C39      1.0000 0.27413  0.54714  0.51392  Biso   1.000  C
  C40      1.0000 0.23114  0.58296  0.56185  Biso   1.000  C
  H37      1.0000 0.34142  0.55660  0.51298  Biso   1.000  H
  H38      1.0000 0.26540  0.50181  0.51898  Biso   1.000  H
  H39      1.0000 0.24279  0.56032  0.47950  Biso   1.000  H
  C41      1.0000 0.24024  0.65300  0.55173  Biso   1.000  C
  C42      1.0000 0.12590  0.56559  0.56120  Biso   1.000  C
  C43      1.0000 0.27992  0.56230  0.61477  Biso   1.000  C
  N9       1.0000 0.19857  0.69654  0.58456  Biso   1.000  N
  C44      1.0000 0.27577  0.68595  0.50890  Biso   1.000  C
  C45      1.0000 0.09266  0.51570  0.59195  Biso   1.000  C
  C46      1.0000 0.06166  0.59981  0.52850  Biso   1.000  C
  C47      1.0000 0.36017  0.52761  0.62404  Biso   1.000  C
  N10      1.0000 0.24442  0.57477  0.66548  Biso   1.000  N
  H40      1.0000 0.17059  0.68741  0.61501  Biso   1.000  H
  C48      1.0000 0.20660  0.75613  0.56353  Biso   1.000  C
  H41      1.0000 0.30831  0.66849  0.47942  Biso   1.000  H
  C49      1.0000 0.25528  0.75048  0.51662  Biso   1.000  C
  H42      1.0000 0.13503  0.49070  0.61359  Biso   1.000  H
  C50      1.0000 0.99741  0.50285  0.59060  Biso   1.000  C
  H43      1.0000 0.08270  0.63351  0.50661  Biso   1.000  H
  C51      1.0000 0.96747  0.58433  0.52829  Biso   1.000  C
  H44      1.0000 0.39989  0.51198  0.59689  Biso   1.000  H
  C52      1.0000 0.37356  0.51909  0.68128  Biso   1.000  C
  H45      1.0000 0.19309  0.59661  0.67091  Biso   1.000  H
  C53      1.0000 0.30104  0.54799  0.70635  Biso   1.000  C
  C54      1.0000 0.16362  0.81205  0.59121  Biso   1.000  C
  H46      1.0000 0.27228  0.78400  0.49330  Biso   1.000  H
  N11      1.0000 0.96320  0.45178  0.62559  Biso   1.000  N
  C55      1.0000 0.93229  0.53660  0.55940  Biso   1.000  C
  N12      1.0000 0.90091  0.62222  0.49445  Biso   1.000  N
  H47      1.0000 0.42410  0.49711  0.69908  Biso   1.000  H
  C56      1.0000 0.27723  0.55227  0.76604  Biso   1.000  C
  C57      1.0000 0.21248  0.82292  0.64654  Biso   1.000  C
  C58      1.0000 0.17590  0.87075  0.55581  Biso   1.000  C
  C59      1.0000 0.05775  0.80085  0.59721  Biso   1.000  C
  O9       1.0000 0.02156  0.42104  0.65229  Biso   1.000  O
  O10      1.0000 0.87834  0.44297  0.62632  Biso   1.000  O
  H48      1.0000 0.86698  0.52742  0.55940  Biso   1.000  H
  O11      1.0000 0.81733  0.60974  0.49641  Biso   1.000  O
  O12      1.0000 0.93171  0.66392  0.46619  Biso   1.000  O
  C60      1.0000 0.29580  0.61765  0.78891  Biso   1.000  C
  C61      1.0000 0.17334  0.53471  0.77327  Biso   1.000  C
  C62      1.0000 0.33962  0.50511  0.79846  Biso   1.000  C
  N13      1.0000 0.18409  0.79261  0.69316  Biso   1.000  N
  C63      1.0000 0.28733  0.85954  0.66230  Biso   1.000  C
  H49      1.0000 0.14322  0.86458  0.52029  Biso   1.000  H
  H50      1.0000 0.14942  0.90741  0.57398  Biso   1.000  H
  H51      1.0000 0.24290  0.87781  0.55050  Biso   1.000  H
  H52      1.0000 0.04843  0.76201  0.61779  Biso   1.000  H
  H53      1.0000 0.03059  0.83629  0.61669  Biso   1.000  H
  H54      1.0000 0.02692  0.79708  0.56092  Biso   1.000  H
  N14      1.0000 0.24130  0.66896  0.77392  Biso   1.000  N
  C64      1.0000 0.36111  0.63841  0.82729  Biso   1.000  C
  H55      1.0000 0.13292  0.56399  0.75228  Biso   1.000  H
  H56      1.0000 0.16209  0.49169  0.76020  Biso   1.000  H
  H57      1.0000 0.15911  0.53730  0.81202  Biso   1.000  H
  H58      1.0000 0.32467  0.50680  0.83709  Biso   1.000  H
  H59      1.0000 0.32788  0.46251  0.78442  Biso   1.000  H
  H60      1.0000 0.40579  0.51598  0.79442  Biso   1.000  H
  H61      1.0000 0.13732  0.76559  0.69431  Biso   1.000  H
  C65      1.0000 0.24010  0.81097  0.73754  Biso   1.000  C
  C66      1.0000 0.30407  0.85253  0.71921  Biso   1.000  C
  H62      1.0000 0.32232  0.88548  0.63898  Biso   1.000  H
  H63      1.0000 0.19413  0.66820  0.74971  Biso   1.000  H
  C67      1.0000 0.27155  0.72163  0.80242  Biso   1.000  C
  C68      1.0000 0.34593  0.70388  0.83574  Biso   1.000  C
  H64      1.0000 0.40828  0.61341  0.84509  Biso   1.000  H
  C69      1.0000 0.22509  0.78564  0.79446  Biso   1.000  C
  H65      1.0000 0.35163  0.87319  0.74081  Biso   1.000  H
  H66      1.0000 0.38118  0.73038  0.86011  Biso   1.000  H
  C70      1.0000 0.11985  0.78338  0.80565  Biso   1.000  C
  C71      1.0000 0.27099  0.83205  0.83668  Biso   1.000  C
  C72      1.0000 0.07916  0.73349  0.83292  Biso   1.000  C
  C73      1.0000 0.06171  0.83403  0.78976  Biso   1.000  C
  H67      1.0000 0.24170  0.87362  0.83239  Biso   1.000  H
  H68      1.0000 0.26177  0.81638  0.87371  Biso   1.000  H
  H69      1.0000 0.33843  0.83540  0.83051  Biso   1.000  H
  H70      1.0000 0.11601  0.69791  0.84329  Biso   1.000  H
  C74      1.0000 0.98542  0.73580  0.84493  Biso   1.000  C
  H71      1.0000 0.08683  0.86839  0.77021  Biso   1.000  H
  C75      1.0000 0.96858  0.83403  0.80250  Biso   1.000  C
  N15      1.0000 0.94487  0.68181  0.87330  Biso   1.000  N
  C76      1.0000 0.92704  0.78569  0.83084  Biso   1.000  C
  N16      1.0000 0.90861  0.88750  0.78438  Biso   1.000  N
  O13      1.0000 0.86911  0.68920  0.89498  Biso   1.000  O
  O14      1.0000 0.98936  0.63243  0.87498  Biso   1.000  O
  H72      1.0000 0.86282  0.78668  0.83999  Biso   1.000  H
  O15      1.0000 0.82676  0.88793  0.79785  Biso   1.000  O
  O16      1.0000 0.94446  0.92869  0.75710  Biso   1.000  O
  N17      1.0000 0.59142  0.38748  0.71562  Biso   1.000  N
  C77      1.0000 0.53138  0.33406  0.69749  Biso   1.000  C
  O17      1.0000 0.67320  0.38795  0.70214  Biso   1.000  O
  O18      1.0000 0.55550  0.42871  0.74289  Biso   1.000  O
  C78      1.0000 0.57292  0.28567  0.66915  Biso   1.000  C
  C79      1.0000 0.43832  0.33406  0.71023  Biso   1.000  C
  C80      1.0000 0.51461  0.23577  0.65511  Biso   1.000  C
  H73      1.0000 0.63721  0.28670  0.66001  Biso   1.000  H
  C81      1.0000 0.38011  0.28336  0.69435  Biso   1.000  C
  H74      1.0000 0.41320  0.36842  0.72979  Biso   1.000  H
  N18      1.0000 0.55516  0.18183  0.62669  Biso   1.000  N
  C82      1.0000 0.42087  0.23351  0.66707  Biso   1.000  C
  C83      1.0000 0.27487  0.28567  0.70553  Biso   1.000  C
  O19      1.0000 0.51060  0.13245  0.62502  Biso   1.000  O
  O20      1.0000 0.63085  0.18922  0.60501  Biso   1.000  O
  H75      1.0000 0.38402  0.19788  0.65670  Biso   1.000  H
  C84      1.0000 0.22848  0.22161  0.69757  Biso   1.000  C
  C85      1.0000 0.25986  0.31099  0.76245  Biso   1.000  C
  C86      1.0000 0.22897  0.33208  0.66332  Biso   1.000  C
  N19      1.0000 0.25873  0.16898  0.72607  Biso   1.000  N
  C87      1.0000 0.15409  0.20386  0.66426  Biso   1.000  C
  N20      1.0000 0.31587  0.29259  0.80683  Biso   1.000  N
  C88      1.0000 0.19589  0.35251  0.78078  Biso   1.000  C
  H76      1.0000 0.25832  0.37359  0.66760  Biso   1.000  H
  H77      1.0000 0.23819  0.31640  0.62628  Biso   1.000  H
  H78      1.0000 0.16160  0.33542  0.66948  Biso   1.000  H
  H79      1.0000 0.30590  0.16818  0.75028  Biso   1.000  H
  C89      1.0000 0.20423  0.11767  0.71109  Biso   1.000  C
  H80      1.0000 0.11878  0.23041  0.63988  Biso   1.000  H
  C90      1.0000 0.13892  0.13839  0.67275  Biso   1.000  C
  H81      1.0000 0.36271  0.26562  0.80569  Biso   1.000  H
  C91      1.0000 0.28755  0.32295  0.85346  Biso   1.000  C
  H82      1.0000 0.14840  0.37322  0.75918  Biso   1.000  H
  C92      1.0000 0.21270  0.35957  0.83770  Biso   1.000  C
  C93      1.0000 0.22273  0.05229  0.73395  Biso   1.000  C
  H83      1.0000 0.09168  0.11339  0.65491  Biso   1.000  H
  C94      1.0000 0.33641  0.31207  0.90878  Biso   1.000  C
  H84      1.0000 0.17771  0.38550  0.86101  Biso   1.000  H
  C95      1.0000 0.32661  0.03474  0.72672  Biso   1.000  C
  C96      1.0000 0.19891  0.04801  0.79364  Biso   1.000  C
  C97      1.0000 0.16041  0.00513  0.70153  Biso   1.000  C
  C98      1.0000 0.29343  0.25615  0.93647  Biso   1.000  C
  C99      1.0000 0.32413  0.37072  0.94418  Biso   1.000  C
  C100     1.0000 0.44228  0.30082  0.90278  Biso   1.000  C
  H85      1.0000 0.36711  0.06402  0.74771  Biso   1.000  H
  H86      1.0000 0.34092  0.03728  0.68802  Biso   1.000  H
  H87      1.0000 0.33787  0.99172  0.73979  Biso   1.000  H
  N21      1.0000 0.25561  0.07479  0.83451  Biso   1.000  N
  C101     1.0000 0.12647  0.01911  0.81871  Biso   1.000  C
  H88      1.0000 0.17529  0.00678  0.66291  Biso   1.000  H
  H89      1.0000 0.09417  0.01600  0.70562  Biso   1.000  H
  H90      1.0000 0.17208  0.96249  0.71562  Biso   1.000  H
  N22      1.0000 0.30145  0.19652  0.91544  Biso   1.000  N
  C102     1.0000 0.24468  0.25046  0.98338  Biso   1.000  C
  H91      1.0000 0.35681  0.36460  0.97970  Biso   1.000  H
  H92      1.0000 0.35061  0.40739  0.92601  Biso   1.000  H
  H93      1.0000 0.25713  0.37778  0.94949  Biso   1.000  H
  H94      1.0000 0.45160  0.26199  0.88220  Biso   1.000  H
  H95      1.0000 0.46937  0.33631  0.88331  Biso   1.000  H
  H96      1.0000 0.47311  0.29711  0.93912  Biso   1.000  H
  H97      1.0000 0.30687  0.09659  0.82908  Biso   1.000  H
  C103     1.0000 0.22004  0.06232  0.88522  Biso   1.000  C
  C104     1.0000 0.13986  0.02763  0.87596  Biso   1.000  C
  H98      1.0000 0.07593  0.99708  0.80091  Biso   1.000  H
  H99      1.0000 0.32937  0.18739  0.88502  Biso   1.000  H
  C105     1.0000 0.25979  0.15302  0.94831  Biso   1.000  C
  C106     1.0000 0.22426  0.18593  0.99110  Biso   1.000  C
  H100     1.0000 0.22768  0.28402  0.00669  Biso   1.000  H
  C107     1.0000 0.26889  0.08298  0.93814  Biso   1.000  C
  H101     1.0000 0.10007  0.01200  0.90311  Biso   1.000  H
  H102     1.0000 0.19172  0.16851  0.02061  Biso   1.000  H
  C108     1.0000 0.37413  0.06562  0.93879  Biso   1.000  C
  C109     1.0000 0.22590  0.04712  0.98607  Biso   1.000  C
  C110     1.0000 0.40737  0.01567  0.90805  Biso   1.000  C
  C111     1.0000 0.43830  0.09979  0.97150  Biso   1.000  C
  H103     1.0000 0.15861  0.05658  0.98701  Biso   1.000  H
  H104     1.0000 0.23462  0.00179  0.98101  Biso   1.000  H
  H105     1.0000 0.25717  0.06030  0.02049  Biso   1.000  H
  C112     1.0000 0.50255  0.00282  0.90944  Biso   1.000  C
  H106     1.0000 0.36500  0.99068  0.88641  Biso   1.000  H
  H107     1.0000 0.41733  0.13349  0.99338  Biso   1.000  H
  C113     1.0000 0.53249  0.08430  0.97170  Biso   1.000  C
  C114     1.0000 0.56773  0.03662  0.94059  Biso   1.000  C
  N23      1.0000 0.53677  0.95180  0.87445  Biso   1.000  N
  N24      1.0000 0.59912  0.12219  0.00559  Biso   1.000  N
  H108     1.0000 0.63298  0.02739  0.94059  Biso   1.000  H
  O21      1.0000 0.47847  0.92102  0.84770  Biso   1.000  O
  O22      1.0000 0.62169  0.94295  0.87367  Biso   1.000  O
  O23      1.0000 0.68270  0.10972  0.00359  Biso   1.000  O
  O24      1.0000 0.56832  0.16394  0.03380  Biso   1.000  O
  N25      1.0000 0.40862  0.61252  0.28438  Biso   1.000  N
  O25      1.0000 0.44447  0.57129  0.25710  Biso   1.000  O
  O26      1.0000 0.32678  0.61205  0.29785  Biso   1.000  O
  C115     1.0000 0.46860  0.66594  0.30251  Biso   1.000  C
  C116     1.0000 0.56165  0.66594  0.28977  Biso   1.000  C
  C117     1.0000 0.42706  0.71433  0.33084  Biso   1.000  C
  H109     1.0000 0.58677  0.63158  0.27021  Biso   1.000  H
  C118     1.0000 0.61987  0.71664  0.30565  Biso   1.000  C
  C119     1.0000 0.48543  0.76423  0.34493  Biso   1.000  C
  H110     1.0000 0.36277  0.71330  0.33999  Biso   1.000  H
  C120     1.0000 0.57917  0.76649  0.33292  Biso   1.000  C
  C121     1.0000 0.72511  0.71433  0.29446  Biso   1.000  C
  N26      1.0000 0.44488  0.81817  0.37330  Biso   1.000  N
  H111     1.0000 0.61602  0.80212  0.34329  Biso   1.000  H
  C122     1.0000 0.77149  0.77839  0.30242  Biso   1.000  C
  C123     1.0000 0.74011  0.68901  0.23755  Biso   1.000  C
  C124     1.0000 0.77100  0.66792  0.33668  Biso   1.000  C
  O27      1.0000 0.36912  0.81078  0.39498  Biso   1.000  O
  O28      1.0000 0.48937  0.86755  0.37498  Biso   1.000  O
  N27      1.0000 0.74124  0.83102  0.27393  Biso   1.000  N
  C125     1.0000 0.84595  0.79614  0.33574  Biso   1.000  C
  N28      1.0000 0.68410  0.70741  0.19316  Biso   1.000  N
  C126     1.0000 0.80408  0.64749  0.21921  Biso   1.000  C
  H112     1.0000 0.74172  0.62641  0.33239  Biso   1.000  H
  H113     1.0000 0.76178  0.68360  0.37371  Biso   1.000  H
  H114     1.0000 0.83837  0.66458  0.33051  Biso   1.000  H
  H115     1.0000 0.69407  0.83182  0.24971  Biso   1.000  H
  C127     1.0000 0.79581  0.88233  0.28891  Biso   1.000  C
  H116     1.0000 0.88119  0.76959  0.36012  Biso   1.000  H
  C128     1.0000 0.86112  0.86161  0.32729  Biso   1.000  C
  H117     1.0000 0.63733  0.73438  0.19431  Biso   1.000  H
  C129     1.0000 0.71250  0.67705  0.14654  Biso   1.000  C
  H118     1.0000 0.85157  0.62678  0.24081  Biso   1.000  H
  C130     1.0000 0.78728  0.64043  0.16230  Biso   1.000  C
  C131     1.0000 0.77724  0.94771  0.26604  Biso   1.000  C
  H119     1.0000 0.90830  0.88661  0.34509  Biso   1.000  H
  C132     1.0000 0.66363  0.68793  0.09121  Biso   1.000  C
  H120     1.0000 0.82233  0.61450  0.13898  Biso   1.000  H
  C133     1.0000 0.67336  0.96526  0.27327  Biso   1.000  C
  C134     1.0000 0.80106  0.95199  0.20635  Biso   1.000  C
  C135     1.0000 0.83963  0.99487  0.29846  Biso   1.000  C
  C136     1.0000 0.70662  0.74385  0.06353  Biso   1.000  C
  C137     1.0000 0.67591  0.62928  0.05581  Biso   1.000  C
  C138     1.0000 0.55777  0.69918  0.09722  Biso   1.000  C
  H121     1.0000 0.63293  0.93598  0.25229  Biso   1.000  H
  H122     1.0000 0.65912  0.96272  0.31202  Biso   1.000  H
  H123     1.0000 0.66210  0.00828  0.26021  Biso   1.000  H
  N29      1.0000 0.74443  0.92521  0.16548  Biso   1.000  N
  C139     1.0000 0.87350  0.98089  0.18128  Biso   1.000  C
  H124     1.0000 0.82469  0.99322  0.33709  Biso   1.000  H
  H125     1.0000 0.90580  0.98400  0.29438  Biso   1.000  H
  H126     1.0000 0.82789  0.03751  0.28442  Biso   1.000  H
  N30      1.0000 0.69859  0.80348  0.08456  Biso   1.000  N
  C140     1.0000 0.75529  0.74954  0.01662  Biso   1.000  C
  H127     1.0000 0.64323  0.63540  0.02029  Biso   1.000  H
  H128     1.0000 0.64936  0.59261  0.07398  Biso   1.000  H
  H129     1.0000 0.74291  0.62222  0.05051  Biso   1.000  H
  H130     1.0000 0.54838  0.73801  0.11779  Biso   1.000  H
  H131     1.0000 0.53061  0.66369  0.11669  Biso   1.000  H
  H132     1.0000 0.52687  0.70289  0.06092  Biso   1.000  H
  H133     1.0000 0.69310  0.90341  0.17091  Biso   1.000  H
  C141     1.0000 0.77994  0.93768  0.11477  Biso   1.000  C
  C142     1.0000 0.86019  0.97237  0.12404  Biso   1.000  C
  H134     1.0000 0.92411  0.00292  0.19908  Biso   1.000  H
  H135     1.0000 0.67060  0.81261  0.11502  Biso   1.000  H
  C143     1.0000 0.74025  0.84698  0.05169  Biso   1.000  C
  C144     1.0000 0.77571  0.81407  0.00890  Biso   1.000  C
  H136     1.0000 0.77230  0.71598  0.99330  Biso   1.000  H
  C145     1.0000 0.73116  0.91702  0.06186  Biso   1.000  C
  H137     1.0000 0.89990  0.98800  0.09689  Biso   1.000  H
  H138     1.0000 0.80832  0.83149  0.97938  Biso   1.000  H
  C146     1.0000 0.62591  0.93438  0.06120  Biso   1.000  C
  C147     1.0000 0.77407  0.95288  0.01392  Biso   1.000  C
  C148     1.0000 0.59261  0.98433  0.09195  Biso   1.000  C
  C149     1.0000 0.56168  0.90021  0.02850  Biso   1.000  C
  H139     1.0000 0.84143  0.94342  0.01298  Biso   1.000  H
  H140     1.0000 0.76542  0.99821  0.01899  Biso   1.000  H
  H141     1.0000 0.74281  0.93970  0.97950  Biso   1.000  H
  C150     1.0000 0.49742  0.99718  0.09056  Biso   1.000  C
  H142     1.0000 0.63497  0.00932  0.11359  Biso   1.000  H
  H143     1.0000 0.58271  0.86651  0.00661  Biso   1.000  H
  C151     1.0000 0.46748  0.91570  0.02829  Biso   1.000  C
  C152     1.0000 0.43231  0.96338  0.05941  Biso   1.000  C
  N31      1.0000 0.46321  0.04820  0.12555  Biso   1.000  N
  N32      1.0000 0.40093  0.87781  0.99445  Biso   1.000  N
  H144     1.0000 0.36699  0.97261  0.05941  Biso   1.000  H
  O29      1.0000 0.52157  0.07898  0.15229  Biso   1.000  O
  O30      1.0000 0.37835  0.05705  0.12633  Biso   1.000  O
  O31      1.0000 0.31734  0.89028  0.99641  Biso   1.000  O
  O32      1.0000 0.43173  0.83606  0.96619  Biso   1.000  O
