data_image0
_cell_length_a       11.224
_cell_length_b       13.636
_cell_length_c       22.374
_cell_angle_alpha    101.01
_cell_angle_beta     98.75
_cell_angle_gamma    91.38

_symmetry_space_group_name_H-M    "P 1"
_symmetry_int_tables_number       1

loop_
  _symmetry_equiv_pos_as_xyz
  'x, y, z'

loop_
  _atom_site_label
  _atom_site_occupancy
  _atom_site_fract_x
  _atom_site_fract_y
  _atom_site_fract_z
  _atom_site_thermal_displace_type
  _atom_site_B_iso_or_equiv
  _atom_site_type_symbol
  C1       1.0000 0.51154  0.64070  0.49128  Biso   1.000  C
  C2       1.0000 0.47619  0.66759  0.54810  Biso   1.000  C
  H1       1.0000 0.46005  0.61436  0.45359  Biso   1.000  H
  C3       1.0000 0.63853  0.65938  0.49898  Biso   1.000  C
  C4       1.0000 0.35371  0.65810  0.56821  Biso   1.000  C
  N1       1.0000 0.57839  0.70366  0.59049  Biso   1.000  N
  C5       1.0000 0.67844  0.69842  0.56102  Biso   1.000  C
  H2       1.0000 0.68722  0.64737  0.46738  Biso   1.000  H
  C6       1.0000 0.26283  0.60467  0.51282  Biso   1.000  C
  C7       1.0000 0.30843  0.76101  0.59229  Biso   1.000  C
  C8       1.0000 0.36279  0.59590  0.61941  Biso   1.000  C
  H3       1.0000 0.57950  0.72659  0.63011  Biso   1.000  H
  C9       1.0000 0.80481  0.72851  0.59639  Biso   1.000  C
  H4       1.0000 0.25704  0.64355  0.47998  Biso   1.000  H
  H5       1.0000 0.18357  0.59818  0.52532  Biso   1.000  H
  H6       1.0000 0.28985  0.53797  0.49760  Biso   1.000  H
  C10      1.0000 0.20744  0.80821  0.57172  Biso   1.000  C
  N2       1.0000 0.36447  0.82136  0.64639  Biso   1.000  N
  H7       1.0000 0.38987  0.52950  0.60377  Biso   1.000  H
  H8       1.0000 0.28340  0.58908  0.63182  Biso   1.000  H
  H9       1.0000 0.42071  0.62978  0.65497  Biso   1.000  H
  C11      1.0000 0.82301  0.84199  0.61521  Biso   1.000  C
  C12      1.0000 0.89786  0.68886  0.55451  Biso   1.000  C
  C13      1.0000 0.82596  0.68038  0.65377  Biso   1.000  C
  C14      1.0000 0.20103  0.89758  0.61540  Biso   1.000  C
  H10      1.0000 0.15200  0.78497  0.53482  Biso   1.000  H
  C15      1.0000 0.29895  0.90436  0.66120  Biso   1.000  C
  H11      1.0000 0.43240  0.80878  0.66830  Biso   1.000  H
  C16      1.0000 0.89023  0.90880  0.59450  Biso   1.000  C
  N3       1.0000 0.77098  0.89546  0.66295  Biso   1.000  N
  H12      1.0000 0.88641  0.61598  0.54201  Biso   1.000  H
  H13      1.0000 0.97963  0.70672  0.57711  Biso   1.000  H
  H14      1.0000 0.88651  0.71899  0.51771  Biso   1.000  H
  C17      1.0000 0.90287  0.72797  0.70742  Biso   1.000  C
  C18      1.0000 0.77259  0.58676  0.65281  Biso   1.000  C
  H15      1.0000 0.13983  0.94429  0.61328  Biso   1.000  H
  C19      1.0000 0.33251  0.97879  0.72149  Biso   1.000  C
  H16      1.0000 0.93528  0.89384  0.56148  Biso   1.000  H
  C20      1.0000 0.88116  0.00536  0.63108  Biso   1.000  C
  C21      1.0000 0.80784  0.99540  0.67292  Biso   1.000  C
  H17      1.0000 0.72199  0.86960  0.68371  Biso   1.000  H
  H18      1.0000 0.94393  0.79029  0.70871  Biso   1.000  H
  C22      1.0000 0.91808  0.68300  0.75838  Biso   1.000  C
  C23      1.0000 0.79293  0.54489  0.70451  Biso   1.000  C
  H19      1.0000 0.72228  0.55186  0.61660  Biso   1.000  H
  C24      1.0000 0.35567  0.92177  0.77398  Biso   1.000  C
  C25      1.0000 0.44283  0.04579  0.71950  Biso   1.000  C
  C26      1.0000 0.22400  0.04564  0.73209  Biso   1.000  C
  H20      1.0000 0.91955  0.06596  0.62698  Biso   1.000  H
  C27      1.0000 0.77482  0.07138  0.72679  Biso   1.000  C
  C28      1.0000 0.86396  0.59085  0.75949  Biso   1.000  C
  N4       1.0000 0.99287  0.73596  0.81599  Biso   1.000  N
  N5       1.0000 0.73380  0.44587  0.70271  Biso   1.000  N
  C29      1.0000 0.43647  0.95978  0.82817  Biso   1.000  C
  C30      1.0000 0.29542  0.82914  0.76992  Biso   1.000  C
  C31      1.0000 0.45183  0.14377  0.71300  Biso   1.000  C
  N6       1.0000 0.55771  0.01065  0.72361  Biso   1.000  N
  H21      1.0000 0.20258  0.07830  0.69681  Biso   1.000  H
  H22      1.0000 0.24651  0.09675  0.76969  Biso   1.000  H
  H23      1.0000 0.15468  0.00409  0.73638  Biso   1.000  H
  C32      1.0000 0.64040  0.08616  0.72047  Biso   1.000  C
  C33      1.0000 0.81777  0.03524  0.78818  Biso   1.000  C
  C34      1.0000 0.84116  0.17228  0.72988  Biso   1.000  C
  H24      1.0000 0.87470  0.56166  0.79510  Biso   1.000  H
  O1       1.0000 0.00904  0.69578  0.85968  Biso   1.000  O
  O2       1.0000 0.03682  0.82066  0.81613  Biso   1.000  O
  O3       1.0000 0.67157  0.40417  0.65460  Biso   1.000  O
  O4       1.0000 0.74954  0.41086  0.74948  Biso   1.000  O
  C35      1.0000 0.45422  0.90464  0.87439  Biso   1.000  C
  H25      1.0000 0.47860  0.02286  0.83320  Biso   1.000  H
  C36      1.0000 0.31918  0.77587  0.81669  Biso   1.000  C
  H26      1.0000 0.23757  0.80257  0.73449  Biso   1.000  H
  C37      1.0000 0.57534  0.16895  0.71327  Biso   1.000  C
  H27      1.0000 0.38714  0.18698  0.70908  Biso   1.000  H
  H28      1.0000 0.57566  0.94956  0.72757  Biso   1.000  H
  H29      1.0000 0.77441  0.97163  0.78767  Biso   1.000  H
  H30      1.0000 0.80096  0.08550  0.82310  Biso   1.000  H
  H31      1.0000 0.90461  0.02585  0.79252  Biso   1.000  H
  H32      1.0000 0.81742  0.19524  0.69109  Biso   1.000  H
  H33      1.0000 0.92856  0.16455  0.73648  Biso   1.000  H
  H34      1.0000 0.82004  0.22146  0.76420  Biso   1.000  H
  C38      1.0000 0.39796  0.81054  0.87010  Biso   1.000  C
  N7       1.0000 0.54233  0.94518  0.93011  Biso   1.000  N
  N8       1.0000 0.25991  0.67293  0.80539  Biso   1.000  N
  H35      1.0000 0.60776  0.23191  0.70922  Biso   1.000  H
  H36      1.0000 0.41318  0.77316  0.90188  Biso   1.000  H
  O5       1.0000 0.54866  0.90037  0.97351  Biso   1.000  O
  O6       1.0000 0.60401  0.02014  0.93029  Biso   1.000  O
  O7       1.0000 0.19770  0.64017  0.75589  Biso   1.000  O
  O8       1.0000 0.28217  0.62679  0.84741  Biso   1.000  O
  C39      1.0000 0.48837  0.35930  0.50871  Biso   1.000  C
  C40      1.0000 0.36138  0.34056  0.50101  Biso   1.000  C
  C41      1.0000 0.52381  0.33242  0.45189  Biso   1.000  C
  H37      1.0000 0.53986  0.38558  0.54640  Biso   1.000  H
  C42      1.0000 0.32148  0.30160  0.43902  Biso   1.000  C
  H38      1.0000 0.31268  0.35256  0.53260  Biso   1.000  H
  N9       1.0000 0.42160  0.29628  0.40950  Biso   1.000  N
  C43      1.0000 0.64628  0.34191  0.43177  Biso   1.000  C
  C44      1.0000 0.19519  0.27150  0.40359  Biso   1.000  C
  H39      1.0000 0.42050  0.27335  0.36988  Biso   1.000  H
  C45      1.0000 0.69148  0.23900  0.40770  Biso   1.000  C
  C46      1.0000 0.63721  0.40411  0.38058  Biso   1.000  C
  C47      1.0000 0.73709  0.39528  0.48722  Biso   1.000  C
  C48      1.0000 0.17394  0.31963  0.34621  Biso   1.000  C
  C49      1.0000 0.17700  0.15796  0.38482  Biso   1.000  C
  C50      1.0000 0.10205  0.31107  0.44547  Biso   1.000  C
  C51      1.0000 0.79248  0.19182  0.42832  Biso   1.000  C
  N10      1.0000 0.63545  0.17859  0.35364  Biso   1.000  N
  H40      1.0000 0.61004  0.47051  0.39621  Biso   1.000  H
  H41      1.0000 0.71661  0.41087  0.36821  Biso   1.000  H
  H42      1.0000 0.57919  0.37023  0.34501  Biso   1.000  H
  H43      1.0000 0.74287  0.35639  0.52001  Biso   1.000  H
  H44      1.0000 0.81635  0.40177  0.47472  Biso   1.000  H
  H45      1.0000 0.71005  0.46197  0.50239  Biso   1.000  H
  C52      1.0000 0.09705  0.27198  0.29262  Biso   1.000  C
  C53      1.0000 0.22740  0.41317  0.34718  Biso   1.000  C
  C54      1.0000 0.10968  0.09121  0.40548  Biso   1.000  C
  N11      1.0000 0.22901  0.10447  0.33703  Biso   1.000  N
  H46      1.0000 0.11358  0.38395  0.45797  Biso   1.000  H
  H47      1.0000 0.02029  0.29330  0.42292  Biso   1.000  H
  H48      1.0000 0.11349  0.28095  0.48228  Biso   1.000  H
  C55      1.0000 0.79888  0.10236  0.38459  Biso   1.000  C
  H49      1.0000 0.84801  0.21498  0.46522  Biso   1.000  H
  C56      1.0000 0.70095  0.09557  0.33879  Biso   1.000  C
  H50      1.0000 0.56760  0.19116  0.33168  Biso   1.000  H
  H51      1.0000 0.05598  0.20972  0.29128  Biso   1.000  H
  C57      1.0000 0.08192  0.31701  0.24160  Biso   1.000  C
  C58      1.0000 0.20698  0.45512  0.29548  Biso   1.000  C
  H52      1.0000 0.27771  0.44807  0.38339  Biso   1.000  H
  H53      1.0000 0.06471  0.10609  0.43851  Biso   1.000  H
  C59      1.0000 0.11884  0.99457  0.36891  Biso   1.000  C
  C60      1.0000 0.19208  0.00462  0.32712  Biso   1.000  C
  H54      1.0000 0.27800  0.13041  0.31628  Biso   1.000  H
  H55      1.0000 0.86008  0.05572  0.38671  Biso   1.000  H
  C61      1.0000 0.66740  0.02122  0.27850  Biso   1.000  C
  C62      1.0000 0.13595  0.40908  0.24050  Biso   1.000  C
  N12      1.0000 0.00712  0.26397  0.18399  Biso   1.000  N
  N13      1.0000 0.26621  0.55408  0.29732  Biso   1.000  N
  H56      1.0000 0.08044  0.93397  0.37301  Biso   1.000  H
  C63      1.0000 0.22509  0.92856  0.27320  Biso   1.000  C
  C64      1.0000 0.55708  0.95422  0.28049  Biso   1.000  C
  C65      1.0000 0.64433  0.07817  0.22601  Biso   1.000  C
  C66      1.0000 0.77591  0.95430  0.26789  Biso   1.000  C
  H57      1.0000 0.12529  0.43827  0.20489  Biso   1.000  H
  O9       1.0000 0.99087  0.30423  0.14031  Biso   1.000  O
  O10      1.0000 0.96308  0.17928  0.18385  Biso   1.000  O
  O11      1.0000 0.32833  0.59577  0.34538  Biso   1.000  O
  O12      1.0000 0.25036  0.58907  0.25050  Biso   1.000  O
  C67      1.0000 0.18223  0.96469  0.21181  Biso   1.000  C
  C68      1.0000 0.15883  0.82766  0.27011  Biso   1.000  C
  C69      1.0000 0.35950  0.91378  0.27952  Biso   1.000  C
  N14      1.0000 0.44219  0.98929  0.27638  Biso   1.000  N
  C70      1.0000 0.54807  0.85616  0.28699  Biso   1.000  C
  C71      1.0000 0.56352  0.04023  0.17182  Biso   1.000  C
  C72      1.0000 0.70450  0.17081  0.23012  Biso   1.000  C
  H58      1.0000 0.79742  0.92171  0.30318  Biso   1.000  H
  H59      1.0000 0.75339  0.90319  0.23030  Biso   1.000  H
  H60      1.0000 0.84532  0.99592  0.26360  Biso   1.000  H
  H61      1.0000 0.22549  0.02831  0.21231  Biso   1.000  H
  H62      1.0000 0.19904  0.91451  0.17689  Biso   1.000  H
  H63      1.0000 0.09531  0.97410  0.20752  Biso   1.000  H
  H64      1.0000 0.18249  0.80470  0.30890  Biso   1.000  H
  H65      1.0000 0.07144  0.83538  0.26351  Biso   1.000  H
  H66      1.0000 0.17986  0.77847  0.23579  Biso   1.000  H
  C73      1.0000 0.42457  0.83099  0.28671  Biso   1.000  C
  H67      1.0000 0.42433  0.05037  0.27241  Biso   1.000  H
  H68      1.0000 0.61277  0.81296  0.29091  Biso   1.000  H
  C74      1.0000 0.54569  0.09530  0.12560  Biso   1.000  C
  H69      1.0000 0.52131  0.97708  0.16679  Biso   1.000  H
  C75      1.0000 0.68081  0.22407  0.18330  Biso   1.000  C
  H70      1.0000 0.76242  0.19737  0.26549  Biso   1.000  H
  H71      1.0000 0.39226  0.76811  0.29082  Biso   1.000  H
  C76      1.0000 0.60195  0.18939  0.12989  Biso   1.000  C
  N15      1.0000 0.45758  0.05483  0.06988  Biso   1.000  N
  N16      1.0000 0.74000  0.32700  0.19460  Biso   1.000  N
  H72      1.0000 0.58681  0.22677  0.09811  Biso   1.000  H
  O13      1.0000 0.45126  0.09958  0.02652  Biso   1.000  O
  O14      1.0000 0.39590  0.97980  0.06969  Biso   1.000  O
  O15      1.0000 0.80229  0.35976  0.24409  Biso   1.000  O
  O16      1.0000 0.71774  0.37321  0.15258  Biso   1.000  O
