data_image0
_cell_length_a       12.601
_cell_length_b       12.6
_cell_length_c       9.658
_cell_angle_alpha    90
_cell_angle_beta     90
_cell_angle_gamma    120

_symmetry_space_group_name_H-M    "P 1"
_symmetry_int_tables_number       1

loop_
  _symmetry_equiv_pos_as_xyz
  'x, y, z'

loop_
  _atom_site_label
  _atom_site_occupancy
  _atom_site_fract_x
  _atom_site_fract_y
  _atom_site_fract_z
  _atom_site_thermal_displace_type
  _atom_site_B_iso_or_equiv
  _atom_site_type_symbol
  C1       1.0000 0.41889  0.53373  0.31238  Biso   1.000  C
  S1       1.0000 0.45393  0.56159  0.49368  Biso   1.000  S
  H1       1.0000 0.34048  0.45785  0.30058  Biso   1.000  H
  H2       1.0000 0.48372  0.52594  0.26569  Biso   1.000  H
  H3       1.0000 0.41344  0.60219  0.27211  Biso   1.000  H
  C2       1.0000 0.58931  0.70712  0.49420  Biso   1.000  C
  C3       1.0000 0.61520  0.77493  0.61824  Biso   1.000  C
  C4       1.0000 0.66916  0.75477  0.38279  Biso   1.000  C
  N1       1.0000 0.53650  0.72260  0.73079  Biso   1.000  N
  C5       1.0000 0.72050  0.88985  0.62518  Biso   1.000  C
  C6       1.0000 0.77467  0.86914  0.39221  Biso   1.000  C
  H4       1.0000 0.65176  0.70886  0.29944  Biso   1.000  H
  C7       1.0000 0.55351  0.78996  0.85908  Biso   1.000  C
  H5       1.0000 0.46098  0.67504  0.70801  Biso   1.000  H
  H6       1.0000 0.73850  0.93696  0.70760  Biso   1.000  H
  C8       1.0000 0.79924  0.93622  0.51284  Biso   1.000  C
  H7       1.0000 0.82945  0.90094  0.31601  Biso   1.000  H
  C9       1.0000 0.45913  0.70437  0.96324  Biso   1.000  C
  H8       1.0000 0.54299  0.86163  0.84210  Biso   1.000  H
  H9       1.0000 0.63717  0.81984  0.89542  Biso   1.000  H
  H10      1.0000 0.87085  0.01485  0.51905  Biso   1.000  H
  N2       1.0000 0.33325  0.66670  0.91934  Biso   1.000  N
  H11      1.0000 0.46704  0.63050  0.97484  Biso   1.000  H
  H12      1.0000 0.47530  0.74606  0.05415  Biso   1.000  H
  C10      1.0000 0.24518  0.54088  0.96324  Biso   1.000  C
  C11      1.0000 0.29574  0.75486  0.96324  Biso   1.000  C
  C12      1.0000 0.23640  0.44648  0.85908  Biso   1.000  C
  H13      1.0000 0.16342  0.53290  0.97484  Biso   1.000  H
  H14      1.0000 0.27069  0.52475  0.05415  Biso   1.000  H
  H15      1.0000 0.36947  0.83661  0.97484  Biso   1.000  H
  C13      1.0000 0.21007  0.76366  0.85908  Biso   1.000  C
  H16      1.0000 0.25399  0.72929  0.05415  Biso   1.000  H
  N3       1.0000 0.18612  0.46353  0.73079  Biso   1.000  N
  H17      1.0000 0.31857  0.45702  0.84210  Biso   1.000  H
  H18      1.0000 0.18258  0.36281  0.89542  Biso   1.000  H
  N4       1.0000 0.27744  0.81397  0.73079  Biso   1.000  N
  H19      1.0000 0.13842  0.68146  0.84210  Biso   1.000  H
  H20      1.0000 0.18022  0.81745  0.89542  Biso   1.000  H
  C14      1.0000 0.15969  0.38481  0.61824  Biso   1.000  C
  H21      1.0000 0.21403  0.53904  0.70801  Biso   1.000  H
  H22      1.0000 0.32497  0.78602  0.70801  Biso   1.000  H
  C15      1.0000 0.22509  0.84037  0.61824  Biso   1.000  C
  C16      1.0000 0.16927  0.27951  0.62518  Biso   1.000  C
  C17      1.0000 0.11782  0.41074  0.49420  Biso   1.000  C
  C18      1.0000 0.11020  0.83074  0.62518  Biso   1.000  C
  C19      1.0000 0.29293  0.88225  0.49420  Biso   1.000  C
  C20      1.0000 0.13693  0.20070  0.51284  Biso   1.000  C
  H23      1.0000 0.19838  0.26155  0.70760  Biso   1.000  H
  C21      1.0000 0.08549  0.33083  0.38279  Biso   1.000  C
  S2       1.0000 0.10764  0.54610  0.49368  Biso   1.000  S
  H24      1.0000 0.06310  0.80160  0.70760  Biso   1.000  H
  C22      1.0000 0.06376  0.86309  0.51284  Biso   1.000  C
  S3       1.0000 0.43848  0.89242  0.49368  Biso   1.000  S
  C23      1.0000 0.24525  0.91450  0.38279  Biso   1.000  C
  C24      1.0000 0.09441  0.22535  0.39221  Biso   1.000  C
  H25      1.0000 0.14392  0.12912  0.51905  Biso   1.000  H
  H26      1.0000 0.05697  0.34824  0.29944  Biso   1.000  H
  C25      1.0000 0.11475  0.58111  0.31238  Biso   1.000  C
  C26      1.0000 0.13089  0.90562  0.39221  Biso   1.000  C
  H27      1.0000 0.98521  0.85613  0.51905  Biso   1.000  H
  C27      1.0000 0.46633  0.88527  0.31238  Biso   1.000  C
  H28      1.0000 0.29116  0.94301  0.29944  Biso   1.000  H
  H29      1.0000 0.07138  0.17055  0.31601  Biso   1.000  H
  H30      1.0000 0.11731  0.65955  0.30058  Biso   1.000  H
  H31      1.0000 0.04220  0.51632  0.26569  Biso   1.000  H
  H32      1.0000 0.18872  0.58651  0.27211  Biso   1.000  H
  H33      1.0000 0.09906  0.92862  0.31601  Biso   1.000  H
  H34      1.0000 0.54218  0.88270  0.30058  Biso   1.000  H
  H35      1.0000 0.47413  0.95785  0.26569  Biso   1.000  H
  H36      1.0000 0.39777  0.81131  0.27211  Biso   1.000  H
  N5       1.0000 0.72259  0.53657  0.23079  Biso   1.000  N
  C28      1.0000 0.78987  0.55352  0.35908  Biso   1.000  C
  H37      1.0000 0.67500  0.46106  0.20801  Biso   1.000  H
  C29      1.0000 0.77484  0.61520  0.11835  Biso   1.000  C
  C30      1.0000 0.70427  0.45913  0.46324  Biso   1.000  C
  H38      1.0000 0.86158  0.54298  0.34210  Biso   1.000  H
  H39      1.0000 0.81972  0.63719  0.39542  Biso   1.000  H
  C31      1.0000 0.88978  0.72050  0.12518  Biso   1.000  C
  C32      1.0000 0.70708  0.58936  0.99420  Biso   1.000  C
  N6       1.0000 0.66668  0.33331  0.41934  Biso   1.000  N
  H40      1.0000 0.63049  0.46710  0.47484  Biso   1.000  H
  H41      1.0000 0.74595  0.47535  0.55415  Biso   1.000  H
  H42      1.0000 0.93690  0.73855  0.20760  Biso   1.000  H
  C33      1.0000 0.93617  0.79931  0.01294  Biso   1.000  C
  S4       1.0000 0.56151  0.45391  0.99368  Biso   1.000  S
  C34      1.0000 0.75465  0.66927  0.88279  Biso   1.000  C
  C35      1.0000 0.54091  0.24524  0.46324  Biso   1.000  C
  C36      1.0000 0.75479  0.29573  0.46324  Biso   1.000  C
  C37      1.0000 0.86905  0.77475  0.89221  Biso   1.000  C
  H43      1.0000 0.01485  0.87097  0.01905  Biso   1.000  H
  C38      1.0000 0.53369  0.41890  0.81238  Biso   1.000  C
  H44      1.0000 0.70881  0.65186  0.79954  Biso   1.000  H
  C39      1.0000 0.44652  0.23644  0.35908  Biso   1.000  C
  H45      1.0000 0.53285  0.16340  0.47484  Biso   1.000  H
  H46      1.0000 0.52468  0.27071  0.55415  Biso   1.000  H
  H47      1.0000 0.83659  0.36950  0.47484  Biso   1.000  H
  H48      1.0000 0.72926  0.25403  0.55415  Biso   1.000  H
  C40      1.0000 0.76358  0.21014  0.35908  Biso   1.000  C
  H49      1.0000 0.90089  0.82955  0.81601  Biso   1.000  H
  H50      1.0000 0.45778  0.34055  0.80058  Biso   1.000  H
  H51      1.0000 0.52585  0.48369  0.76569  Biso   1.000  H
  H52      1.0000 0.60217  0.41349  0.77211  Biso   1.000  H
  N7       1.0000 0.46350  0.18613  0.23079  Biso   1.000  N
  H53      1.0000 0.45698  0.31864  0.34210  Biso   1.000  H
  H54      1.0000 0.36280  0.18264  0.39542  Biso   1.000  H
  N8       1.0000 0.81388  0.27740  0.23079  Biso   1.000  N
  H55      1.0000 0.68136  0.13838  0.34210  Biso   1.000  H
  H56      1.0000 0.81732  0.18017  0.39542  Biso   1.000  H
  C41      1.0000 0.38484  0.15973  0.11835  Biso   1.000  C
  H57      1.0000 0.53893  0.21399  0.20801  Biso   1.000  H
  H58      1.0000 0.78596  0.32506  0.20801  Biso   1.000  H
  C42      1.0000 0.84025  0.22507  0.11835  Biso   1.000  C
  C43      1.0000 0.27945  0.16926  0.12518  Biso   1.000  C
  C44      1.0000 0.41067  0.11776  0.99420  Biso   1.000  C
  C45      1.0000 0.83069  0.11025  0.12518  Biso   1.000  C
  C46      1.0000 0.88217  0.29289  0.99420  Biso   1.000  C
  H59      1.0000 0.26148  0.19841  0.20760  Biso   1.000  H
  C47      1.0000 0.20066  0.13691  0.01294  Biso   1.000  C
  S5       1.0000 0.54610  0.10768  0.99368  Biso   1.000  S
  C48      1.0000 0.33082  0.08550  0.88279  Biso   1.000  C
  H60      1.0000 0.80159  0.06314  0.20760  Biso   1.000  H
  C49      1.0000 0.86309  0.06378  0.01294  Biso   1.000  C
  S6       1.0000 0.89236  0.43851  0.99368  Biso   1.000  S
  C50      1.0000 0.91450  0.24533  0.88279  Biso   1.000  C
  H61      1.0000 0.12907  0.14388  0.01905  Biso   1.000  H
  C51      1.0000 0.22527  0.09439  0.89221  Biso   1.000  C
  C52      1.0000 0.58110  0.11483  0.81238  Biso   1.000  C
  H62      1.0000 0.34816  0.05700  0.79954  Biso   1.000  H
  H63      1.0000 0.85608  0.98515  0.01905  Biso   1.000  H
  C53      1.0000 0.90552  0.13087  0.89221  Biso   1.000  C
  C54      1.0000 0.88513  0.46628  0.81238  Biso   1.000  C
  H64      1.0000 0.94301  0.29124  0.79954  Biso   1.000  H
  H65      1.0000 0.17052  0.07139  0.81601  Biso   1.000  H
  H66      1.0000 0.65947  0.11730  0.80058  Biso   1.000  H
  H67      1.0000 0.51632  0.04225  0.76569  Biso   1.000  H
  H68      1.0000 0.58644  0.18869  0.77211  Biso   1.000  H
  H69      1.0000 0.92851  0.09907  0.81601  Biso   1.000  H
  H70      1.0000 0.88264  0.54225  0.80058  Biso   1.000  H
  H71      1.0000 0.95780  0.47416  0.76569  Biso   1.000  H
  H72      1.0000 0.81131  0.39782  0.77211  Biso   1.000  H
