data_image0
_cell_length_a       10.486
_cell_length_b       14.166
_cell_length_c       21.123
_cell_angle_alpha    108.58
_cell_angle_beta     95.29
_cell_angle_gamma    94.92

_symmetry_space_group_name_H-M    "P 1"
_symmetry_int_tables_number       1

loop_
  _symmetry_equiv_pos_as_xyz
  'x, y, z'

loop_
  _atom_site_label
  _atom_site_occupancy
  _atom_site_fract_x
  _atom_site_fract_y
  _atom_site_fract_z
  _atom_site_thermal_displace_type
  _atom_site_B_iso_or_equiv
  _atom_site_type_symbol
  C1       1.0000 0.59912  0.63960  0.45562  Biso   1.000  C
  C2       1.0000 0.52345  0.64928  0.39389  Biso   1.000  C
  C3       1.0000 0.64683  0.73892  0.51090  Biso   1.000  C
  H1       1.0000 0.54542  0.60002  0.47460  Biso   1.000  H
  H2       1.0000 0.67362  0.60692  0.44273  Biso   1.000  H
  C4       1.0000 0.46990  0.54774  0.34142  Biso   1.000  C
  H3       1.0000 0.57996  0.68520  0.37380  Biso   1.000  H
  H4       1.0000 0.45353  0.68712  0.40819  Biso   1.000  H
  C5       1.0000 0.74685  0.72780  0.56291  Biso   1.000  C
  H5       1.0000 0.68423  0.78574  0.49151  Biso   1.000  H
  H6       1.0000 0.57543  0.76509  0.53320  Biso   1.000  H
  C6       1.0000 0.41791  0.55564  0.27375  Biso   1.000  C
  H7       1.0000 0.40172  0.51877  0.35950  Biso   1.000  H
  H8       1.0000 0.53815  0.50604  0.33543  Biso   1.000  H
  C7       1.0000 0.87546  0.75701  0.56296  Biso   1.000  C
  C8       1.0000 0.71451  0.68473  0.61074  Biso   1.000  C
  C9       1.0000 0.34460  0.46023  0.22355  Biso   1.000  C
  C10      1.0000 0.52044  0.59565  0.23861  Biso   1.000  C
  H9       1.0000 0.35595  0.60262  0.28518  Biso   1.000  H
  C11      1.0000 0.97011  0.74310  0.60782  Biso   1.000  C
  H10      1.0000 0.90185  0.78843  0.53139  Biso   1.000  H
  C12      1.0000 0.80855  0.67149  0.65656  Biso   1.000  C
  H11      1.0000 0.62611  0.66254  0.61230  Biso   1.000  H
  C13      1.0000 0.38067  0.36438  0.21620  Biso   1.000  C
  C14      1.0000 0.24197  0.46651  0.17945  Biso   1.000  C
  C15      1.0000 0.64509  0.56939  0.24113  Biso   1.000  C
  C16      1.0000 0.49060  0.65563  0.19969  Biso   1.000  C
  C17      1.0000 0.93627  0.69958  0.65460  Biso   1.000  C
  H12      1.0000 0.05888  0.76484  0.60651  Biso   1.000  H
  H13      1.0000 0.78299  0.64304  0.68969  Biso   1.000  H
  C18      1.0000 0.31555  0.27712  0.16802  Biso   1.000  C
  H14      1.0000 0.45298  0.36020  0.24611  Biso   1.000  H
  C19      1.0000 0.17465  0.38116  0.13111  Biso   1.000  C
  O1       1.0000 0.19961  0.55905  0.18378  Biso   1.000  O
  C20      1.0000 0.74169  0.60370  0.20996  Biso   1.000  C
  H15      1.0000 0.66775  0.52480  0.26519  Biso   1.000  H
  O2       1.0000 0.36899  0.68753  0.19511  Biso   1.000  O
  C21      1.0000 0.58448  0.69189  0.16802  Biso   1.000  C
  H16      1.0000 0.00265  0.68871  0.68501  Biso   1.000  H
  C22      1.0000 0.35813  0.17333  0.15749  Biso   1.000  C
  C23      1.0000 0.21158  0.28831  0.12598  Biso   1.000  C
  H17      1.0000 0.10382  0.38801  0.10130  Biso   1.000  H
  C24      1.0000 0.26835  0.61719  0.15150  Biso   1.000  C
  C25      1.0000 0.70786  0.66657  0.17346  Biso   1.000  C
  C26      1.0000 0.87528  0.56918  0.21137  Biso   1.000  C
  H18      1.0000 0.56352  0.73450  0.14209  Biso   1.000  H
  C27      1.0000 0.44709  0.15376  0.10286  Biso   1.000  C
  C28      1.0000 0.41525  0.15847  0.22224  Biso   1.000  C
  H19      1.0000 0.28407  0.12347  0.14108  Biso   1.000  H
  O3       1.0000 0.13779  0.20477  0.07860  Biso   1.000  O
  H20      1.0000 0.30678  0.57350  0.11560  Biso   1.000  H
  H21      1.0000 0.21021  0.65376  0.13348  Biso   1.000  H
  O4       1.0000 0.80057  0.71085  0.14486  Biso   1.000  O
  C29      1.0000 0.87319  0.48007  0.14843  Biso   1.000  C
  C30      1.0000 0.92455  0.55229  0.27718  Biso   1.000  C
  H22      1.0000 0.93567  0.62306  0.20971  Biso   1.000  H
  C31      1.0000 0.58128  0.17536  0.11772  Biso   1.000  C
  C32      1.0000 0.39614  0.11839  0.03494  Biso   1.000  C
  C33      1.0000 0.44267  0.05084  0.21313  Biso   1.000  C
  H23      1.0000 0.49574  0.20103  0.23881  Biso   1.000  H
  H24      1.0000 0.35685  0.17573  0.25542  Biso   1.000  H
  C34      1.0000 0.18639  0.16535  0.01672  Biso   1.000  C
  C35      1.0000 0.83341  0.65219  0.08202  Biso   1.000  C
  C36      1.0000 0.84598  0.38023  0.14581  Biso   1.000  C
  C37      1.0000 0.89332  0.49530  0.08761  Biso   1.000  C
  C38      1.0000 0.93444  0.64757  0.33724  Biso   1.000  C
  H25      1.0000 0.86608  0.50192  0.28443  Biso   1.000  H
  H26      1.0000 0.00863  0.53049  0.27420  Biso   1.000  H
  C39      1.0000 0.66447  0.16244  0.06843  Biso   1.000  C
  H27      1.0000 0.61558  0.20050  0.16449  Biso   1.000  H
  O5       1.0000 0.26452  0.08868  0.01541  Biso   1.000  O
  C40      1.0000 0.47564  0.10666  0.98459  Biso   1.000  C
  C41      1.0000 0.52319  0.04434  0.27486  Biso   1.000  C
  H28      1.0000 0.36237  0.00859  0.20558  Biso   1.000  H
  H29      1.0000 0.48877  0.02763  0.17492  Biso   1.000  H
  H30      1.0000 0.23565  0.21952  0.00841  Biso   1.000  H
  H31      1.0000 0.11380  0.13885  0.98233  Biso   1.000  H
  O6       1.0000 0.93170  0.59235  0.08786  Biso   1.000  O
  H32      1.0000 0.75833  0.60830  0.05639  Biso   1.000  H
  H33      1.0000 0.86272  0.69527  0.05790  Biso   1.000  H
  C42      1.0000 0.83894  0.29873  0.08685  Biso   1.000  C
  H34      1.0000 0.83140  0.36529  0.18599  Biso   1.000  H
  C43      1.0000 0.88431  0.41674  0.02799  Biso   1.000  C
  C44      1.0000 0.99791  0.64078  0.40285  Biso   1.000  C
  H35      1.0000 0.98419  0.70073  0.32803  Biso   1.000  H
  H36      1.0000 0.84928  0.66497  0.34439  Biso   1.000  H
  C45      1.0000 0.80973  0.19150  0.08534  Biso   1.000  C
  C46      1.0000 0.60817  0.12903  0.00131  Biso   1.000  C
  H37      1.0000 0.43829  0.08249  0.93822  Biso   1.000  H
  H38      1.0000 0.60523  0.08400  0.28161  Biso   1.000  H
  H39      1.0000 0.47913  0.06945  0.31363  Biso   1.000  H
  C47      1.0000 0.55087  0.93854  0.27063  Biso   1.000  C
  C48      1.0000 0.85636  0.31929  0.02764  Biso   1.000  C
  H40      1.0000 0.89690  0.42934  0.98681  Biso   1.000  H
  H41      1.0000 0.94874  0.59000  0.41473  Biso   1.000  H
  C49      1.0000 0.13504  0.61593  0.40245  Biso   1.000  C
  H42      1.0000 0.00124  0.70428  0.43769  Biso   1.000  H
  C50      1.0000 0.87729  0.17966  0.14788  Biso   1.000  C
  H43      1.0000 0.84692  0.14799  0.04879  Biso   1.000  H
  C51      1.0000 0.85894  0.16447  0.15100  Biso   1.000  C
  O7       1.0000 0.68380  0.11166  0.94900  Biso   1.000  O
  C52      1.0000 0.63905  0.93823  0.33125  Biso   1.000  C
  H44      1.0000 0.47072  0.89846  0.26821  Biso   1.000  H
  H45      1.0000 0.59042  0.91001  0.23080  Biso   1.000  H
  O8       1.0000 0.85392  0.24217  0.96662  Biso   1.000  O
  C53      1.0000 0.20162  0.63971  0.47289  Biso   1.000  C
  H46      1.0000 0.13354  0.54541  0.37928  Biso   1.000  H
  H47      1.0000 0.18184  0.65327  0.37949  Biso   1.000  H
  C54      1.0000 0.89567  0.07071  0.13766  Biso   1.000  C
  H48      1.0000 0.82118  0.20643  0.18901  Biso   1.000  H
  H49      1.0000 0.97016  0.22482  0.16122  Biso   1.000  H
  H50      1.0000 0.96130  0.18896  0.16409  Biso   1.000  H
  H51      1.0000 0.81118  0.20610  0.19239  Biso   1.000  H
  C55      1.0000 0.83522  0.05369  0.14269  Biso   1.000  C
  C56      1.0000 0.72996  0.19618  0.93223  Biso   1.000  C
  C57      1.0000 0.59459  0.95974  0.39374  Biso   1.000  C
  C58      1.0000 0.76564  0.92278  0.32778  Biso   1.000  C
  C59      1.0000 0.25872  0.73622  0.50758  Biso   1.000  C
  C60      1.0000 0.19887  0.57033  0.50652  Biso   1.000  C
  C61      1.0000 0.97474  0.05830  0.19888  Biso   1.000  C
  H52      1.0000 0.94429  0.04228  0.09370  Biso   1.000  H
  H53      1.0000 0.80239  0.02682  0.12849  Biso   1.000  H
  C62      1.0000 0.90528  0.02163  0.19793  Biso   1.000  C
  H54      1.0000 0.86380  0.01132  0.09501  Biso   1.000  H
  H55      1.0000 0.73292  0.03350  0.14053  Biso   1.000  H
  H56      1.0000 0.66892  0.24383  0.94300  Biso   1.000  H
  H57      1.0000 0.73402  0.17423  0.88460  Biso   1.000  H
  C63      1.0000 0.67727  0.96817  0.45108  Biso   1.000  C
  H58      1.0000 0.50536  0.96879  0.39701  Biso   1.000  H
  C64      1.0000 0.84852  0.93087  0.38543  Biso   1.000  C
  H59      1.0000 0.79646  0.90729  0.28463  Biso   1.000  H
  C65      1.0000 0.31573  0.76239  0.57379  Biso   1.000  C
  H60      1.0000 0.26085  0.78620  0.48583  Biso   1.000  H
  C66      1.0000 0.25553  0.59739  0.57338  Biso   1.000  C
  H61      1.0000 0.15785  0.50319  0.48361  Biso   1.000  H
  H62      1.0000 0.91953  0.07642  0.24102  Biso   1.000  H
  C67      1.0000 0.00987  0.95364  0.18529  Biso   1.000  C
  H63      1.0000 0.06202  0.11053  0.21263  Biso   1.000  H
  C68      1.0000 0.05026  0.01541  0.19219  Biso   1.000  C
  H64      1.0000 0.89482  0.07441  0.24631  Biso   1.000  H
  H65      1.0000 0.85969  0.94895  0.19551  Biso   1.000  H
  C69      1.0000 0.80473  0.95479  0.44690  Biso   1.000  C
  H66      1.0000 0.64541  0.98329  0.49403  Biso   1.000  H
  H67      1.0000 0.93628  0.91777  0.38140  Biso   1.000  H
  C70      1.0000 0.31360  0.69244  0.60596  Biso   1.000  C
  H68      1.0000 0.35413  0.83029  0.59649  Biso   1.000  H
  H69      1.0000 0.25316  0.54828  0.59589  Biso   1.000  H
  H70      1.0000 0.92154  0.90244  0.16988  Biso   1.000  H
  C71      1.0000 0.08656  0.93056  0.24238  Biso   1.000  C
  H71      1.0000 0.06468  0.93706  0.14309  Biso   1.000  H
  C72      1.0000 0.11015  0.97107  0.24248  Biso   1.000  C
  H72      1.0000 0.06227  0.96943  0.14178  Biso   1.000  H
  H73      1.0000 0.09916  0.08969  0.20120  Biso   1.000  H
  H74      1.0000 0.86113  0.96368  0.48729  Biso   1.000  H
  H75      1.0000 0.35362  0.71031  0.65163  Biso   1.000  H
  C73      1.0000 0.10374  0.84424  0.23468  Biso   1.000  C
  C74      1.0000 0.15277  0.01680  0.30220  Biso   1.000  C
  C75      1.0000 0.16860  0.81690  0.28367  Biso   1.000  C
  H76      1.0000 0.07204  0.79285  0.19259  Biso   1.000  H
  C76      1.0000 0.21670  0.98813  0.35210  Biso   1.000  C
  H77      1.0000 0.21669  0.05438  0.28709  Biso   1.000  H
  H78      1.0000 0.09050  0.05940  0.32189  Biso   1.000  H
  C77      1.0000 0.22364  0.88796  0.34258  Biso   1.000  C
  H79      1.0000 0.17607  0.74760  0.27773  Biso   1.000  H
  H80      1.0000 0.25399  0.03820  0.39379  Biso   1.000  H
  H81      1.0000 0.26823  0.86832  0.37722  Biso   1.000  H
  C78      1.0000 0.40073  0.36041  0.54438  Biso   1.000  C
  C79      1.0000 0.35303  0.26112  0.48915  Biso   1.000  C
  C80      1.0000 0.47650  0.35075  0.60616  Biso   1.000  C
  H82      1.0000 0.45443  0.39998  0.52540  Biso   1.000  H
  H83      1.0000 0.32624  0.39311  0.55732  Biso   1.000  H
  C81      1.0000 0.25311  0.27223  0.43714  Biso   1.000  C
  H84      1.0000 0.31564  0.21437  0.50853  Biso   1.000  H
  H85      1.0000 0.42442  0.23492  0.46679  Biso   1.000  H
  C82      1.0000 0.53004  0.45227  0.65858  Biso   1.000  C
  H86      1.0000 0.41999  0.31481  0.62620  Biso   1.000  H
  H87      1.0000 0.54633  0.31296  0.59181  Biso   1.000  H
  C83      1.0000 0.28534  0.31528  0.38925  Biso   1.000  C
  C84      1.0000 0.12450  0.24302  0.43709  Biso   1.000  C
  C85      1.0000 0.58204  0.44437  0.72625  Biso   1.000  C
  H88      1.0000 0.59813  0.48124  0.64050  Biso   1.000  H
  H89      1.0000 0.46172  0.49406  0.66462  Biso   1.000  H
  C86      1.0000 0.19141  0.32854  0.34349  Biso   1.000  C
  H90      1.0000 0.37375  0.33754  0.38769  Biso   1.000  H
  C87      1.0000 0.02975  0.25694  0.39222  Biso   1.000  C
  H91      1.0000 0.09811  0.21165  0.46861  Biso   1.000  H
  C88      1.0000 0.65534  0.53977  0.77644  Biso   1.000  C
  C89      1.0000 0.47950  0.40436  0.76139  Biso   1.000  C
  H92      1.0000 0.64400  0.39746  0.71482  Biso   1.000  H
  C90      1.0000 0.06367  0.30043  0.34540  Biso   1.000  C
  H93      1.0000 0.21697  0.35704  0.31031  Biso   1.000  H
  H94      1.0000 0.94107  0.23523  0.39348  Biso   1.000  H
  C91      1.0000 0.61928  0.63565  0.78385  Biso   1.000  C
  C92      1.0000 0.75798  0.53349  0.82055  Biso   1.000  C
  C93      1.0000 0.35486  0.43061  0.75887  Biso   1.000  C
  C94      1.0000 0.50934  0.34438  0.80031  Biso   1.000  C
  H95      1.0000 0.99730  0.31130  0.31499  Biso   1.000  H
  C95      1.0000 0.68439  0.72289  0.83198  Biso   1.000  C
  H96      1.0000 0.54697  0.63981  0.75389  Biso   1.000  H
  O9       1.0000 0.80036  0.44106  0.81627  Biso   1.000  O
  C96      1.0000 0.82521  0.61887  0.86894  Biso   1.000  C
  C97      1.0000 0.25826  0.39631  0.79004  Biso   1.000  C
  H97      1.0000 0.33219  0.47521  0.73480  Biso   1.000  H
  O10      1.0000 0.63095  0.31247  0.80489  Biso   1.000  O
  C98      1.0000 0.41548  0.30814  0.83203  Biso   1.000  C
  C99      1.0000 0.64183  0.82670  0.84255  Biso   1.000  C
  C100     1.0000 0.78837  0.71170  0.87402  Biso   1.000  C
  C101     1.0000 0.73150  0.38282  0.84849  Biso   1.000  C
  H98      1.0000 0.89612  0.61200  0.89869  Biso   1.000  H
  C102     1.0000 0.29208  0.33344  0.82654  Biso   1.000  C
  C103     1.0000 0.12467  0.43083  0.78863  Biso   1.000  C
  H99      1.0000 0.43634  0.26557  0.85791  Biso   1.000  H
  C104     1.0000 0.55286  0.84625  0.89713  Biso   1.000  C
  C105     1.0000 0.58460  0.84154  0.77775  Biso   1.000  C
  H100     1.0000 0.71587  0.87653  0.85892  Biso   1.000  H
  O11      1.0000 0.86206  0.79523  0.92140  Biso   1.000  O
  H101     1.0000 0.69316  0.42650  0.88439  Biso   1.000  H
  H102     1.0000 0.78974  0.34625  0.86652  Biso   1.000  H
  O12      1.0000 0.19929  0.28918  0.85519  Biso   1.000  O
  C106     1.0000 0.12665  0.51994  0.85157  Biso   1.000  C
  C107     1.0000 0.07541  0.44774  0.72287  Biso   1.000  C
  H103     1.0000 0.06428  0.37694  0.79029  Biso   1.000  H
  C108     1.0000 0.41868  0.82467  0.88233  Biso   1.000  C
  C109     1.0000 0.60381  0.88162  0.96505  Biso   1.000  C
  C110     1.0000 0.55729  0.94920  0.78692  Biso   1.000  C
  H104     1.0000 0.50411  0.79898  0.76119  Biso   1.000  H
  H105     1.0000 0.64301  0.82430  0.74462  Biso   1.000  H
  C111     1.0000 0.81357  0.83473  0.98328  Biso   1.000  C
  C112     1.0000 0.16655  0.34785  0.91803  Biso   1.000  C
  C113     1.0000 0.15388  0.61980  0.85423  Biso   1.000  C
  C114     1.0000 0.10664  0.50481  0.91244  Biso   1.000  C
  C115     1.0000 0.06550  0.35243  0.66275  Biso   1.000  C
  H106     1.0000 0.13388  0.49811  0.71562  Biso   1.000  H
  H107     1.0000 0.99122  0.46951  0.72579  Biso   1.000  H
  C116     1.0000 0.33549  0.83759  0.93162  Biso   1.000  C
  H108     1.0000 0.38437  0.79951  0.83550  Biso   1.000  H
  O13      1.0000 0.73535  0.91142  0.98464  Biso   1.000  O
  C117     1.0000 0.52432  0.89345  0.01545  Biso   1.000  C
  C118     1.0000 0.47676  0.95567  0.72514  Biso   1.000  C
  H109     1.0000 0.63758  0.99142  0.79442  Biso   1.000  H
  H110     1.0000 0.51109  0.97240  0.82513  Biso   1.000  H
  H111     1.0000 0.76421  0.78052  0.99164  Biso   1.000  H
  H112     1.0000 0.88606  0.86119  0.01772  Biso   1.000  H
  O14      1.0000 0.06826  0.40769  0.91219  Biso   1.000  O
  H113     1.0000 0.24152  0.39171  0.94361  Biso   1.000  H
  H114     1.0000 0.13713  0.30474  0.94209  Biso   1.000  H
  C119     1.0000 0.16091  0.70127  0.91314  Biso   1.000  C
  H115     1.0000 0.16855  0.63472  0.81400  Biso   1.000  H
  C120     1.0000 0.11565  0.58334  0.97200  Biso   1.000  C
  C121     1.0000 0.00195  0.35925  0.59720  Biso   1.000  C
  H116     1.0000 0.01577  0.29930  0.67202  Biso   1.000  H
  H117     1.0000 0.15066  0.33504  0.65560  Biso   1.000  H
  C122     1.0000 0.19021  0.80850  0.91465  Biso   1.000  C
  C123     1.0000 0.39177  0.87098  0.99869  Biso   1.000  C
  H118     1.0000 0.56157  0.91758  0.06178  Biso   1.000  H
  H119     1.0000 0.39462  0.91601  0.71839  Biso   1.000  H
  H120     1.0000 0.52083  0.93058  0.68642  Biso   1.000  H
  C124     1.0000 0.44908  0.06147  0.72937  Biso   1.000  C
  C125     1.0000 0.14359  0.68072  0.97236  Biso   1.000  C
  H121     1.0000 0.10304  0.57066  0.01319  Biso   1.000  H
  H122     1.0000 0.05122  0.41003  0.58532  Biso   1.000  H
  C126     1.0000 0.86481  0.38415  0.59755  Biso   1.000  C
  H123     1.0000 0.99860  0.29572  0.56231  Biso   1.000  H
  C127     1.0000 0.12265  0.82034  0.85212  Biso   1.000  C
  H124     1.0000 0.15293  0.85201  0.95121  Biso   1.000  H
  C128     1.0000 0.14090  0.83553  0.84900  Biso   1.000  C
  O15      1.0000 0.31606  0.88837  0.05105  Biso   1.000  O
  C129     1.0000 0.36090  0.06177  0.66875  Biso   1.000  C
  H125     1.0000 0.52914  0.10158  0.73183  Biso   1.000  H
  H126     1.0000 0.40944  0.09007  0.76919  Biso   1.000  H
  O16      1.0000 0.14604  0.75786  0.03343  Biso   1.000  O
  C130     1.0000 0.79823  0.36030  0.52711  Biso   1.000  C
  H127     1.0000 0.86631  0.45460  0.62071  Biso   1.000  H
  H128     1.0000 0.81801  0.34673  0.62051  Biso   1.000  H
  C131     1.0000 0.10429  0.92932  0.86239  Biso   1.000  C
  H129     1.0000 0.17878  0.79360  0.81103  Biso   1.000  H
  H130     1.0000 0.02979  0.77521  0.83883  Biso   1.000  H
  H131     1.0000 0.03865  0.81104  0.83591  Biso   1.000  H
  H132     1.0000 0.18876  0.79391  0.80761  Biso   1.000  H
  C132     1.0000 0.16463  0.94631  0.85731  Biso   1.000  C
  C133     1.0000 0.26990  0.80385  0.06782  Biso   1.000  C
  C134     1.0000 0.40535  0.04027  0.60626  Biso   1.000  C
  C135     1.0000 0.23431  0.07725  0.67227  Biso   1.000  C
  C136     1.0000 0.74113  0.26378  0.49242  Biso   1.000  C
  C137     1.0000 0.80107  0.42967  0.49348  Biso   1.000  C
  C138     1.0000 0.02511  0.94171  0.80112  Biso   1.000  C
  H133     1.0000 0.05565  0.95773  0.90630  Biso   1.000  H
  H134     1.0000 0.19756  0.97319  0.87150  Biso   1.000  H
  C139     1.0000 0.09468  0.97841  0.80212  Biso   1.000  C
  H135     1.0000 0.13616  0.98871  0.90504  Biso   1.000  H
  H136     1.0000 0.26704  0.96653  0.85952  Biso   1.000  H
  H137     1.0000 0.33103  0.75617  0.05699  Biso   1.000  H
  H138     1.0000 0.26592  0.82577  0.11540  Biso   1.000  H
  C140     1.0000 0.32268  0.03183  0.54891  Biso   1.000  C
  H139     1.0000 0.49458  0.03122  0.60299  Biso   1.000  H
  C141     1.0000 0.15134  0.06916  0.61462  Biso   1.000  C
  H140     1.0000 0.20350  0.09275  0.71542  Biso   1.000  H
  C142     1.0000 0.68412  0.23761  0.42621  Biso   1.000  C
  H141     1.0000 0.73910  0.21383  0.51422  Biso   1.000  H
  C143     1.0000 0.74432  0.40261  0.42661  Biso   1.000  C
  H142     1.0000 0.84200  0.49681  0.51639  Biso   1.000  H
  H143     1.0000 0.08033  0.92361  0.75902  Biso   1.000  H
  H144     1.0000 0.93793  0.88950  0.78742  Biso   1.000  H
  C144     1.0000 0.94959  0.98460  0.80781  Biso   1.000  C
  C145     1.0000 0.99007  0.04636  0.81471  Biso   1.000  C
  H145     1.0000 0.10504  0.92562  0.75374  Biso   1.000  H
  H146     1.0000 0.14025  0.05106  0.80449  Biso   1.000  H
  C146     1.0000 0.19521  0.04522  0.55309  Biso   1.000  C
  H147     1.0000 0.35445  0.01674  0.50602  Biso   1.000  H
  H148     1.0000 0.06366  0.08224  0.61860  Biso   1.000  H
  C147     1.0000 0.68637  0.30766  0.39409  Biso   1.000  C
  H149     1.0000 0.64572  0.16972  0.40350  Biso   1.000  H
  H150     1.0000 0.74679  0.45173  0.40411  Biso   1.000  H
  H151     1.0000 0.90069  0.91032  0.79880  Biso   1.000  H
  H152     1.0000 0.93527  0.06295  0.85690  Biso   1.000  H
  C148     1.0000 0.88979  0.02894  0.75751  Biso   1.000  C
  H153     1.0000 0.93767  0.03058  0.85821  Biso   1.000  H
  C149     1.0000 0.91338  0.06944  0.75761  Biso   1.000  C
  H154     1.0000 0.07840  0.09757  0.83012  Biso   1.000  H
  H155     1.0000 0.13881  0.03632  0.51271  Biso   1.000  H
  H156     1.0000 0.64625  0.28972  0.34842  Biso   1.000  H
  C150     1.0000 0.84718  0.98321  0.69780  Biso   1.000  C
  C151     1.0000 0.89611  0.15576  0.76532  Biso   1.000  C
  H157     1.0000 0.78326  0.94563  0.71290  Biso   1.000  H
  H158     1.0000 0.90944  0.94060  0.67811  Biso   1.000  H
  C152     1.0000 0.78325  0.01187  0.64790  Biso   1.000  C
  C153     1.0000 0.83134  0.18310  0.71633  Biso   1.000  C
  H159     1.0000 0.92781  0.20716  0.80741  Biso   1.000  H
  H160     1.0000 0.74596  0.96181  0.60621  Biso   1.000  H
  C154     1.0000 0.77621  0.11205  0.65742  Biso   1.000  C
  H161     1.0000 0.82389  0.25243  0.72232  Biso   1.000  H
  H162     1.0000 0.73164  0.13178  0.62283  Biso   1.000  H
