data_image0
_cell_length_a       18.139
_cell_length_b       11.041
_cell_length_c       14.406
_cell_angle_alpha    90
_cell_angle_beta     109.05
_cell_angle_gamma    90

_symmetry_space_group_name_H-M    "P 1"
_symmetry_int_tables_number       1

loop_
  _symmetry_equiv_pos_as_xyz
  'x, y, z'

loop_
  _atom_site_label
  _atom_site_occupancy
  _atom_site_fract_x
  _atom_site_fract_y
  _atom_site_fract_z
  _atom_site_thermal_displace_type
  _atom_site_B_iso_or_equiv
  _atom_site_type_symbol
  S1       1.0000 0.56361  0.58817  0.45179  Biso   1.000  S
  C1       1.0000 0.60371  0.44353  0.48101  Biso   1.000  C
  C2       1.0000 0.61209  0.65456  0.56716  Biso   1.000  C
  C3       1.0000 0.58442  0.35413  0.39913  Biso   1.000  C
  C4       1.0000 0.64728  0.42442  0.57465  Biso   1.000  C
  S2       1.0000 0.65767  0.54578  0.65726  Biso   1.000  S
  C5       1.0000 0.61931  0.77565  0.58118  Biso   1.000  C
  H1       1.0000 0.59498  0.27353  0.42520  Biso   1.000  H
  H2       1.0000 0.53021  0.36093  0.36102  Biso   1.000  H
  H3       1.0000 0.61560  0.37053  0.35801  Biso   1.000  H
  S3       1.0000 0.69179  0.28648  0.62363  Biso   1.000  S
  C6       1.0000 0.67044  0.83099  0.67335  Biso   1.000  C
  C7       1.0000 0.58884  0.86179  0.49915  Biso   1.000  C
  C8       1.0000 0.77712  0.28847  0.58192  Biso   1.000  C
  C9       1.0000 0.79592  0.32343  0.66358  Biso   1.000  C
  C10      1.0000 0.67075  0.79929  0.76727  Biso   1.000  C
  C11      1.0000 0.72200  0.92147  0.66233  Biso   1.000  C
  C12      1.0000 0.51235  0.86088  0.43438  Biso   1.000  C
  C13      1.0000 0.64157  0.94892  0.48689  Biso   1.000  C
  C14      1.0000 0.83427  0.39217  0.62312  Biso   1.000  C
  H4       1.0000 0.75910  0.29354  0.51068  Biso   1.000  H
  H5       1.0000 0.80490  0.21248  0.60020  Biso   1.000  H
  C15      1.0000 0.81252  0.36401  0.56811  Biso   1.000  C
  H6       1.0000 0.79267  0.30360  0.51707  Biso   1.000  H
  H7       1.0000 0.84879  0.39290  0.69420  Biso   1.000  H
  H8       1.0000 0.82713  0.25333  0.69273  Biso   1.000  H
  H9       1.0000 0.80759  0.38864  0.71139  Biso   1.000  H
  C16      1.0000 0.72121  0.85608  0.84923  Biso   1.000  C
  H10      1.0000 0.63711  0.74296  0.77403  Biso   1.000  H
  C17      1.0000 0.77130  0.97899  0.74642  Biso   1.000  C
  C18      1.0000 0.72077  0.94801  0.56106  Biso   1.000  C
  H11      1.0000 0.47877  0.80781  0.44459  Biso   1.000  H
  C19      1.0000 0.48858  0.94321  0.35779  Biso   1.000  C
  C20      1.0000 0.61754  0.02916  0.40824  Biso   1.000  C
  C21      1.0000 0.90656  0.37868  0.59359  Biso   1.000  C
  H12      1.0000 0.80901  0.46862  0.59859  Biso   1.000  H
  H13      1.0000 0.78649  0.44027  0.54469  Biso   1.000  H
  C22      1.0000 0.77061  0.94548  0.83858  Biso   1.000  C
  H14      1.0000 0.71950  0.82900  0.91261  Biso   1.000  H
  H15      1.0000 0.80407  0.04447  0.73628  Biso   1.000  H
  C23      1.0000 0.78649  0.95218  0.53661  Biso   1.000  C
  H16      1.0000 0.43422  0.94140  0.31461  Biso   1.000  H
  C24      1.0000 0.54086  0.02527  0.34361  Biso   1.000  C
  H17      1.0000 0.65072  0.08650  0.39928  Biso   1.000  H
  C25      1.0000 0.96631  0.47641  0.63993  Biso   1.000  C
  H18      1.0000 0.89399  0.38402  0.51957  Biso   1.000  H
  H19      1.0000 0.92760  0.28901  0.61753  Biso   1.000  H
  H20      1.0000 0.80141  0.98596  0.89381  Biso   1.000  H
  S4       1.0000 0.88159  0.93325  0.62106  Biso   1.000  S
  S5       1.0000 0.78782  0.96350  0.41477  Biso   1.000  S
  H21      1.0000 0.53131  0.08197  0.29463  Biso   1.000  H
  C26      1.0000 0.95104  0.59822  0.58889  Biso   1.000  C
  H22      1.0000 0.96641  0.48999  0.70603  Biso   1.000  H
  H23      1.0000 0.01859  0.44398  0.63957  Biso   1.000  H
  C27      1.0000 0.92189  0.87999  0.53235  Biso   1.000  C
  C28      1.0000 0.87872  0.89294  0.43813  Biso   1.000  C
  H24      1.0000 0.94959  0.59098  0.52522  Biso   1.000  H
  H25      1.0000 0.89770  0.62703  0.57898  Biso   1.000  H
  C29      1.0000 0.01003  0.69224  0.64353  Biso   1.000  C
  S6       1.0000 0.01818  0.82646  0.57501  Biso   1.000  S
  C30      1.0000 0.89883  0.85391  0.34897  Biso   1.000  C
  H26      1.0000 0.99890  0.71796  0.70118  Biso   1.000  H
  H27      1.0000 0.06258  0.65402  0.65932  Biso   1.000  H
  H28      1.0000 0.86197  0.79449  0.31270  Biso   1.000  H
  H29      1.0000 0.89751  0.92292  0.30792  Biso   1.000  H
  H30      1.0000 0.95018  0.81949  0.36990  Biso   1.000  H
  S7       1.0000 0.43639  0.41183  0.54821  Biso   1.000  S
  C31      1.0000 0.38785  0.34544  0.43284  Biso   1.000  C
  C32      1.0000 0.39629  0.55647  0.51898  Biso   1.000  C
  C33      1.0000 0.38069  0.22435  0.41881  Biso   1.000  C
  S8       1.0000 0.34233  0.45422  0.34273  Biso   1.000  S
  C34      1.0000 0.35272  0.57558  0.42535  Biso   1.000  C
  C35      1.0000 0.41558  0.64587  0.60086  Biso   1.000  C
  C36      1.0000 0.32956  0.16901  0.32665  Biso   1.000  C
  C37      1.0000 0.41116  0.13821  0.50084  Biso   1.000  C
  S9       1.0000 0.30821  0.71352  0.37637  Biso   1.000  S
  H31      1.0000 0.40502  0.72647  0.57479  Biso   1.000  H
  H32      1.0000 0.46979  0.63907  0.63898  Biso   1.000  H
  H33      1.0000 0.38440  0.62947  0.64199  Biso   1.000  H
  C38      1.0000 0.32925  0.20071  0.23272  Biso   1.000  C
  C39      1.0000 0.27800  0.07853  0.33767  Biso   1.000  C
  C40      1.0000 0.48765  0.13912  0.56561  Biso   1.000  C
  C41      1.0000 0.35843  0.05108  0.51311  Biso   1.000  C
  C42      1.0000 0.22288  0.71153  0.41808  Biso   1.000  C
  C43      1.0000 0.20408  0.67657  0.33642  Biso   1.000  C
  C44      1.0000 0.27879  0.14392  0.15077  Biso   1.000  C
  H34      1.0000 0.36289  0.25704  0.22597  Biso   1.000  H
  C45      1.0000 0.22870  0.02101  0.25358  Biso   1.000  C
  C46      1.0000 0.27923  0.05199  0.43894  Biso   1.000  C
  H35      1.0000 0.52123  0.19219  0.55541  Biso   1.000  H
  C47      1.0000 0.51142  0.05679  0.64221  Biso   1.000  C
  C48      1.0000 0.38246  0.97084  0.59176  Biso   1.000  C
  C49      1.0000 0.16573  0.60783  0.37688  Biso   1.000  C
  H36      1.0000 0.24090  0.70646  0.48931  Biso   1.000  H
  H37      1.0000 0.19510  0.78752  0.39979  Biso   1.000  H
  C50      1.0000 0.18748  0.63599  0.43189  Biso   1.000  C
  H38      1.0000 0.20733  0.69640  0.48292  Biso   1.000  H
  H39      1.0000 0.15121  0.60710  0.30579  Biso   1.000  H
  H40      1.0000 0.17289  0.74667  0.30734  Biso   1.000  H
  H41      1.0000 0.19241  0.61136  0.28861  Biso   1.000  H
  C51      1.0000 0.22939  0.05452  0.16142  Biso   1.000  C
  H42      1.0000 0.28050  0.17100  0.08739  Biso   1.000  H
  H43      1.0000 0.19593  0.95553  0.26371  Biso   1.000  H
  C52      1.0000 0.21351  0.04782  0.46339  Biso   1.000  C
  H44      1.0000 0.56578  0.05860  0.68539  Biso   1.000  H
  C53      1.0000 0.45914  0.97473  0.65638  Biso   1.000  C
  H45      1.0000 0.34928  0.91350  0.60072  Biso   1.000  H
  C54      1.0000 0.09344  0.62132  0.40640  Biso   1.000  C
  H46      1.0000 0.19099  0.53138  0.40141  Biso   1.000  H
  H47      1.0000 0.21351  0.55973  0.45531  Biso   1.000  H
  H48      1.0000 0.19859  0.01404  0.10619  Biso   1.000  H
  S10      1.0000 0.11841  0.06675  0.37894  Biso   1.000  S
  S11      1.0000 0.21218  0.03650  0.58522  Biso   1.000  S
  H49      1.0000 0.46869  0.91803  0.70537  Biso   1.000  H
  C55      1.0000 0.03369  0.52359  0.36006  Biso   1.000  C
  H50      1.0000 0.10601  0.61598  0.48043  Biso   1.000  H
  H51      1.0000 0.07242  0.71099  0.38254  Biso   1.000  H
  C56      1.0000 0.07811  0.12001  0.46765  Biso   1.000  C
  C57      1.0000 0.12128  0.10706  0.56187  Biso   1.000  C
  C58      1.0000 0.04896  0.40178  0.41110  Biso   1.000  C
  H52      1.0000 0.03359  0.51001  0.29397  Biso   1.000  H
  H53      1.0000 0.98141  0.55602  0.36043  Biso   1.000  H
  S12      1.0000 0.98182  0.17354  0.42498  Biso   1.000  S
  C59      1.0000 0.10117  0.14609  0.65102  Biso   1.000  C
  C60      1.0000 0.98997  0.30776  0.35647  Biso   1.000  C
  H54      1.0000 0.05041  0.40902  0.47477  Biso   1.000  H
  H55      1.0000 0.10230  0.37297  0.42102  Biso   1.000  H
  H56      1.0000 0.13797  0.20551  0.68730  Biso   1.000  H
  H57      1.0000 0.10249  0.07708  0.69207  Biso   1.000  H
  H58      1.0000 0.04982  0.18051  0.63009  Biso   1.000  H
  H59      1.0000 0.00110  0.28204  0.29882  Biso   1.000  H
  H60      1.0000 0.93742  0.34598  0.34068  Biso   1.000  H
  C61      1.0000 0.72120  0.64387  0.34919  Biso   1.000  C
  C62      1.0000 0.67076  0.70066  0.26731  Biso   1.000  C
  C63      1.0000 0.77062  0.55448  0.33862  Biso   1.000  C
  H61      1.0000 0.71949  0.67104  0.41257  Biso   1.000  H
  H62      1.0000 0.63710  0.75700  0.27399  Biso   1.000  H
  C64      1.0000 0.67043  0.66905  0.17331  Biso   1.000  C
  C65      1.0000 0.77131  0.52097  0.24646  Biso   1.000  C
  H63      1.0000 0.80140  0.51399  0.39377  Biso   1.000  H
  C66      1.0000 0.61932  0.72439  0.08122  Biso   1.000  C
  C67      1.0000 0.72199  0.57848  0.16230  Biso   1.000  C
  H64      1.0000 0.80408  0.45548  0.23632  Biso   1.000  H
  C68      1.0000 0.61210  0.84549  0.06720  Biso   1.000  C
  C69      1.0000 0.58883  0.63817  0.99912  Biso   1.000  C
  C70      1.0000 0.72076  0.55203  0.06103  Biso   1.000  C
  S13      1.0000 0.65768  0.95426  0.15730  Biso   1.000  S
  S14      1.0000 0.56362  0.91187  0.95183  Biso   1.000  S
  C71      1.0000 0.51234  0.63907  0.93435  Biso   1.000  C
  C72      1.0000 0.64158  0.55113  0.98693  Biso   1.000  C
  C73      1.0000 0.78650  0.54778  0.03665  Biso   1.000  C
  C74      1.0000 0.64729  0.07554  0.07469  Biso   1.000  C
  C75      1.0000 0.60372  0.05652  0.98105  Biso   1.000  C
  H65      1.0000 0.47878  0.69224  0.94463  Biso   1.000  H
  C76      1.0000 0.48859  0.55683  0.85783  Biso   1.000  C
  C77      1.0000 0.61755  0.47079  0.90828  Biso   1.000  C
  S15      1.0000 0.88158  0.56680  0.12102  Biso   1.000  S
  S16      1.0000 0.78783  0.53655  0.91481  Biso   1.000  S
  S17      1.0000 0.69178  0.21348  0.12360  Biso   1.000  S
  C78      1.0000 0.58441  0.14591  0.89910  Biso   1.000  C
  H66      1.0000 0.43421  0.55865  0.81457  Biso   1.000  H
  C79      1.0000 0.54087  0.47469  0.84365  Biso   1.000  C
  H67      1.0000 0.65073  0.41346  0.89932  Biso   1.000  H
  C80      1.0000 0.92190  0.61996  0.03239  Biso   1.000  C
  C81      1.0000 0.87871  0.60701  0.93809  Biso   1.000  C
  C82      1.0000 0.77711  0.21148  0.08188  Biso   1.000  C
  C83      1.0000 0.79593  0.17661  0.16362  Biso   1.000  C
  H68      1.0000 0.59497  0.22652  0.92517  Biso   1.000  H
  H69      1.0000 0.53020  0.13912  0.86098  Biso   1.000  H
  H70      1.0000 0.61559  0.12952  0.85797  Biso   1.000  H
  H71      1.0000 0.53130  0.41799  0.79460  Biso   1.000  H
  S18      1.0000 0.01817  0.67349  0.07498  Biso   1.000  S
  C84      1.0000 0.89882  0.64614  0.84894  Biso   1.000  C
  C85      1.0000 0.83426  0.10778  0.12308  Biso   1.000  C
  H72      1.0000 0.75911  0.20650  0.01072  Biso   1.000  H
  H73      1.0000 0.80490  0.28747  0.10017  Biso   1.000  H
  C86      1.0000 0.81251  0.13604  0.06808  Biso   1.000  C
  H74      1.0000 0.79268  0.19636  0.01711  Biso   1.000  H
  H75      1.0000 0.84878  0.10706  0.19417  Biso   1.000  H
  H76      1.0000 0.82712  0.24672  0.19270  Biso   1.000  H
  H77      1.0000 0.80760  0.11140  0.21143  Biso   1.000  H
  C87      1.0000 0.01004  0.80781  0.14357  Biso   1.000  C
  H78      1.0000 0.86198  0.70546  0.81273  Biso   1.000  H
  H79      1.0000 0.89750  0.57712  0.80789  Biso   1.000  H
  H80      1.0000 0.95017  0.68046  0.86987  Biso   1.000  H
  C88      1.0000 0.90657  0.12128  0.09363  Biso   1.000  C
  H81      1.0000 0.80902  0.03143  0.09863  Biso   1.000  H
  H82      1.0000 0.78650  0.05969  0.04472  Biso   1.000  H
  H83      1.0000 0.99890  0.78199  0.20122  Biso   1.000  H
  C89      1.0000 0.95103  0.90182  0.08886  Biso   1.000  C
  H84      1.0000 0.06257  0.84603  0.15929  Biso   1.000  H
  C90      1.0000 0.96630  0.02364  0.13990  Biso   1.000  C
  H85      1.0000 0.89400  0.11602  0.01961  Biso   1.000  H
  H86      1.0000 0.92759  0.21103  0.11750  Biso   1.000  H
  H87      1.0000 0.94958  0.90898  0.02519  Biso   1.000  H
  H88      1.0000 0.89771  0.87302  0.07902  Biso   1.000  H
  H89      1.0000 0.96640  0.00996  0.20599  Biso   1.000  H
  H90      1.0000 0.01860  0.05597  0.13960  Biso   1.000  H
  C91      1.0000 0.27880  0.35613  0.65080  Biso   1.000  C
  C92      1.0000 0.22938  0.44552  0.66138  Biso   1.000  C
  H91      1.0000 0.28051  0.32896  0.58743  Biso   1.000  H
  C93      1.0000 0.32924  0.29934  0.73268  Biso   1.000  C
  C94      1.0000 0.22869  0.47903  0.75354  Biso   1.000  C
  H92      1.0000 0.19860  0.48601  0.60623  Biso   1.000  H
  H93      1.0000 0.36290  0.24300  0.72600  Biso   1.000  H
  C95      1.0000 0.32957  0.33095  0.82668  Biso   1.000  C
  H94      1.0000 0.19587  0.54452  0.76368  Biso   1.000  H
  C96      1.0000 0.27801  0.42152  0.83770  Biso   1.000  C
  C97      1.0000 0.38068  0.27561  0.91878  Biso   1.000  C
  C98      1.0000 0.27924  0.44797  0.93897  Biso   1.000  C
  C99      1.0000 0.38784  0.15451  0.93280  Biso   1.000  C
  C100     1.0000 0.41117  0.36183  0.00088  Biso   1.000  C
  C101     1.0000 0.21350  0.45222  0.96335  Biso   1.000  C
  C102     1.0000 0.35842  0.44887  0.01307  Biso   1.000  C
  S19      1.0000 0.34227  0.04574  0.84269  Biso   1.000  S
  S20      1.0000 0.43638  0.08813  0.04817  Biso   1.000  S
  C103     1.0000 0.48766  0.36093  0.06565  Biso   1.000  C
  S21      1.0000 0.11842  0.43320  0.87897  Biso   1.000  S
  S22      1.0000 0.21217  0.46345  0.08518  Biso   1.000  S
  C104     1.0000 0.38245  0.52921  0.09172  Biso   1.000  C
  C105     1.0000 0.35271  0.92446  0.92531  Biso   1.000  C
  C106     1.0000 0.39628  0.94348  0.01894  Biso   1.000  C
  H95      1.0000 0.52122  0.30776  0.05537  Biso   1.000  H
  C107     1.0000 0.51141  0.44317  0.14217  Biso   1.000  C
  C108     1.0000 0.07810  0.38004  0.96761  Biso   1.000  C
  C109     1.0000 0.12129  0.39299  0.06190  Biso   1.000  C
  C110     1.0000 0.45913  0.52531  0.15635  Biso   1.000  C
  H96      1.0000 0.34927  0.58654  0.10068  Biso   1.000  H
  S23      1.0000 0.30822  0.78652  0.87640  Biso   1.000  S
  C111     1.0000 0.41559  0.85409  0.10090  Biso   1.000  C
  H97      1.0000 0.56579  0.44135  0.18543  Biso   1.000  H
  S24      1.0000 0.98183  0.32651  0.92502  Biso   1.000  S
  C112     1.0000 0.10118  0.35386  0.15106  Biso   1.000  C
  H98      1.0000 0.46870  0.58201  0.20540  Biso   1.000  H
  C113     1.0000 0.22289  0.78852  0.91811  Biso   1.000  C
  C114     1.0000 0.20407  0.82339  0.83638  Biso   1.000  C
  H99      1.0000 0.40503  0.77348  0.07483  Biso   1.000  H
  H100     1.0000 0.46980  0.86088  0.13901  Biso   1.000  H
  H101     1.0000 0.38441  0.87048  0.14202  Biso   1.000  H
  C115     1.0000 0.98996  0.19219  0.85643  Biso   1.000  C
  H102     1.0000 0.13796  0.29454  0.18726  Biso   1.000  H
  H103     1.0000 0.10250  0.42288  0.19211  Biso   1.000  H
  H104     1.0000 0.04983  0.31954  0.13013  Biso   1.000  H
  C116     1.0000 0.16574  0.89222  0.87692  Biso   1.000  C
  H105     1.0000 0.24089  0.79350  0.98928  Biso   1.000  H
  H106     1.0000 0.19511  0.71253  0.89983  Biso   1.000  H
  C117     1.0000 0.18749  0.86396  0.93192  Biso   1.000  C
  H107     1.0000 0.20732  0.80364  0.98289  Biso   1.000  H
  H108     1.0000 0.15122  0.89294  0.80583  Biso   1.000  H
  H109     1.0000 0.17288  0.75328  0.80730  Biso   1.000  H
  H110     1.0000 0.19240  0.88860  0.78857  Biso   1.000  H
  H111     1.0000 0.00110  0.21801  0.79878  Biso   1.000  H
  C118     1.0000 0.04897  0.09818  0.91114  Biso   1.000  C
  H112     1.0000 0.93743  0.15397  0.84071  Biso   1.000  H
  C119     1.0000 0.09343  0.87872  0.90636  Biso   1.000  C
  H113     1.0000 0.19098  0.96857  0.90137  Biso   1.000  H
  H114     1.0000 0.21350  0.94031  0.95527  Biso   1.000  H
  H115     1.0000 0.05042  0.09102  0.97481  Biso   1.000  H
  H116     1.0000 0.10229  0.12698  0.92098  Biso   1.000  H
  C120     1.0000 0.03370  0.97636  0.86010  Biso   1.000  C
  H117     1.0000 0.10600  0.88398  0.98039  Biso   1.000  H
  H118     1.0000 0.07241  0.78897  0.88250  Biso   1.000  H
  H119     1.0000 0.98140  0.94403  0.86039  Biso   1.000  H
  H120     1.0000 0.03360  0.99004  0.79401  Biso   1.000  H
