data_image0
_cell_length_a       14.399
_cell_length_b       17.033
_cell_length_c       17.68
_cell_angle_alpha    106.52
_cell_angle_beta     93.64
_cell_angle_gamma    92.28

_symmetry_space_group_name_H-M    "P 1"
_symmetry_int_tables_number       1

loop_
  _symmetry_equiv_pos_as_xyz
  'x, y, z'

loop_
  _atom_site_label
  _atom_site_occupancy
  _atom_site_fract_x
  _atom_site_fract_y
  _atom_site_fract_z
  _atom_site_thermal_displace_type
  _atom_site_B_iso_or_equiv
  _atom_site_type_symbol
  O1       1.0000 0.60800  0.47179  0.52378  Biso   1.000  O
  C1       1.0000 0.57104  0.41260  0.47561  Biso   1.000  C
  O2       1.0000 0.53391  0.34770  0.49638  Biso   1.000  O
  C2       1.0000 0.56180  0.40002  0.39051  Biso   1.000  C
  C3       1.0000 0.54353  0.35211  0.57698  Biso   1.000  C
  H1       1.0000 0.61466  0.42852  0.37512  Biso   1.000  H
  H2       1.0000 0.56114  0.34122  0.36317  Biso   1.000  H
  H3       1.0000 0.50349  0.42181  0.37589  Biso   1.000  H
  C4       1.0000 0.62504  0.32835  0.60982  Biso   1.000  C
  C5       1.0000 0.47039  0.37723  0.62319  Biso   1.000  C
  C6       1.0000 0.70881  0.30380  0.56058  Biso   1.000  C
  C7       1.0000 0.62751  0.32960  0.68787  Biso   1.000  C
  C8       1.0000 0.47637  0.37812  0.70202  Biso   1.000  C
  O3       1.0000 0.39194  0.40592  0.59112  Biso   1.000  O
  C9       1.0000 0.73365  0.21790  0.56058  Biso   1.000  C
  H4       1.0000 0.68793  0.30090  0.50478  Biso   1.000  H
  C10      1.0000 0.78809  0.36940  0.58650  Biso   1.000  C
  H5       1.0000 0.68174  0.31241  0.71060  Biso   1.000  H
  C11      1.0000 0.55412  0.35523  0.73599  Biso   1.000  C
  O4       1.0000 0.39721  0.39879  0.74137  Biso   1.000  O
  C12      1.0000 0.31744  0.35082  0.56319  Biso   1.000  C
  C13      1.0000 0.67526  0.15175  0.52141  Biso   1.000  C
  C14      1.0000 0.81211  0.20370  0.60361  Biso   1.000  C
  H6       1.0000 0.81661  0.36843  0.63858  Biso   1.000  H
  H7       1.0000 0.76241  0.42381  0.59319  Biso   1.000  H
  C15      1.0000 0.86339  0.35925  0.52881  Biso   1.000  C
  C16      1.0000 0.56227  0.36113  0.82451  Biso   1.000  C
  C17      1.0000 0.38835  0.47994  0.77747  Biso   1.000  C
  C18      1.0000 0.23708  0.39413  0.53958  Biso   1.000  C
  O5       1.0000 0.31980  0.28044  0.55751  Biso   1.000  O
  O6       1.0000 0.59114  0.16069  0.47928  Biso   1.000  O
  C19      1.0000 0.68955  0.07332  0.52579  Biso   1.000  C
  C20      1.0000 0.83355  0.12543  0.60692  Biso   1.000  C
  H8       1.0000 0.85292  0.24913  0.63201  Biso   1.000  H
  H9       1.0000 0.83544  0.36182  0.47697  Biso   1.000  H
  H10      1.0000 0.88819  0.30433  0.52100  Biso   1.000  H
  C21      1.0000 0.94151  0.42273  0.55626  Biso   1.000  C
  H11      1.0000 0.50059  0.37661  0.84529  Biso   1.000  H
  C22      1.0000 0.58260  0.27895  0.83818  Biso   1.000  C
  C23      1.0000 0.63478  0.43240  0.86706  Biso   1.000  C
  C24      1.0000 0.29679  0.49432  0.81386  Biso   1.000  C
  O7       1.0000 0.44840  0.53063  0.77859  Biso   1.000  O
  H12      1.0000 0.19103  0.35380  0.50502  Biso   1.000  H
  H13      1.0000 0.20833  0.42484  0.58698  Biso   1.000  H
  H14      1.0000 0.25938  0.43223  0.51129  Biso   1.000  H
  C25      1.0000 0.59675  0.16793  0.40347  Biso   1.000  C
  C26      1.0000 0.76835  0.06092  0.56952  Biso   1.000  C
  O8       1.0000 0.62216  0.00913  0.49377  Biso   1.000  O
  C27      1.0000 0.92135  0.10540  0.64870  Biso   1.000  C
  H15      1.0000 0.97683  0.41400  0.60207  Biso   1.000  H
  H16      1.0000 0.98279  0.41890  0.51348  Biso   1.000  H
  H17      1.0000 0.91649  0.47723  0.57118  Biso   1.000  H
  C28      1.0000 0.66918  0.26239  0.86836  Biso   1.000  C
  C29      1.0000 0.51301  0.21581  0.81836  Biso   1.000  C
  H18      1.0000 0.62258  0.48065  0.84801  Biso   1.000  H
  H19      1.0000 0.69801  0.41551  0.85357  Biso   1.000  H
  C30      1.0000 0.63114  0.45682  0.95701  Biso   1.000  C
  H20      1.0000 0.24906  0.50050  0.77427  Biso   1.000  H
  H21      1.0000 0.27826  0.44743  0.83256  Biso   1.000  H
  H22      1.0000 0.30319  0.54423  0.85866  Biso   1.000  H
  C31      1.0000 0.50043  0.16224  0.36412  Biso   1.000  C
  O9       1.0000 0.66813  0.17640  0.37672  Biso   1.000  O
  O10      1.0000 0.78279  0.98179  0.57349  Biso   1.000  O
  C32      1.0000 0.63206  0.95837  0.42069  Biso   1.000  C
  C33      1.0000 0.90032  0.08031  0.72279  Biso   1.000  C
  H23      1.0000 0.94684  0.05704  0.61106  Biso   1.000  H
  C34      1.0000 0.99904  0.17410  0.67101  Biso   1.000  C
  C35      1.0000 0.68709  0.18683  0.88097  Biso   1.000  C
  H24      1.0000 0.71797  0.30434  0.88097  Biso   1.000  H
  C36      1.0000 0.52981  0.14055  0.82901  Biso   1.000  C
  O11      1.0000 0.42944  0.22425  0.77830  Biso   1.000  O
  H25      1.0000 0.66277  0.41624  0.97837  Biso   1.000  H
  H26      1.0000 0.56549  0.45660  0.97027  Biso   1.000  H
  C37      1.0000 0.67688  0.53876  0.99358  Biso   1.000  C
  H27      1.0000 0.47649  0.10472  0.34660  Biso   1.000  H
  H28      1.0000 0.45953  0.19460  0.40169  Biso   1.000  H
  H29      1.0000 0.50243  0.18350  0.31820  Biso   1.000  H
  C38      1.0000 0.72636  0.95472  0.62319  Biso   1.000  C
  C39      1.0000 0.55386  0.89417  0.39891  Biso   1.000  C
  O12      1.0000 0.69401  0.96778  0.38388  Biso   1.000  O
  C40      1.0000 0.84954  0.13010  0.78078  Biso   1.000  C
  C41      1.0000 0.93175  0.01004  0.73539  Biso   1.000  C
  H30      1.0000 0.97313  0.22462  0.70367  Biso   1.000  H
  H31      1.0000 0.04870  0.15873  0.70438  Biso   1.000  H
  C42      1.0000 0.04354  0.19443  0.60148  Biso   1.000  C
  C43      1.0000 0.78082  0.16883  0.91458  Biso   1.000  C
  C44      1.0000 0.61478  0.12710  0.85978  Biso   1.000  C
  O13      1.0000 0.46530  0.07294  0.79777  Biso   1.000  O
  C45      1.0000 0.35409  0.25216  0.81670  Biso   1.000  C
  H32      1.0000 0.74156  0.53914  0.97950  Biso   1.000  H
  H33      1.0000 0.64368  0.57934  0.97441  Biso   1.000  H
  H34      1.0000 0.67596  0.55229  0.05116  Biso   1.000  H
  C46      1.0000 0.74987  0.86772  0.62012  Biso   1.000  C
  O14      1.0000 0.67005  0.99520  0.66042  Biso   1.000  O
  H35      1.0000 0.57612  0.84267  0.36631  Biso   1.000  H
  H36      1.0000 0.53068  0.88571  0.44696  Biso   1.000  H
  H37      1.0000 0.50340  0.91202  0.36891  Biso   1.000  H
  C47      1.0000 0.83092  0.11123  0.84990  Biso   1.000  C
  H38      1.0000 0.82683  0.17896  0.77262  Biso   1.000  H
  C48      1.0000 0.91312  0.98738  0.80226  Biso   1.000  C
  O15      1.0000 0.97944  0.95541  0.67811  Biso   1.000  O
  H39      1.0000 0.99362  0.20640  0.56597  Biso   1.000  H
  H40      1.0000 0.08511  0.24470  0.62248  Biso   1.000  H
  C49      1.0000 0.09542  0.13154  0.55668  Biso   1.000  C
  H41      1.0000 0.76792  0.13896  0.95429  Biso   1.000  H
  C50      1.0000 0.84588  0.24470  0.95778  Biso   1.000  C
  O16      1.0000 0.62973  0.04744  0.86357  Biso   1.000  O
  C51      1.0000 0.39793  0.06113  0.84049  Biso   1.000  C
  C52      1.0000 0.27072  0.23960  0.76238  Biso   1.000  C
  O17      1.0000 0.36006  0.28400  0.88387  Biso   1.000  O
  H42      1.0000 0.72551  0.83001  0.56911  Biso   1.000  H
  H43      1.0000 0.81766  0.86502  0.62621  Biso   1.000  H
  H44      1.0000 0.72156  0.85189  0.66296  Biso   1.000  H
  C53      1.0000 0.86440  0.03873  0.85996  Biso   1.000  C
  O18      1.0000 0.95136  0.91783  0.81451  Biso   1.000  O
  C54      1.0000 0.07590  0.96350  0.69006  Biso   1.000  C
  H45      1.0000 0.12106  0.14874  0.51348  Biso   1.000  H
  H46      1.0000 0.14653  0.12041  0.59088  Biso   1.000  H
  H47      1.0000 0.05476  0.08161  0.53467  Biso   1.000  H
  H48      1.0000 0.85086  0.28101  0.92310  Biso   1.000  H
  H49      1.0000 0.90896  0.22653  0.96719  Biso   1.000  H
  C55      1.0000 0.81269  0.29380  0.03690  Biso   1.000  C
  C56      1.0000 0.61922  0.02720  0.93340  Biso   1.000  C
  O19      1.0000 0.38549  0.10892  0.89967  Biso   1.000  O
  C57      1.0000 0.33824  0.98510  0.80132  Biso   1.000  C
  H50      1.0000 0.28610  0.25351  0.71427  Biso   1.000  H
  H51      1.0000 0.24741  0.18210  0.74847  Biso   1.000  H
  H52      1.0000 0.22269  0.27490  0.78777  Biso   1.000  H
  O20      1.0000 0.84099  0.01164  0.92517  Biso   1.000  O
  C58      1.0000 0.89093  0.85288  0.81268  Biso   1.000  C
  C59      1.0000 0.11785  0.90388  0.62018  Biso   1.000  C
  O21      1.0000 0.11482  0.01240  0.74646  Biso   1.000  O
  H53      1.0000 0.80349  0.25678  0.07040  Biso   1.000  H
  H54      1.0000 0.75171  0.31560  0.02726  Biso   1.000  H
  C60      1.0000 0.87876  0.36222  0.07957  Biso   1.000  C
  O22      1.0000 0.61162  0.08014  0.99370  Biso   1.000  O
  C61      1.0000 0.61965  0.93811  0.91878  Biso   1.000  C
  H55      1.0000 0.27633  0.99989  0.78569  Biso   1.000  H
  H56      1.0000 0.36683  0.95321  0.75427  Biso   1.000  H
  H57      1.0000 0.33214  0.95213  0.83830  Biso   1.000  H
  C62      1.0000 0.89480  0.04560  0.99548  Biso   1.000  C
  C63      1.0000 0.94477  0.78518  0.82878  Biso   1.000  C
  O23      1.0000 0.80827  0.85221  0.79859  Biso   1.000  O
  H58      1.0000 0.16471  0.87309  0.64030  Biso   1.000  H
  H59      1.0000 0.06852  0.86577  0.58757  Biso   1.000  H
  H60      1.0000 0.14739  0.93490  0.58828  Biso   1.000  H
  H61      1.0000 0.87807  0.40488  0.05217  Biso   1.000  H
  H62      1.0000 0.86078  0.38509  0.13360  Biso   1.000  H
  H63      1.0000 0.94171  0.34241  0.08128  Biso   1.000  H
  H64      1.0000 0.56138  0.91198  0.88908  Biso   1.000  H
  H65      1.0000 0.67247  0.91738  0.88807  Biso   1.000  H
  H66      1.0000 0.62564  0.92521  0.96950  Biso   1.000  H
  C64      1.0000 0.85481  0.02029  0.06075  Biso   1.000  C
  O24      1.0000 0.96410  0.09089  0.99997  Biso   1.000  O
  H67      1.0000 0.90218  0.73751  0.82440  Biso   1.000  H
  H68      1.0000 0.99174  0.76983  0.79031  Biso   1.000  H
  H69      1.0000 0.97573  0.80393  0.88239  Biso   1.000  H
  H70      1.0000 0.82891  0.96350  0.04075  Biso   1.000  H
  H71      1.0000 0.90380  0.02437  0.10318  Biso   1.000  H
  H72      1.0000 0.80520  0.05618  0.08158  Biso   1.000  H
  O25      1.0000 0.39179  0.52823  0.47620  Biso   1.000  O
  C65      1.0000 0.42882  0.58742  0.52437  Biso   1.000  C
  O26      1.0000 0.46589  0.65232  0.50360  Biso   1.000  O
  C66      1.0000 0.43799  0.60000  0.60946  Biso   1.000  C
  C67      1.0000 0.45627  0.64791  0.42300  Biso   1.000  C
  H73      1.0000 0.38521  0.57152  0.62491  Biso   1.000  H
  H74      1.0000 0.43866  0.65880  0.63680  Biso   1.000  H
  H75      1.0000 0.49631  0.57821  0.62408  Biso   1.000  H
  C68      1.0000 0.37483  0.67174  0.39021  Biso   1.000  C
  C69      1.0000 0.52941  0.62279  0.37678  Biso   1.000  C
  C70      1.0000 0.37229  0.67042  0.31210  Biso   1.000  C
  C71      1.0000 0.29099  0.69622  0.43939  Biso   1.000  C
  C72      1.0000 0.52343  0.62192  0.29802  Biso   1.000  C
  O27      1.0000 0.60793  0.59412  0.40891  Biso   1.000  O
  H76      1.0000 0.31813  0.68761  0.28938  Biso   1.000  H
  C73      1.0000 0.44567  0.64479  0.26399  Biso   1.000  C
  C74      1.0000 0.26621  0.78212  0.43939  Biso   1.000  C
  H77      1.0000 0.31187  0.69911  0.49519  Biso   1.000  H
  C75      1.0000 0.21171  0.63062  0.41347  Biso   1.000  C
  O28      1.0000 0.60259  0.60123  0.25860  Biso   1.000  O
  C76      1.0000 0.68242  0.64920  0.43679  Biso   1.000  C
  C77      1.0000 0.43753  0.63891  0.17552  Biso   1.000  C
  C78      1.0000 0.18769  0.79632  0.39637  Biso   1.000  C
  C79      1.0000 0.32454  0.84833  0.47857  Biso   1.000  C
  H78      1.0000 0.18318  0.63159  0.36139  Biso   1.000  H
  H79      1.0000 0.23738  0.57621  0.40678  Biso   1.000  H
  C80      1.0000 0.13641  0.64083  0.47117  Biso   1.000  C
  C81      1.0000 0.61145  0.52013  0.22251  Biso   1.000  C
  C82      1.0000 0.76272  0.60589  0.46040  Biso   1.000  C
  O29      1.0000 0.68000  0.71958  0.44247  Biso   1.000  O
  H80      1.0000 0.49921  0.62341  0.15469  Biso   1.000  H
  C83      1.0000 0.41720  0.72113  0.16179  Biso   1.000  C
  C84      1.0000 0.36501  0.56762  0.13291  Biso   1.000  C
  C85      1.0000 0.16626  0.87461  0.39311  Biso   1.000  C
  H81      1.0000 0.14688  0.75091  0.36802  Biso   1.000  H
  C86      1.0000 0.31024  0.92670  0.47419  Biso   1.000  C
  O30      1.0000 0.40865  0.83933  0.52070  Biso   1.000  O
  H82      1.0000 0.16442  0.63820  0.52301  Biso   1.000  H
  H83      1.0000 0.11161  0.69569  0.47898  Biso   1.000  H
  C87      1.0000 0.05828  0.57729  0.44371  Biso   1.000  C
  C88      1.0000 0.70301  0.50570  0.18611  Biso   1.000  C
  O31      1.0000 0.55140  0.46939  0.22138  Biso   1.000  O
  H84      1.0000 0.80877  0.64624  0.49502  Biso   1.000  H
  H85      1.0000 0.79147  0.57524  0.41300  Biso   1.000  H
  H86      1.0000 0.74042  0.56779  0.48868  Biso   1.000  H
  C89      1.0000 0.33062  0.73763  0.13161  Biso   1.000  C
  C90      1.0000 0.48679  0.78421  0.18161  Biso   1.000  C
  H87      1.0000 0.37722  0.51944  0.15203  Biso   1.000  H
  H88      1.0000 0.30186  0.58451  0.14640  Biso   1.000  H
  C91      1.0000 0.36866  0.54322  0.04302  Biso   1.000  C
  C92      1.0000 0.07844  0.89462  0.35128  Biso   1.000  C
  C93      1.0000 0.23145  0.93911  0.43051  Biso   1.000  C
  O32      1.0000 0.37764  0.99095  0.50620  Biso   1.000  O
  C94      1.0000 0.40304  0.83215  0.59651  Biso   1.000  C
  H89      1.0000 0.02304  0.58602  0.39791  Biso   1.000  H
  H90      1.0000 0.01700  0.58112  0.48649  Biso   1.000  H
  H91      1.0000 0.08331  0.52284  0.42880  Biso   1.000  H
  H92      1.0000 0.75073  0.49952  0.22570  Biso   1.000  H
  H93      1.0000 0.72153  0.55259  0.16741  Biso   1.000  H
  H94      1.0000 0.69661  0.45579  0.14131  Biso   1.000  H
  H95      1.0000 0.28183  0.69573  0.11901  Biso   1.000  H
  C95      1.0000 0.31270  0.81319  0.11901  Biso   1.000  C
  C96      1.0000 0.46999  0.85949  0.17102  Biso   1.000  C
  O33      1.0000 0.57042  0.77583  0.22168  Biso   1.000  O
  H96      1.0000 0.33703  0.58378  0.02160  Biso   1.000  H
  H97      1.0000 0.43431  0.54342  0.02971  Biso   1.000  H
  C97      1.0000 0.32292  0.46132  0.00639  Biso   1.000  C
  C98      1.0000 0.09948  0.91971  0.27719  Biso   1.000  C
  H98      1.0000 0.05296  0.94304  0.38891  Biso   1.000  H
  C99      1.0000 0.00076  0.82594  0.32902  Biso   1.000  C
  O34      1.0000 0.21701  0.01823  0.42649  Biso   1.000  O
  C100     1.0000 0.36774  0.04165  0.57928  Biso   1.000  C
  C101     1.0000 0.49938  0.83786  0.63592  Biso   1.000  C
  O35      1.0000 0.33167  0.82364  0.62331  Biso   1.000  O
  C102     1.0000 0.38502  0.87292  0.14019  Biso   1.000  C
  C103     1.0000 0.21898  0.83119  0.08539  Biso   1.000  C
  O36      1.0000 0.53450  0.92714  0.20221  Biso   1.000  O
  C104     1.0000 0.64571  0.74792  0.18327  Biso   1.000  C
  H99      1.0000 0.25823  0.46088  0.02048  Biso   1.000  H
  H100     1.0000 0.35612  0.42070  0.02562  Biso   1.000  H
  H101     1.0000 0.32384  0.44773  0.94881  Biso   1.000  H
  C105     1.0000 0.15032  0.86992  0.21919  Biso   1.000  C
  C106     1.0000 0.06805  0.98998  0.26458  Biso   1.000  C
  H102     1.0000 0.02667  0.77540  0.29630  Biso   1.000  H
  H103     1.0000 0.95110  0.84129  0.29559  Biso   1.000  H
  C107     1.0000 0.95626  0.80559  0.39850  Biso   1.000  C
  C108     1.0000 0.27344  0.04536  0.37678  Biso   1.000  C
  C109     1.0000 0.44594  0.10586  0.60112  Biso   1.000  C
  O37      1.0000 0.30579  0.03224  0.61609  Biso   1.000  O
  H104     1.0000 0.52337  0.89530  0.65337  Biso   1.000  H
  H105     1.0000 0.54027  0.80542  0.59828  Biso   1.000  H
  H106     1.0000 0.49736  0.81652  0.68178  Biso   1.000  H
  O38      1.0000 0.37007  0.95263  0.13640  Biso   1.000  O
  H107     1.0000 0.23188  0.86112  0.04568  Biso   1.000  H
  C110     1.0000 0.16888  0.88879  0.15007  Biso   1.000  C
  C111     1.0000 0.15391  0.75532  0.04219  Biso   1.000  C
  C112     1.0000 0.60186  0.93889  0.15948  Biso   1.000  C
  C113     1.0000 0.72908  0.76042  0.23760  Biso   1.000  C
  O39      1.0000 0.63973  0.71602  0.11611  Biso   1.000  O
  H108     1.0000 0.17298  0.82114  0.22742  Biso   1.000  H
  C114     1.0000 0.08668  0.01264  0.19771  Biso   1.000  C
  O40      1.0000 0.02036  0.04463  0.32192  Biso   1.000  O
  H109     1.0000 0.00618  0.79362  0.43400  Biso   1.000  H
  H110     1.0000 0.91468  0.75532  0.37749  Biso   1.000  H
  C115     1.0000 0.90438  0.86854  0.44330  Biso   1.000  C
  C116     1.0000 0.24993  0.13237  0.37992  Biso   1.000  C
  O41      1.0000 0.32975  0.00484  0.33962  Biso   1.000  O
  H111     1.0000 0.42368  0.15735  0.63367  Biso   1.000  H
  H112     1.0000 0.46912  0.11437  0.55301  Biso   1.000  H
  H113     1.0000 0.49640  0.08806  0.63106  Biso   1.000  H
  C117     1.0000 0.38058  0.97282  0.06657  Biso   1.000  C
  C118     1.0000 0.13539  0.96129  0.14001  Biso   1.000  C
  H114     1.0000 0.14893  0.71901  0.07687  Biso   1.000  H
  H115     1.0000 0.09084  0.77349  0.03278  Biso   1.000  H
  C119     1.0000 0.18711  0.70624  0.96313  Biso   1.000  C
  O42      1.0000 0.61431  0.89110  0.10031  Biso   1.000  O
  C120     1.0000 0.66156  0.01493  0.19872  Biso   1.000  C
  H116     1.0000 0.71370  0.74651  0.28571  Biso   1.000  H
  H117     1.0000 0.75238  0.81792  0.25150  Biso   1.000  H
  H118     1.0000 0.77711  0.72512  0.21221  Biso   1.000  H
  O43      1.0000 0.04845  0.08227  0.18552  Biso   1.000  O
  C121     1.0000 0.92397  0.03652  0.30991  Biso   1.000  C
  H119     1.0000 0.87874  0.85134  0.48649  Biso   1.000  H
  H120     1.0000 0.85327  0.87961  0.40909  Biso   1.000  H
  H121     1.0000 0.94504  0.91841  0.46531  Biso   1.000  H
  H122     1.0000 0.27429  0.17001  0.43087  Biso   1.000  H
  H123     1.0000 0.18215  0.13502  0.37382  Biso   1.000  H
  H124     1.0000 0.27823  0.14813  0.33701  Biso   1.000  H
  O44      1.0000 0.38818  0.91988  0.00627  Biso   1.000  O
  C122     1.0000 0.38014  0.06191  0.08119  Biso   1.000  C
  O45      1.0000 0.15881  0.98843  0.07480  Biso   1.000  O
  H125     1.0000 0.19631  0.74326  0.92964  Biso   1.000  H
  H126     1.0000 0.24808  0.68442  0.97272  Biso   1.000  H
  C123     1.0000 0.12104  0.63786  0.92041  Biso   1.000  C
  H127     1.0000 0.72347  0.00013  0.21428  Biso   1.000  H
  H128     1.0000 0.63297  0.04681  0.24570  Biso   1.000  H
  H129     1.0000 0.66766  0.04795  0.16167  Biso   1.000  H
  C124     1.0000 0.10887  0.14714  0.18730  Biso   1.000  C
  O46      1.0000 0.88498  0.98762  0.25351  Biso   1.000  O
  C125     1.0000 0.88194  0.09614  0.37980  Biso   1.000  C
  H130     1.0000 0.43849  0.08804  0.11090  Biso   1.000  H
  H131     1.0000 0.32733  0.08264  0.11190  Biso   1.000  H
  H132     1.0000 0.37416  0.07481  0.03048  Biso   1.000  H
  C126     1.0000 0.10499  0.95442  0.00450  Biso   1.000  C
  H133     1.0000 0.12172  0.59514  0.94781  Biso   1.000  H
  H134     1.0000 0.13902  0.61494  0.86644  Biso   1.000  H
  H135     1.0000 0.05815  0.65761  0.91869  Biso   1.000  H
  C127     1.0000 0.05503  0.21484  0.17120  Biso   1.000  C
  O47      1.0000 0.19153  0.14781  0.20138  Biso   1.000  O
  H136     1.0000 0.83515  0.12693  0.35968  Biso   1.000  H
  H137     1.0000 0.93135  0.13425  0.41241  Biso   1.000  H
  H138     1.0000 0.85241  0.06512  0.41170  Biso   1.000  H
  O48      1.0000 0.03584  0.90913  0.00000  Biso   1.000  O
  C128     1.0000 0.14499  0.97973  0.93923  Biso   1.000  C
  H139     1.0000 0.09762  0.26251  0.17558  Biso   1.000  H
  H140     1.0000 0.00806  0.23027  0.20972  Biso   1.000  H
  H141     1.0000 0.02407  0.19615  0.11758  Biso   1.000  H
  H142     1.0000 0.09600  0.97565  0.89680  Biso   1.000  H
  H143     1.0000 0.19459  0.94384  0.91839  Biso   1.000  H
  H144     1.0000 0.17096  0.03652  0.95923  Biso   1.000  H
