data_image0
_cell_length_a       14.451
_cell_length_b       17.782
_cell_length_c       19.083
_cell_angle_alpha    89.89
_cell_angle_beta     107.15
_cell_angle_gamma    90.21

_symmetry_space_group_name_H-M    "P 1"
_symmetry_int_tables_number       1

loop_
  _symmetry_equiv_pos_as_xyz
  'x, y, z'

loop_
  _atom_site_label
  _atom_site_occupancy
  _atom_site_fract_x
  _atom_site_fract_y
  _atom_site_fract_z
  _atom_site_thermal_displace_type
  _atom_site_B_iso_or_equiv
  _atom_site_type_symbol
  C1       1.0000 0.62881  0.47508  0.57347  Biso   1.000  C
  C2       1.0000 0.56618  0.44350  0.60758  Biso   1.000  C
  H1       1.0000 0.66477  0.44439  0.55209  Biso   1.000  H
  C3       1.0000 0.63754  0.54808  0.57123  Biso   1.000  C
  C4       1.0000 0.51297  0.48610  0.63928  Biso   1.000  C
  H2       1.0000 0.56063  0.39142  0.60868  Biso   1.000  H
  C5       1.0000 0.58584  0.59309  0.60391  Biso   1.000  C
  H3       1.0000 0.67881  0.56953  0.54742  Biso   1.000  H
  C6       1.0000 0.44350  0.45159  0.67471  Biso   1.000  C
  C7       1.0000 0.52267  0.56320  0.63841  Biso   1.000  C
  H4       1.0000 0.59339  0.64500  0.60281  Biso   1.000  H
  O1       1.0000 0.35198  0.44388  0.61872  Biso   1.000  O
  H5       1.0000 0.43659  0.48350  0.71398  Biso   1.000  H
  H6       1.0000 0.46673  0.40282  0.69511  Biso   1.000  H
  H7       1.0000 0.48757  0.59411  0.66040  Biso   1.000  H
  C8       1.0000 0.26863  0.43268  0.63671  Biso   1.000  C
  C9       1.0000 0.18948  0.47888  0.60298  Biso   1.000  C
  C10      1.0000 0.25152  0.37848  0.68349  Biso   1.000  C
  O2       1.0000 0.20427  0.53729  0.55730  Biso   1.000  O
  C11      1.0000 0.10057  0.47010  0.61269  Biso   1.000  C
  O3       1.0000 0.32748  0.32958  0.71902  Biso   1.000  O
  C12      1.0000 0.16281  0.36908  0.69390  Biso   1.000  C
  C13      1.0000 0.25018  0.59867  0.59130  Biso   1.000  C
  H8       1.0000 0.05021  0.50127  0.58768  Biso   1.000  H
  C14      1.0000 0.08412  0.41511  0.65941  Biso   1.000  C
  C15      1.0000 0.37207  0.34228  0.79108  Biso   1.000  C
  H9       1.0000 0.15431  0.33092  0.72478  Biso   1.000  H
  N1       1.0000 0.27019  0.60401  0.66341  Biso   1.000  N
  N2       1.0000 0.26998  0.64938  0.54561  Biso   1.000  N
  C16      1.0000 0.98706  0.40531  0.67488  Biso   1.000  C
  N3       1.0000 0.34989  0.40439  0.82119  Biso   1.000  N
  N4       1.0000 0.43379  0.28888  0.82349  Biso   1.000  N
  C17      1.0000 0.31277  0.66792  0.68941  Biso   1.000  C
  C18      1.0000 0.31433  0.71043  0.57989  Biso   1.000  C
  C19      1.0000 0.00493  0.41761  0.75670  Biso   1.000  C
  C20      1.0000 0.95049  0.32553  0.65689  Biso   1.000  C
  C21      1.0000 0.91152  0.46040  0.63468  Biso   1.000  C
  C22      1.0000 0.40037  0.41142  0.89051  Biso   1.000  C
  C23      1.0000 0.47892  0.30248  0.89462  Biso   1.000  C
  N5       1.0000 0.33729  0.72369  0.65168  Biso   1.000  N
  O4       1.0000 0.33647  0.68181  0.76202  Biso   1.000  O
  C24      1.0000 0.33881  0.77300  0.53273  Biso   1.000  C
  H10      1.0000 0.02803  0.46787  0.76942  Biso   1.000  H
  H11      1.0000 0.05230  0.38238  0.78368  Biso   1.000  H
  H12      1.0000 0.94549  0.41018  0.76871  Biso   1.000  H
  H13      1.0000 0.93877  0.31652  0.60539  Biso   1.000  H
  H14      1.0000 0.99819  0.29069  0.68453  Biso   1.000  H
  H15      1.0000 0.89143  0.31882  0.66950  Biso   1.000  H
  H16      1.0000 0.89821  0.45308  0.58280  Biso   1.000  H
  H17      1.0000 0.85330  0.45257  0.64822  Biso   1.000  H
  H18      1.0000 0.93468  0.51072  0.64718  Biso   1.000  H
  N6       1.0000 0.46592  0.36358  0.93109  Biso   1.000  N
  O5       1.0000 0.38600  0.47212  0.92808  Biso   1.000  O
  C25      1.0000 0.55027  0.24300  0.93460  Biso   1.000  C
  C26      1.0000 0.30193  0.63188  0.80611  Biso   1.000  C
  C27      1.0000 0.27481  0.83880  0.53519  Biso   1.000  C
  C28      1.0000 0.32733  0.74631  0.45540  Biso   1.000  C
  C29      1.0000 0.44418  0.79687  0.56761  Biso   1.000  C
  C30      1.0000 0.32688  0.53008  0.88843  Biso   1.000  C
  C31      1.0000 0.62650  0.23038  0.89523  Biso   1.000  C
  C32      1.0000 0.49358  0.17001  0.93329  Biso   1.000  C
  C33      1.0000 0.59970  0.26548  0.01401  Biso   1.000  C
  C34      1.0000 0.36100  0.57320  0.84082  Biso   1.000  C
  C35      1.0000 0.21638  0.64869  0.81971  Biso   1.000  C
  H19      1.0000 0.20829  0.82487  0.51309  Biso   1.000  H
  H20      1.0000 0.28408  0.85321  0.58532  Biso   1.000  H
  H21      1.0000 0.29109  0.88033  0.50882  Biso   1.000  H
  H22      1.0000 0.26108  0.73199  0.43259  Biso   1.000  H
  H23      1.0000 0.34468  0.78620  0.42771  Biso   1.000  H
  H24      1.0000 0.36862  0.70390  0.45672  Biso   1.000  H
  H25      1.0000 0.46079  0.83598  0.53870  Biso   1.000  H
  H26      1.0000 0.45213  0.81522  0.61641  Biso   1.000  H
  H27      1.0000 0.48588  0.75453  0.56980  Biso   1.000  H
  C36      1.0000 0.24149  0.54609  0.90351  Biso   1.000  C
  H28      1.0000 0.66228  0.27599  0.89578  Biso   1.000  H
  H29      1.0000 0.66989  0.19128  0.91969  Biso   1.000  H
  H30      1.0000 0.59540  0.21581  0.84538  Biso   1.000  H
  H31      1.0000 0.44571  0.17741  0.95829  Biso   1.000  H
  H32      1.0000 0.46239  0.15571  0.88338  Biso   1.000  H
  H33      1.0000 0.53733  0.13090  0.95742  Biso   1.000  H
  H34      1.0000 0.63599  0.31098  0.01500  Biso   1.000  H
  H35      1.0000 0.55156  0.27339  0.03869  Biso   1.000  H
  H36      1.0000 0.64257  0.22609  0.03820  Biso   1.000  H
  O6       1.0000 0.44550  0.55690  0.82541  Biso   1.000  O
  C37      1.0000 0.18297  0.60590  0.86857  Biso   1.000  C
  H37      1.0000 0.18003  0.68931  0.79591  Biso   1.000  H
  H38      1.0000 0.22247  0.51682  0.93729  Biso   1.000  H
  C38      1.0000 0.53149  0.58970  0.87598  Biso   1.000  C
  C39      1.0000 0.09053  0.62928  0.88629  Biso   1.000  C
  H39      1.0000 0.53077  0.64392  0.87011  Biso   1.000  H
  H40      1.0000 0.53339  0.57829  0.92610  Biso   1.000  H
  C40      1.0000 0.61713  0.55783  0.85991  Biso   1.000  C
  C41      1.0000 0.01002  0.64689  0.81598  Biso   1.000  C
  C42      1.0000 0.11231  0.70100  0.93252  Biso   1.000  C
  C43      1.0000 0.05363  0.56761  0.92819  Biso   1.000  C
  C44      1.0000 0.65117  0.48902  0.88859  Biso   1.000  C
  C45      1.0000 0.66472  0.59599  0.81872  Biso   1.000  C
  H41      1.0000 0.03168  0.68521  0.78889  Biso   1.000  H
  H42      1.0000 0.99371  0.60232  0.78670  Biso   1.000  H
  H43      1.0000 0.95394  0.66443  0.82832  Biso   1.000  H
  H44      1.0000 0.13461  0.73949  0.90598  Biso   1.000  H
  H45      1.0000 0.05443  0.71769  0.94272  Biso   1.000  H
  H46      1.0000 0.16139  0.69089  0.97782  Biso   1.000  H
  H47      1.0000 0.03942  0.52293  0.89879  Biso   1.000  H
  H48      1.0000 0.10243  0.55688  0.97348  Biso   1.000  H
  H49      1.0000 0.99588  0.58458  0.93839  Biso   1.000  H
  H50      1.0000 0.61984  0.46369  0.91771  Biso   1.000  H
  C46      1.0000 0.72993  0.45642  0.87548  Biso   1.000  C
  C47      1.0000 0.74442  0.56480  0.80359  Biso   1.000  C
  H51      1.0000 0.64329  0.64347  0.80063  Biso   1.000  H
  H52      1.0000 0.75377  0.41051  0.89638  Biso   1.000  H
  C48      1.0000 0.77332  0.49521  0.82920  Biso   1.000  C
  H53      1.0000 0.77741  0.59131  0.77622  Biso   1.000  H
  H54      1.0000 0.82343  0.47239  0.81582  Biso   1.000  H
  C49      1.0000 0.37120  0.52493  0.42650  Biso   1.000  C
  C50      1.0000 0.43383  0.55651  0.39239  Biso   1.000  C
  H55      1.0000 0.33517  0.55561  0.44789  Biso   1.000  H
  C51      1.0000 0.36249  0.45187  0.42880  Biso   1.000  C
  C52      1.0000 0.48696  0.51391  0.36069  Biso   1.000  C
  H56      1.0000 0.43938  0.60858  0.39129  Biso   1.000  H
  C53      1.0000 0.41419  0.40691  0.39612  Biso   1.000  C
  H57      1.0000 0.32122  0.43048  0.45260  Biso   1.000  H
  C54      1.0000 0.55652  0.54841  0.32532  Biso   1.000  C
  C55      1.0000 0.47729  0.43680  0.36162  Biso   1.000  C
  H58      1.0000 0.40664  0.35500  0.39721  Biso   1.000  H
  O7       1.0000 0.64798  0.55612  0.38131  Biso   1.000  O
  H59      1.0000 0.56342  0.51650  0.28600  Biso   1.000  H
  H60      1.0000 0.53330  0.59719  0.30492  Biso   1.000  H
  H61      1.0000 0.51237  0.40589  0.33958  Biso   1.000  H
  C56      1.0000 0.73140  0.56727  0.36332  Biso   1.000  C
  C57      1.0000 0.74849  0.62153  0.31649  Biso   1.000  C
  C58      1.0000 0.81052  0.52107  0.39699  Biso   1.000  C
  O8       1.0000 0.67247  0.67037  0.28101  Biso   1.000  O
  C59      1.0000 0.83722  0.63087  0.30612  Biso   1.000  C
  O9       1.0000 0.79566  0.46271  0.44268  Biso   1.000  O
  C60      1.0000 0.89937  0.52991  0.38729  Biso   1.000  C
  C61      1.0000 0.62787  0.65767  0.20889  Biso   1.000  C
  C62      1.0000 0.91591  0.58490  0.34062  Biso   1.000  C
  H62      1.0000 0.84570  0.66909  0.27519  Biso   1.000  H
  C63      1.0000 0.74976  0.40128  0.40868  Biso   1.000  C
  H63      1.0000 0.94980  0.49868  0.41230  Biso   1.000  H
  N7       1.0000 0.65012  0.59561  0.17878  Biso   1.000  N
  N8       1.0000 0.56622  0.71113  0.17648  Biso   1.000  N
  C64      1.0000 0.01288  0.59469  0.32510  Biso   1.000  C
  N9       1.0000 0.72977  0.39600  0.33661  Biso   1.000  N
  N10      1.0000 0.72998  0.35062  0.45441  Biso   1.000  N
  C65      1.0000 0.59959  0.58859  0.10952  Biso   1.000  C
  C66      1.0000 0.52111  0.69753  0.10540  Biso   1.000  C
  C67      1.0000 0.99508  0.58240  0.24328  Biso   1.000  C
  C68      1.0000 0.04951  0.67448  0.34309  Biso   1.000  C
  C69      1.0000 0.08849  0.53960  0.36530  Biso   1.000  C
  C70      1.0000 0.68719  0.33208  0.31062  Biso   1.000  C
  C71      1.0000 0.68568  0.28958  0.42008  Biso   1.000  C
  O10      1.0000 0.61400  0.52789  0.07190  Biso   1.000  O
  N11      1.0000 0.53409  0.63637  0.06888  Biso   1.000  N
  C72      1.0000 0.44969  0.75700  0.06543  Biso   1.000  C
  H64      1.0000 0.97200  0.53208  0.23061  Biso   1.000  H
  H65      1.0000 0.94771  0.61763  0.21629  Biso   1.000  H
  H66      1.0000 0.05454  0.58977  0.23132  Biso   1.000  H
  H67      1.0000 0.06116  0.68349  0.39458  Biso   1.000  H
  H68      1.0000 0.00177  0.70931  0.31550  Biso   1.000  H
  H69      1.0000 0.10857  0.68118  0.33047  Biso   1.000  H
  H70      1.0000 0.10180  0.54692  0.41718  Biso   1.000  H
  H71      1.0000 0.14672  0.54738  0.35181  Biso   1.000  H
  H72      1.0000 0.06533  0.48928  0.35279  Biso   1.000  H
  O11      1.0000 0.66349  0.31820  0.23801  Biso   1.000  O
  N12      1.0000 0.66272  0.27632  0.34830  Biso   1.000  N
  C73      1.0000 0.66122  0.22700  0.46730  Biso   1.000  C
  C74      1.0000 0.67308  0.46987  0.11160  Biso   1.000  C
  C75      1.0000 0.37353  0.76962  0.10480  Biso   1.000  C
  C76      1.0000 0.50642  0.83000  0.06669  Biso   1.000  C
  C77      1.0000 0.40033  0.73452  0.98602  Biso   1.000  C
  C78      1.0000 0.69810  0.36812  0.19392  Biso   1.000  C
  C79      1.0000 0.72520  0.16121  0.46478  Biso   1.000  C
  C80      1.0000 0.67270  0.25370  0.54463  Biso   1.000  C
  C81      1.0000 0.55578  0.20308  0.43242  Biso   1.000  C
  C82      1.0000 0.63903  0.42681  0.15920  Biso   1.000  C
  C83      1.0000 0.75847  0.45391  0.09652  Biso   1.000  C
  H73      1.0000 0.33773  0.72401  0.10420  Biso   1.000  H
  H74      1.0000 0.33011  0.80867  0.08029  Biso   1.000  H
  H75      1.0000 0.40461  0.78420  0.15460  Biso   1.000  H
  H76      1.0000 0.55430  0.82260  0.04168  Biso   1.000  H
  H77      1.0000 0.53762  0.84429  0.11659  Biso   1.000  H
  H78      1.0000 0.46270  0.86910  0.04261  Biso   1.000  H
  H79      1.0000 0.36401  0.68897  0.98497  Biso   1.000  H
  H80      1.0000 0.44838  0.72662  0.96128  Biso   1.000  H
  H81      1.0000 0.35737  0.77391  0.96178  Biso   1.000  H
  C84      1.0000 0.78358  0.35132  0.18032  Biso   1.000  C
  H82      1.0000 0.79172  0.17508  0.48688  Biso   1.000  H
  H83      1.0000 0.71588  0.14680  0.41471  Biso   1.000  H
  H84      1.0000 0.70887  0.11968  0.49121  Biso   1.000  H
  H85      1.0000 0.73892  0.26802  0.56739  Biso   1.000  H
  H86      1.0000 0.65528  0.21380  0.57232  Biso   1.000  H
  H87      1.0000 0.63141  0.29610  0.54331  Biso   1.000  H
  H88      1.0000 0.53924  0.16402  0.46132  Biso   1.000  H
  H89      1.0000 0.54790  0.18479  0.38361  Biso   1.000  H
  H90      1.0000 0.51406  0.24548  0.43017  Biso   1.000  H
  O12      1.0000 0.55453  0.44310  0.17461  Biso   1.000  O
  H91      1.0000 0.77747  0.48319  0.06268  Biso   1.000  H
  C85      1.0000 0.81697  0.39410  0.13140  Biso   1.000  C
  H92      1.0000 0.82000  0.31069  0.20412  Biso   1.000  H
  C86      1.0000 0.46851  0.41031  0.12400  Biso   1.000  C
  C87      1.0000 0.90948  0.37072  0.11369  Biso   1.000  C
  C88      1.0000 0.38290  0.44218  0.14012  Biso   1.000  C
  H93      1.0000 0.46919  0.35609  0.12992  Biso   1.000  H
  H94      1.0000 0.46664  0.42171  0.07393  Biso   1.000  H
  C89      1.0000 0.98999  0.35312  0.18399  Biso   1.000  C
  C90      1.0000 0.88771  0.29901  0.06751  Biso   1.000  C
  C91      1.0000 0.94638  0.43240  0.07179  Biso   1.000  C
  C92      1.0000 0.33531  0.40401  0.18130  Biso   1.000  C
  C93      1.0000 0.34877  0.51098  0.11138  Biso   1.000  C
  H95      1.0000 0.96833  0.31479  0.21108  Biso   1.000  H
  H96      1.0000 0.00630  0.39768  0.21328  Biso   1.000  H
  H97      1.0000 0.04609  0.33558  0.17171  Biso   1.000  H
  H98      1.0000 0.86540  0.26052  0.09400  Biso   1.000  H
  H99      1.0000 0.94560  0.28231  0.05731  Biso   1.000  H
  H100     1.0000 0.83864  0.30911  0.02221  Biso   1.000  H
  H101     1.0000 0.96059  0.47708  0.10118  Biso   1.000  H
  H102     1.0000 0.89758  0.44312  0.02649  Biso   1.000  H
  H103     1.0000 0.00413  0.41542  0.06159  Biso   1.000  H
  C94      1.0000 0.25558  0.43521  0.19639  Biso   1.000  C
  H104     1.0000 0.35667  0.35648  0.19940  Biso   1.000  H
  H105     1.0000 0.38019  0.53631  0.08232  Biso   1.000  H
  C95      1.0000 0.27008  0.54359  0.12449  Biso   1.000  C
  C96      1.0000 0.22669  0.50480  0.17078  Biso   1.000  C
  H106     1.0000 0.22262  0.40870  0.22381  Biso   1.000  H
  H107     1.0000 0.24617  0.58950  0.10359  Biso   1.000  H
  H108     1.0000 0.17659  0.52762  0.18421  Biso   1.000  H
  C97      1.0000 0.61324  0.79868  0.43341  Biso   1.000  C
  C98      1.0000 0.59001  0.87121  0.38608  Biso   1.000  C
  H109     1.0000 0.66298  0.80921  0.47821  Biso   1.000  H
  H110     1.0000 0.63512  0.76018  0.40670  Biso   1.000  H
  H111     1.0000 0.55598  0.78169  0.44438  Biso   1.000  H
  C99      1.0000 0.68360  0.89429  0.36848  Biso   1.000  C
  C100     1.0000 0.50996  0.85199  0.31578  Biso   1.000  C
  C101     1.0000 0.55412  0.93129  0.42738  Biso   1.000  C
  C102     1.0000 0.74229  0.95370  0.40352  Biso   1.000  C
  C103     1.0000 0.71693  0.85120  0.32022  Biso   1.000  C
  H112     1.0000 0.49401  0.89610  0.28550  Biso   1.000  H
  H113     1.0000 0.45368  0.83471  0.32800  Biso   1.000  H
  H114     1.0000 0.53210  0.81321  0.28973  Biso   1.000  H
  H115     1.0000 0.53942  0.97597  0.39798  Biso   1.000  H
  H116     1.0000 0.60339  0.94228  0.47240  Biso   1.000  H
  H117     1.0000 0.49692  0.91368  0.43813  Biso   1.000  H
  C104     1.0000 0.82702  0.96968  0.38778  Biso   1.000  C
  H118     1.0000 0.72392  0.98269  0.43758  Biso   1.000  H
  H119     1.0000 0.68018  0.81039  0.29669  Biso   1.000  H
  C105     1.0000 0.80262  0.86769  0.30640  Biso   1.000  C
  C106     1.0000 0.86091  0.92670  0.34078  Biso   1.000  C
  O13      1.0000 0.88630  0.02802  0.42809  Biso   1.000  O
  O14      1.0000 0.83609  0.81818  0.26159  Biso   1.000  O
  O15      1.0000 0.94623  0.94308  0.32620  Biso   1.000  O
  C107     1.0000 0.90152  0.08823  0.39113  Biso   1.000  C
  C108     1.0000 0.81251  0.83191  0.18898  Biso   1.000  C
  C109     1.0000 0.03178  0.91048  0.37692  Biso   1.000  C
  N13      1.0000 0.84968  0.09600  0.32082  Biso   1.000  N
  N14      1.0000 0.96549  0.13689  0.43100  Biso   1.000  N
  N15      1.0000 0.76971  0.89610  0.16343  Biso   1.000  N
  N16      1.0000 0.83842  0.77622  0.15202  Biso   1.000  N
  H120     1.0000 0.03020  0.85610  0.37188  Biso   1.000  H
  H121     1.0000 0.03462  0.92292  0.42688  Biso   1.000  H
  C110     1.0000 0.11692  0.94148  0.35921  Biso   1.000  C
  C111     1.0000 0.87192  0.15811  0.29121  Biso   1.000  C
  C112     1.0000 0.97968  0.19671  0.39442  Biso   1.000  C
  C113     1.0000 0.74977  0.90117  0.09120  Biso   1.000  C
  C114     1.0000 0.81350  0.78972  0.07881  Biso   1.000  C
  C115     1.0000 0.16421  0.90462  0.31830  Biso   1.000  C
  C116     1.0000 0.15173  0.01158  0.38773  Biso   1.000  C
  N17      1.0000 0.93391  0.21077  0.32362  Biso   1.000  N
  O16      1.0000 0.82727  0.16998  0.21942  Biso   1.000  O
  C117     1.0000 0.04982  0.25729  0.43538  Biso   1.000  C
  N18      1.0000 0.76952  0.85071  0.04601  Biso   1.000  N
  O17      1.0000 0.70460  0.96289  0.05731  Biso   1.000  O
  C118     1.0000 0.83767  0.72723  0.03230  Biso   1.000  C
  H122     1.0000 0.14319  0.85661  0.30130  Biso   1.000  H
  C119     1.0000 0.24249  0.93529  0.30091  Biso   1.000  C
  C120     1.0000 0.23133  0.04168  0.37319  Biso   1.000  C
  H123     1.0000 0.12092  0.03787  0.41652  Biso   1.000  H
  C121     1.0000 0.75143  0.12160  0.18300  Biso   1.000  C
  C122     1.0000 0.99459  0.33029  0.43292  Biso   1.000  C
  C123     1.0000 0.12588  0.26869  0.39442  Biso   1.000  C
  C124     1.0000 0.09983  0.23461  0.51381  Biso   1.000  C
  C125     1.0000 0.69008  0.02112  0.10321  Biso   1.000  C
  C126     1.0000 0.77301  0.66132  0.03532  Biso   1.000  C
  C127     1.0000 0.94448  0.70391  0.06680  Biso   1.000  C
  C128     1.0000 0.82888  0.75272  0.95629  Biso   1.000  C
  H124     1.0000 0.27173  0.91052  0.27020  Biso   1.000  H
  C129     1.0000 0.27450  0.00202  0.33009  Biso   1.000  C
  H125     1.0000 0.25557  0.08823  0.39228  Biso   1.000  H
  C130     1.0000 0.76882  0.06720  0.13677  Biso   1.000  C
  C131     1.0000 0.66272  0.13041  0.19430  Biso   1.000  C
  H126     1.0000 0.94698  0.32403  0.45842  Biso   1.000  H
  H127     1.0000 0.96297  0.34361  0.38268  Biso   1.000  H
  H128     1.0000 0.03903  0.36958  0.45578  Biso   1.000  H
  H129     1.0000 0.16136  0.22291  0.39579  Biso   1.000  H
  H130     1.0000 0.16969  0.30820  0.41762  Biso   1.000  H
  H131     1.0000 0.09408  0.28212  0.34440  Biso   1.000  H
  H132     1.0000 0.05241  0.22812  0.53958  Biso   1.000  H
  H133     1.0000 0.14499  0.27312  0.53728  Biso   1.000  H
  H134     1.0000 0.13361  0.18822  0.51419  Biso   1.000  H
  C132     1.0000 0.60071  0.02920  0.11281  Biso   1.000  C
  H135     1.0000 0.70663  0.67539  0.01360  Biso   1.000  H
  H136     1.0000 0.78273  0.64687  0.08550  Biso   1.000  H
  H137     1.0000 0.78849  0.61978  0.00872  Biso   1.000  H
  H138     1.0000 0.96057  0.66457  0.03800  Biso   1.000  H
  H139     1.0000 0.95339  0.68610  0.11582  Biso   1.000  H
  H140     1.0000 0.98593  0.74649  0.06789  Biso   1.000  H
  H141     1.0000 0.76314  0.76702  0.93233  Biso   1.000  H
  H142     1.0000 0.84711  0.71259  0.92947  Biso   1.000  H
  H143     1.0000 0.87077  0.79517  0.95799  Biso   1.000  H
  H144     1.0000 0.32893  0.02272  0.32071  Biso   1.000  H
  O18      1.0000 0.85211  0.05698  0.11818  Biso   1.000  O
  C133     1.0000 0.58367  0.08568  0.15920  Biso   1.000  C
  H145     1.0000 0.65522  0.16750  0.22649  Biso   1.000  H
  H146     1.0000 0.55062  0.99712  0.08851  Biso   1.000  H
  C134     1.0000 0.94282  0.04968  0.17439  Biso   1.000  C
  C135     1.0000 0.48598  0.09478  0.17533  Biso   1.000  C
  H147     1.0000 0.93486  0.01910  0.21437  Biso   1.000  H
  H148     1.0000 0.96688  0.09881  0.19348  Biso   1.000  H
  C136     1.0000 0.01207  0.01298  0.14028  Biso   1.000  C
  C137     1.0000 0.50522  0.08211  0.25759  Biso   1.000  C
  C138     1.0000 0.45080  0.17302  0.15712  Biso   1.000  C
  C139     1.0000 0.41107  0.04060  0.13480  Biso   1.000  C
  C140     1.0000 0.02329  0.93628  0.13782  Biso   1.000  C
  C141     1.0000 0.06653  0.05699  0.10672  Biso   1.000  C
  H149     1.0000 0.44579  0.08721  0.26998  Biso   1.000  H
  H150     1.0000 0.55122  0.11869  0.28430  Biso   1.000  H
  H151     1.0000 0.53078  0.03249  0.27031  Biso   1.000  H
  H152     1.0000 0.43843  0.18150  0.10551  Biso   1.000  H
  H153     1.0000 0.49921  0.20781  0.18399  Biso   1.000  H
  H154     1.0000 0.39221  0.18009  0.17023  Biso   1.000  H
  H155     1.0000 0.43409  0.99020  0.14670  Biso   1.000  H
  H156     1.0000 0.39782  0.04880  0.08308  Biso   1.000  H
  H157     1.0000 0.35291  0.04779  0.14851  Biso   1.000  H
  H158     1.0000 0.98786  0.90527  0.15970  Biso   1.000  H
  C142     1.0000 0.08530  0.90420  0.10409  Biso   1.000  C
  C143     1.0000 0.12800  0.02452  0.07250  Biso   1.000  C
  H159     1.0000 0.06133  0.10912  0.10732  Biso   1.000  H
  H160     1.0000 0.09198  0.85218  0.10283  Biso   1.000  H
  C144     1.0000 0.13761  0.95141  0.07190  Biso   1.000  C
  H161     1.0000 0.16301  0.05491  0.04958  Biso   1.000  H
  H162     1.0000 0.18052  0.93062  0.04941  Biso   1.000  H
  C145     1.0000 0.38679  0.20132  0.56662  Biso   1.000  C
  C146     1.0000 0.40999  0.12879  0.61389  Biso   1.000  C
  H163     1.0000 0.33698  0.19079  0.52181  Biso   1.000  H
  H164     1.0000 0.36491  0.23982  0.59333  Biso   1.000  H
  H165     1.0000 0.44403  0.21832  0.55560  Biso   1.000  H
  C147     1.0000 0.31641  0.10572  0.63150  Biso   1.000  C
  C148     1.0000 0.48998  0.14802  0.68420  Biso   1.000  C
  C149     1.0000 0.44589  0.06871  0.57260  Biso   1.000  C
  C150     1.0000 0.25767  0.04631  0.59651  Biso   1.000  C
  C151     1.0000 0.28310  0.14881  0.67981  Biso   1.000  C
  H166     1.0000 0.50602  0.10390  0.71453  Biso   1.000  H
  H167     1.0000 0.54628  0.16529  0.67202  Biso   1.000  H
  H168     1.0000 0.46793  0.18680  0.71030  Biso   1.000  H
  H169     1.0000 0.46059  0.02398  0.60199  Biso   1.000  H
  H170     1.0000 0.39663  0.05767  0.52763  Biso   1.000  H
  H171     1.0000 0.50311  0.08632  0.56190  Biso   1.000  H
  C152     1.0000 0.17299  0.03032  0.61219  Biso   1.000  C
  H172     1.0000 0.27609  0.01732  0.56240  Biso   1.000  H
  H173     1.0000 0.31982  0.18962  0.70328  Biso   1.000  H
  C153     1.0000 0.19739  0.13232  0.69358  Biso   1.000  C
  C154     1.0000 0.13910  0.07330  0.65919  Biso   1.000  C
  O19      1.0000 0.11371  0.97199  0.57188  Biso   1.000  O
  O20      1.0000 0.16392  0.18182  0.73838  Biso   1.000  O
  O21      1.0000 0.05378  0.05692  0.67378  Biso   1.000  O
  C155     1.0000 0.09851  0.91178  0.60890  Biso   1.000  C
  C156     1.0000 0.18749  0.16809  0.81099  Biso   1.000  C
  C157     1.0000 0.96817  0.08947  0.62310  Biso   1.000  C
  N19      1.0000 0.15028  0.90401  0.67921  Biso   1.000  N
  N20      1.0000 0.03451  0.86311  0.56898  Biso   1.000  N
  N21      1.0000 0.23032  0.10390  0.83660  Biso   1.000  N
  N22      1.0000 0.16161  0.22379  0.84801  Biso   1.000  N
  H174     1.0000 0.96981  0.14391  0.62810  Biso   1.000  H
  H175     1.0000 0.96539  0.07709  0.57309  Biso   1.000  H
  C158     1.0000 0.88311  0.05853  0.64082  Biso   1.000  C
  C159     1.0000 0.12811  0.84190  0.70882  Biso   1.000  C
  C160     1.0000 0.02028  0.80330  0.60561  Biso   1.000  C
  C161     1.0000 0.25019  0.09878  0.90883  Biso   1.000  C
  C162     1.0000 0.18653  0.21028  0.92122  Biso   1.000  C
  C163     1.0000 0.84830  0.98843  0.61230  Biso   1.000  C
  C164     1.0000 0.83579  0.09538  0.68168  Biso   1.000  C
  N23      1.0000 0.06612  0.78918  0.67641  Biso   1.000  N
  O22      1.0000 0.17269  0.83002  0.78061  Biso   1.000  O
  C165     1.0000 0.95019  0.74271  0.56459  Biso   1.000  C
  N24      1.0000 0.23051  0.14929  0.95402  Biso   1.000  N
  O23      1.0000 0.29542  0.03711  0.94272  Biso   1.000  O
  C166     1.0000 0.16229  0.27278  0.96773  Biso   1.000  C
  C167     1.0000 0.76868  0.95833  0.62678  Biso   1.000  C
  H176     1.0000 0.87911  0.96208  0.58351  Biso   1.000  H
  H177     1.0000 0.85682  0.14339  0.69868  Biso   1.000  H
  C168     1.0000 0.75754  0.06472  0.69911  Biso   1.000  C
  C169     1.0000 0.24860  0.87841  0.81702  Biso   1.000  C
  C170     1.0000 0.87408  0.73132  0.60561  Biso   1.000  C
  C171     1.0000 0.90020  0.76539  0.48622  Biso   1.000  C
  C172     1.0000 0.00537  0.66972  0.56711  Biso   1.000  C
  C173     1.0000 0.30988  0.97889  0.89682  Biso   1.000  C
  C174     1.0000 0.22701  0.33869  0.96471  Biso   1.000  C
  C175     1.0000 0.05552  0.29609  0.93318  Biso   1.000  C
  C176     1.0000 0.17106  0.24729  0.04368  Biso   1.000  C
  C177     1.0000 0.72551  0.99799  0.66988  Biso   1.000  C
  H178     1.0000 0.74436  0.91178  0.60769  Biso   1.000  H
  H179     1.0000 0.72830  0.08949  0.72983  Biso   1.000  H
  C178     1.0000 0.23119  0.93281  0.86320  Biso   1.000  C
  C179     1.0000 0.33730  0.86959  0.80573  Biso   1.000  C
  H180     1.0000 0.83858  0.77709  0.60418  Biso   1.000  H
  H181     1.0000 0.83034  0.69180  0.58241  Biso   1.000  H
  H182     1.0000 0.90588  0.71789  0.65563  Biso   1.000  H
  H183     1.0000 0.94760  0.77188  0.46039  Biso   1.000  H
  H184     1.0000 0.85502  0.72689  0.46269  Biso   1.000  H
  H185     1.0000 0.86640  0.81179  0.48578  Biso   1.000  H
  H186     1.0000 0.96098  0.63043  0.54419  Biso   1.000  H
  H187     1.0000 0.05298  0.67598  0.54161  Biso   1.000  H
  H188     1.0000 0.03696  0.65640  0.61729  Biso   1.000  H
  C180     1.0000 0.39932  0.97080  0.88722  Biso   1.000  C
  H189     1.0000 0.29337  0.32461  0.98637  Biso   1.000  H
  H190     1.0000 0.21728  0.35308  0.91448  Biso   1.000  H
  H191     1.0000 0.21147  0.38023  0.99131  Biso   1.000  H
  H192     1.0000 0.03939  0.33537  0.96202  Biso   1.000  H
  H193     1.0000 0.04657  0.31391  0.88420  Biso   1.000  H
  H194     1.0000 0.01408  0.25352  0.93208  Biso   1.000  H
  H195     1.0000 0.23689  0.23298  0.06770  Biso   1.000  H
  H196     1.0000 0.15290  0.28742  0.07050  Biso   1.000  H
  H197     1.0000 0.12917  0.20478  0.04198  Biso   1.000  H
  H198     1.0000 0.67110  0.97729  0.67932  Biso   1.000  H
  O24      1.0000 0.14789  0.94303  0.88179  Biso   1.000  O
  C181     1.0000 0.41629  0.91432  0.84082  Biso   1.000  C
  H199     1.0000 0.34479  0.83250  0.77348  Biso   1.000  H
  H200     1.0000 0.44941  0.00289  0.91151  Biso   1.000  H
  C182     1.0000 0.05718  0.95027  0.82558  Biso   1.000  C
  C183     1.0000 0.51398  0.90517  0.82470  Biso   1.000  C
  C184     1.0000 0.98787  0.98702  0.85969  Biso   1.000  C
  H201     1.0000 0.06507  0.98090  0.78560  Biso   1.000  H
  H202     1.0000 0.03313  0.90120  0.80649  Biso   1.000  H
  C185     1.0000 0.49478  0.91790  0.74238  Biso   1.000  C
  C186     1.0000 0.54922  0.82699  0.84291  Biso   1.000  C
  C187     1.0000 0.58887  0.95941  0.86517  Biso   1.000  C
  C188     1.0000 0.93350  0.94301  0.89331  Biso   1.000  C
  C189     1.0000 0.97667  0.06373  0.86221  Biso   1.000  C
  H203     1.0000 0.55422  0.91279  0.72999  Biso   1.000  H
  H204     1.0000 0.44879  0.88131  0.71568  Biso   1.000  H
  H205     1.0000 0.46918  0.96751  0.72972  Biso   1.000  H
  H206     1.0000 0.56160  0.81850  0.89451  Biso   1.000  H
  H207     1.0000 0.50080  0.79220  0.81598  Biso   1.000  H
  H208     1.0000 0.60782  0.81991  0.82980  Biso   1.000  H
  H209     1.0000 0.56592  0.00980  0.85327  Biso   1.000  H
  H210     1.0000 0.60219  0.95120  0.91689  Biso   1.000  H
  H211     1.0000 0.64711  0.95222  0.85152  Biso   1.000  H
  C190     1.0000 0.87201  0.97549  0.92747  Biso   1.000  C
  H212     1.0000 0.93870  0.89088  0.89270  Biso   1.000  H
  H213     1.0000 0.01207  0.09468  0.84028  Biso   1.000  H
  C191     1.0000 0.91471  0.09581  0.89588  Biso   1.000  C
  H214     1.0000 0.83699  0.94510  0.95040  Biso   1.000  H
  C192     1.0000 0.86240  0.04860  0.92808  Biso   1.000  C
  H215     1.0000 0.90798  0.14783  0.89720  Biso   1.000  H
  H216     1.0000 0.81951  0.06938  0.95062  Biso   1.000  H
