data_image0
_cell_length_a       13.849
_cell_length_b       24.297
_cell_length_c       7.644
_cell_angle_alpha    90
_cell_angle_beta     90
_cell_angle_gamma    90

_symmetry_space_group_name_H-M    "P 1"
_symmetry_int_tables_number       1

loop_
  _symmetry_equiv_pos_as_xyz
  'x, y, z'

loop_
  _atom_site_label
  _atom_site_occupancy
  _atom_site_fract_x
  _atom_site_fract_y
  _atom_site_fract_z
  _atom_site_thermal_displace_type
  _atom_site_B_iso_or_equiv
  _atom_site_type_symbol
  C1       1.0000 0.39577  0.42709  0.35754  Biso   1.000  C
  C2       1.0000 0.46480  0.39721  0.26557  Biso   1.000  C
  C3       1.0000 0.31908  0.45071  0.26714  Biso   1.000  C
  H1       1.0000 0.40090  0.43121  0.48077  Biso   1.000  H
  C4       1.0000 0.45382  0.38787  0.08726  Biso   1.000  C
  H2       1.0000 0.51968  0.38322  0.32496  Biso   1.000  H
  C5       1.0000 0.30739  0.44388  0.08765  Biso   1.000  C
  H3       1.0000 0.27330  0.47220  0.32967  Biso   1.000  H
  C6       1.0000 0.37223  0.40952  0.00105  Biso   1.000  C
  C7       1.0000 0.53383  0.35840  0.98339  Biso   1.000  C
  C8       1.0000 0.23410  0.47977  0.99058  Biso   1.000  C
  O1       1.0000 0.36349  0.39910  0.82261  Biso   1.000  O
  H4       1.0000 0.57383  0.33630  0.06450  Biso   1.000  H
  C9       1.0000 0.59629  0.39881  0.88959  Biso   1.000  C
  H5       1.0000 0.50408  0.33300  0.89744  Biso   1.000  H
  H6       1.0000 0.18882  0.49669  0.07509  Biso   1.000  H
  C10      1.0000 0.28890  0.52509  0.88998  Biso   1.000  C
  H7       1.0000 0.19640  0.45701  0.90790  Biso   1.000  H
  C11      1.0000 0.28038  0.36939  0.76897  Biso   1.000  C
  C12      1.0000 0.66279  0.43248  0.97527  Biso   1.000  C
  C13      1.0000 0.58611  0.40569  0.70748  Biso   1.000  C
  C14      1.0000 0.33721  0.56752  0.97527  Biso   1.000  C
  C15      1.0000 0.29749  0.52068  0.70945  Biso   1.000  C
  H8       1.0000 0.26471  0.37980  0.64704  Biso   1.000  H
  H9       1.0000 0.22529  0.38058  0.84341  Biso   1.000  H
  C16      1.0000 0.29121  0.30798  0.77865  Biso   1.000  C
  O2       1.0000 0.67232  0.42470  0.15515  Biso   1.000  O
  C17      1.0000 0.71110  0.47491  0.88998  Biso   1.000  C
  C18      1.0000 0.64098  0.44471  0.61512  Biso   1.000  C
  H10      1.0000 0.54098  0.38359  0.64574  Biso   1.000  H
  O3       1.0000 0.32768  0.57530  0.15515  Biso   1.000  O
  C19      1.0000 0.40371  0.60119  0.88959  Biso   1.000  C
  H11      1.0000 0.26081  0.49368  0.64887  Biso   1.000  H
  C20      1.0000 0.35902  0.55529  0.61512  Biso   1.000  C
  O4       1.0000 0.35432  0.28403  0.85165  Biso   1.000  O
  O5       1.0000 0.21879  0.28386  0.69545  Biso   1.000  O
  C21      1.0000 0.76663  0.40919  0.21599  Biso   1.000  C
  C22      1.0000 0.70251  0.47932  0.70945  Biso   1.000  C
  C23      1.0000 0.76590  0.52023  0.99058  Biso   1.000  C
  H12      1.0000 0.63629  0.44759  0.49150  Biso   1.000  H
  C24      1.0000 0.23337  0.59081  0.21599  Biso   1.000  C
  C25      1.0000 0.41389  0.59431  0.70748  Biso   1.000  C
  C26      1.0000 0.46617  0.64160  0.98339  Biso   1.000  C
  H13      1.0000 0.36371  0.55241  0.49150  Biso   1.000  H
  H14      1.0000 0.23200  0.24431  0.70814  Biso   1.000  H
  H15      1.0000 0.78923  0.43680  0.30167  Biso   1.000  H
  H16      1.0000 0.81190  0.40960  0.11578  Biso   1.000  H
  C27      1.0000 0.76930  0.35210  0.30154  Biso   1.000  C
  H17      1.0000 0.73919  0.50632  0.64887  Biso   1.000  H
  C28      1.0000 0.69261  0.55612  0.08765  Biso   1.000  C
  H18      1.0000 0.81118  0.50331  0.07509  Biso   1.000  H
  H19      1.0000 0.80360  0.54299  0.90790  Biso   1.000  H
  H20      1.0000 0.21077  0.56320  0.30167  Biso   1.000  H
  H21      1.0000 0.18810  0.59040  0.11578  Biso   1.000  H
  C29      1.0000 0.23070  0.64790  0.30154  Biso   1.000  C
  H22      1.0000 0.45902  0.61641  0.64574  Biso   1.000  H
  C30      1.0000 0.54618  0.61213  0.08726  Biso   1.000  C
  H23      1.0000 0.42617  0.66370  0.06450  Biso   1.000  H
  H24      1.0000 0.49592  0.66700  0.89744  Biso   1.000  H
  O6       1.0000 0.84403  0.34358  0.38932  Biso   1.000  O
  O7       1.0000 0.70287  0.31876  0.27355  Biso   1.000  O
  C31      1.0000 0.62777  0.59048  0.00105  Biso   1.000  C
  C32      1.0000 0.68092  0.54929  0.26714  Biso   1.000  C
  O8       1.0000 0.15597  0.65642  0.38932  Biso   1.000  O
  O9       1.0000 0.29713  0.68124  0.27355  Biso   1.000  O
  C33      1.0000 0.53520  0.60279  0.26557  Biso   1.000  C
  O10      1.0000 0.63651  0.60090  0.82261  Biso   1.000  O
  C34      1.0000 0.60423  0.57291  0.35754  Biso   1.000  C
  H25      1.0000 0.72670  0.52780  0.32967  Biso   1.000  H
  H26      1.0000 0.48032  0.61678  0.32496  Biso   1.000  H
  C35      1.0000 0.71962  0.63061  0.76897  Biso   1.000  C
  H27      1.0000 0.59910  0.56879  0.48077  Biso   1.000  H
  H28      1.0000 0.73529  0.62020  0.64704  Biso   1.000  H
  H29      1.0000 0.77471  0.61942  0.84341  Biso   1.000  H
  C36      1.0000 0.70879  0.69202  0.77865  Biso   1.000  C
  O11      1.0000 0.64568  0.71597  0.85165  Biso   1.000  O
  O12      1.0000 0.78121  0.71614  0.69545  Biso   1.000  O
  H30      1.0000 0.76800  0.75569  0.70814  Biso   1.000  H
  O13      1.0000 0.34400  0.15640  0.61068  Biso   1.000  O
  C37      1.0000 0.26933  0.14792  0.69846  Biso   1.000  C
  O14      1.0000 0.20290  0.18126  0.72645  Biso   1.000  O
  C38      1.0000 0.26659  0.09079  0.78401  Biso   1.000  C
  O15      1.0000 0.17229  0.07528  0.84485  Biso   1.000  O
  H31      1.0000 0.28919  0.06322  0.69833  Biso   1.000  H
  H32      1.0000 0.31194  0.09038  0.88422  Biso   1.000  H
  C39      1.0000 0.16283  0.06750  0.02473  Biso   1.000  C
  C40      1.0000 0.21113  0.02511  0.11002  Biso   1.000  C
  C41      1.0000 0.09632  0.10121  0.11041  Biso   1.000  C
  C42      1.0000 0.26587  0.97979  0.00942  Biso   1.000  C
  C43      1.0000 0.20247  0.02070  0.29055  Biso   1.000  C
  C44      1.0000 0.08607  0.09429  0.29252  Biso   1.000  C
  C45      1.0000 0.03379  0.14158  0.01661  Biso   1.000  C
  C46      1.0000 0.19258  0.94386  0.91235  Biso   1.000  C
  H33      1.0000 0.31121  0.99671  0.92491  Biso   1.000  H
  H34      1.0000 0.30363  0.95699  0.09210  Biso   1.000  H
  H35      1.0000 0.23922  0.99370  0.35113  Biso   1.000  H
  C47      1.0000 0.14102  0.05532  0.38488  Biso   1.000  C
  H36      1.0000 0.04101  0.11639  0.35426  Biso   1.000  H
  H37      1.0000 0.07380  0.16368  0.93550  Biso   1.000  H
  C48      1.0000 0.95379  0.11215  0.91274  Biso   1.000  C
  H38      1.0000 0.00412  0.16702  0.10256  Biso   1.000  H
  C49      1.0000 0.12781  0.90949  0.99895  Biso   1.000  C
  C50      1.0000 0.18088  0.95069  0.73286  Biso   1.000  C
  H39      1.0000 0.13633  0.05239  0.50850  Biso   1.000  H
  C51      1.0000 0.87219  0.09051  0.99895  Biso   1.000  C
  C52      1.0000 0.96484  0.10281  0.73443  Biso   1.000  C
  C53      1.0000 0.04621  0.88785  0.91274  Biso   1.000  C
  O16      1.0000 0.13647  0.89912  0.17739  Biso   1.000  O
  C54      1.0000 0.10420  0.92711  0.64246  Biso   1.000  C
  H40      1.0000 0.22673  0.97222  0.67033  Biso   1.000  H
  C55      1.0000 0.80742  0.05614  0.91235  Biso   1.000  C
  O17      1.0000 0.86353  0.10088  0.17739  Biso   1.000  O
  H41      1.0000 0.01971  0.11680  0.67504  Biso   1.000  H
  C56      1.0000 0.89580  0.07289  0.64246  Biso   1.000  C
  C57      1.0000 0.96621  0.85842  0.01661  Biso   1.000  C
  C58      1.0000 0.03516  0.89719  0.73443  Biso   1.000  C
  C59      1.0000 0.21958  0.86941  0.23103  Biso   1.000  C
  H42      1.0000 0.09907  0.93118  0.51923  Biso   1.000  H
  C60      1.0000 0.81912  0.04931  0.73286  Biso   1.000  C
  C61      1.0000 0.73413  0.02021  0.00942  Biso   1.000  C
  C62      1.0000 0.78042  0.13059  0.23103  Biso   1.000  C
  H43      1.0000 0.90093  0.06882  0.51923  Biso   1.000  H
  H44      1.0000 0.92620  0.83632  0.93550  Biso   1.000  H
  C63      1.0000 0.90368  0.89879  0.11041  Biso   1.000  C
  H45      1.0000 0.99588  0.83298  0.10256  Biso   1.000  H
  H46      1.0000 0.98029  0.88320  0.67504  Biso   1.000  H
  H47      1.0000 0.23532  0.87982  0.35296  Biso   1.000  H
  H48      1.0000 0.27468  0.88060  0.15659  Biso   1.000  H
  C64      1.0000 0.20882  0.80800  0.22135  Biso   1.000  C
  H49      1.0000 0.77327  0.02778  0.67033  Biso   1.000  H
  C65      1.0000 0.78887  0.97489  0.11002  Biso   1.000  C
  H50      1.0000 0.68879  0.00329  0.92491  Biso   1.000  H
  H51      1.0000 0.69637  0.04301  0.09210  Biso   1.000  H
  H52      1.0000 0.76468  0.12018  0.35296  Biso   1.000  H
  H53      1.0000 0.72532  0.11940  0.15659  Biso   1.000  H
  C66      1.0000 0.79118  0.19200  0.22135  Biso   1.000  C
  C67      1.0000 0.83717  0.93250  0.02473  Biso   1.000  C
  C68      1.0000 0.91393  0.90571  0.29252  Biso   1.000  C
  O18      1.0000 0.14571  0.78401  0.14835  Biso   1.000  O
  O19      1.0000 0.28118  0.78388  0.30455  Biso   1.000  O
  C69      1.0000 0.79753  0.97930  0.29055  Biso   1.000  C
  O20      1.0000 0.85429  0.21599  0.14835  Biso   1.000  O
  O21      1.0000 0.71882  0.21612  0.30455  Biso   1.000  O
  O22      1.0000 0.82771  0.92472  0.84485  Biso   1.000  O
  C70      1.0000 0.85898  0.94468  0.38488  Biso   1.000  C
  H54      1.0000 0.95899  0.88361  0.35426  Biso   1.000  H
  H55      1.0000 0.26803  0.74429  0.29186  Biso   1.000  H
  H56      1.0000 0.76078  0.00630  0.35113  Biso   1.000  H
  H57      1.0000 0.73197  0.25571  0.29186  Biso   1.000  H
  C71      1.0000 0.73341  0.90921  0.78401  Biso   1.000  C
  H58      1.0000 0.86367  0.94761  0.50850  Biso   1.000  H
  H59      1.0000 0.71081  0.93678  0.69833  Biso   1.000  H
  H60      1.0000 0.68806  0.90962  0.88422  Biso   1.000  H
  C72      1.0000 0.73067  0.85208  0.69846  Biso   1.000  C
  O23      1.0000 0.65600  0.84360  0.61068  Biso   1.000  O
  O24      1.0000 0.79710  0.81874  0.72645  Biso   1.000  O
