data_image0
_cell_length_a       10.806
_cell_length_b       12.481
_cell_length_c       18.168
_cell_angle_alpha    105.51
_cell_angle_beta     106.86
_cell_angle_gamma    95.06

_symmetry_space_group_name_H-M    "P 1"
_symmetry_int_tables_number       1

loop_
  _symmetry_equiv_pos_as_xyz
  'x, y, z'

loop_
  _atom_site_label
  _atom_site_occupancy
  _atom_site_fract_x
  _atom_site_fract_y
  _atom_site_fract_z
  _atom_site_thermal_displace_type
  _atom_site_B_iso_or_equiv
  _atom_site_type_symbol
  C1       1.0000 0.54883  0.34947  0.33248  Biso   1.000  C
  C2       1.0000 0.61495  0.36660  0.26998  Biso   1.000  C
  H1       1.0000 0.47414  0.28932  0.30613  Biso   1.000  H
  H2       1.0000 0.61075  0.33057  0.37478  Biso   1.000  H
  H3       1.0000 0.52064  0.41790  0.35508  Biso   1.000  H
  C3       1.0000 0.51863  0.39255  0.20271  Biso   1.000  C
  C4       1.0000 0.66167  0.25548  0.23432  Biso   1.000  C
  C5       1.0000 0.73655  0.46059  0.31011  Biso   1.000  C
  N1       1.0000 0.43566  0.46669  0.21541  Biso   1.000  N
  C6       1.0000 0.49098  0.35583  0.12142  Biso   1.000  C
  H4       1.0000 0.70337  0.26603  0.19600  Biso   1.000  H
  H5       1.0000 0.72315  0.23719  0.27711  Biso   1.000  H
  H6       1.0000 0.58733  0.19509  0.20761  Biso   1.000  H
  C7       1.0000 0.85678  0.46661  0.30093  Biso   1.000  C
  N2       1.0000 0.73720  0.56006  0.36487  Biso   1.000  N
  C8       1.0000 0.35573  0.47644  0.14433  Biso   1.000  C
  H7       1.0000 0.43380  0.50315  0.26243  Biso   1.000  H
  C9       1.0000 0.39026  0.40615  0.08522  Biso   1.000  C
  H8       1.0000 0.53272  0.30500  0.09410  Biso   1.000  H
  H9       1.0000 0.88396  0.41143  0.26648  Biso   1.000  H
  C10      1.0000 0.93279  0.57119  0.35278  Biso   1.000  C
  C11      1.0000 0.85808  0.62888  0.39249  Biso   1.000  C
  H10      1.0000 0.67116  0.57717  0.37998  Biso   1.000  H
  C12      1.0000 0.24586  0.54149  0.13980  Biso   1.000  C
  H11      1.0000 0.35289  0.39367  0.02998  Biso   1.000  H
  H12      1.0000 0.01968  0.59679  0.35901  Biso   1.000  H
  C13      1.0000 0.89234  0.73825  0.46000  Biso   1.000  C
  C14      1.0000 0.12844  0.46973  0.14838  Biso   1.000  C
  C15      1.0000 0.28627  0.65510  0.20368  Biso   1.000  C
  C16      1.0000 0.19594  0.55844  0.05573  Biso   1.000  C
  C17      1.0000 0.78457  0.80702  0.45009  Biso   1.000  C
  C18      1.0000 0.92065  0.71350  0.54202  Biso   1.000  C
  C19      1.0000 0.02069  0.81009  0.46321  Biso   1.000  C
  C20      1.0000 0.13932  0.42473  0.20761  Biso   1.000  C
  H13      1.0000 0.09212  0.40787  0.09840  Biso   1.000  H
  H14      1.0000 0.06191  0.51682  0.15031  Biso   1.000  H
  C21      1.0000 0.21296  0.72119  0.23861  Biso   1.000  C
  N3       1.0000 0.40957  0.71993  0.22913  Biso   1.000  N
  H15      1.0000 0.11678  0.59075  0.05192  Biso   1.000  H
  H16      1.0000 0.17129  0.48452  0.01529  Biso   1.000  H
  C22      1.0000 0.28863  0.63108  0.03421  Biso   1.000  C
  N4       1.0000 0.70979  0.81252  0.37624  Biso   1.000  N
  C23      1.0000 0.75041  0.88395  0.50612  Biso   1.000  C
  H17      1.0000 0.93541  0.78529  0.58348  Biso   1.000  H
  C24      1.0000 0.82367  0.63443  0.55381  Biso   1.000  C
  H18      1.0000 0.00265  0.68534  0.55229  Biso   1.000  H
  H19      1.0000 0.08971  0.76533  0.46931  Biso   1.000  H
  H20      1.0000 0.04667  0.87544  0.51120  Biso   1.000  H
  C25      1.0000 0.01361  0.85104  0.39231  Biso   1.000  C
  H21      1.0000 0.19000  0.47989  0.25808  Biso   1.000  H
  H22      1.0000 0.05353  0.40080  0.20900  Biso   1.000  H
  H23      1.0000 0.18250  0.36080  0.19848  Biso   1.000  H
  C26      1.0000 0.29042  0.82630  0.28479  Biso   1.000  C
  H24      1.0000 0.12515  0.69966  0.23269  Biso   1.000  H
  C27      1.0000 0.41410  0.82542  0.27863  Biso   1.000  C
  H25      1.0000 0.47497  0.69722  0.21559  Biso   1.000  H
  H26      1.0000 0.36955  0.60276  0.04019  Biso   1.000  H
  H27      1.0000 0.30576  0.70717  0.06938  Biso   1.000  H
  H28      1.0000 0.25001  0.63001  0.97915  Biso   1.000  H
  C28      1.0000 0.63148  0.89243  0.38512  Biso   1.000  C
  H29      1.0000 0.71187  0.77130  0.33048  Biso   1.000  H
  C29      1.0000 0.65707  0.93710  0.46641  Biso   1.000  C
  H30      1.0000 0.78393  0.89839  0.56178  Biso   1.000  H
  H31      1.0000 0.83294  0.55820  0.53048  Biso   1.000  H
  H32      1.0000 0.83859  0.64879  0.61062  Biso   1.000  H
  H33      1.0000 0.73661  0.64494  0.52812  Biso   1.000  H
  H34      1.0000 0.96009  0.90850  0.39201  Biso   1.000  H
  H35      1.0000 0.97562  0.78903  0.34330  Biso   1.000  H
  H36      1.0000 0.10045  0.88183  0.39582  Biso   1.000  H
  H37      1.0000 0.26314  0.88678  0.31471  Biso   1.000  H
  C30      1.0000 0.53511  0.91618  0.31519  Biso   1.000  C
  H38      1.0000 0.61847  0.99369  0.49101  Biso   1.000  H
  C31      1.0000 0.59720  0.93290  0.25191  Biso   1.000  C
  C32      1.0000 0.49328  0.03067  0.34801  Biso   1.000  C
  C33      1.0000 0.52060  0.91468  0.17340  Biso   1.000  C
  C34      1.0000 0.72793  0.97903  0.27409  Biso   1.000  C
  H39      1.0000 0.56988  0.08895  0.37412  Biso   1.000  H
  H40      1.0000 0.43484  0.04887  0.30389  Biso   1.000  H
  H41      1.0000 0.44952  0.02476  0.38609  Biso   1.000  H
  H42      1.0000 0.43150  0.88527  0.15738  Biso   1.000  H
  C35      1.0000 0.57295  0.93918  0.11737  Biso   1.000  C
  H43      1.0000 0.78178  0.99233  0.32710  Biso   1.000  H
  C36      1.0000 0.78054  0.00604  0.21921  Biso   1.000  C
  H44      1.0000 0.51928  0.92551  0.06443  Biso   1.000  H
  C37      1.0000 0.70470  0.98391  0.14022  Biso   1.000  C
  H45      1.0000 0.86853  0.03959  0.23608  Biso   1.000  H
  N5       1.0000 0.76214  0.01796  0.08770  Biso   1.000  N
  C38      1.0000 0.74294  0.95228  0.01668  Biso   1.000  C
  H46      1.0000 0.69192  0.88071  0.99988  Biso   1.000  H
  C39      1.0000 0.79969  0.98836  0.96138  Biso   1.000  C
  C40      1.0000 0.78340  0.91286  0.88680  Biso   1.000  C
  C41      1.0000 0.87138  0.09856  0.98459  Biso   1.000  C
  H47      1.0000 0.73598  0.84004  0.87157  Biso   1.000  H
  C42      1.0000 0.83861  0.94661  0.83470  Biso   1.000  C
  C43      1.0000 0.92337  0.12950  0.93007  Biso   1.000  C
  O1       1.0000 0.89165  0.17455  0.05603  Biso   1.000  O
  Cl1      1.0000 0.82310  0.85311  0.74253  Biso   1.000  Cl
  C44      1.0000 0.90773  0.05417  0.85700  Biso   1.000  C
  H48      1.0000 0.96932  0.20240  0.94379  Biso   1.000  H
  H49      1.0000 0.86883  0.14371  0.08570  Biso   1.000  H
  H50      1.0000 0.94432  0.07595  0.82158  Biso   1.000  H
  C45      1.0000 0.45126  0.65048  0.66749  Biso   1.000  C
  C46      1.0000 0.38514  0.63342  0.72999  Biso   1.000  C
  H51      1.0000 0.52599  0.71073  0.69390  Biso   1.000  H
  H52      1.0000 0.38934  0.66937  0.62518  Biso   1.000  H
  H53      1.0000 0.47945  0.58212  0.64489  Biso   1.000  H
  C47      1.0000 0.26357  0.53938  0.68992  Biso   1.000  C
  C48      1.0000 0.48150  0.60750  0.79732  Biso   1.000  C
  C49      1.0000 0.33845  0.74449  0.76571  Biso   1.000  C
  N6       1.0000 0.26298  0.43989  0.63510  Biso   1.000  N
  C50      1.0000 0.14335  0.53344  0.69910  Biso   1.000  C
  C51      1.0000 0.50915  0.64422  0.87861  Biso   1.000  C
  N7       1.0000 0.56446  0.53336  0.78462  Biso   1.000  N
  H54      1.0000 0.29675  0.73402  0.80402  Biso   1.000  H
  H55      1.0000 0.27697  0.76278  0.72292  Biso   1.000  H
  H56      1.0000 0.41279  0.80496  0.79242  Biso   1.000  H
  C52      1.0000 0.14200  0.37107  0.60748  Biso   1.000  C
  H57      1.0000 0.32892  0.42278  0.61999  Biso   1.000  H
  C53      1.0000 0.06731  0.42884  0.64718  Biso   1.000  C
  H58      1.0000 0.11613  0.58860  0.73349  Biso   1.000  H
  C54      1.0000 0.60987  0.59390  0.91481  Biso   1.000  C
  H59      1.0000 0.46740  0.69505  0.90593  Biso   1.000  H
  C55      1.0000 0.64440  0.52361  0.85570  Biso   1.000  C
  H60      1.0000 0.56632  0.49690  0.73760  Biso   1.000  H
  C56      1.0000 0.10788  0.26180  0.54003  Biso   1.000  C
  H61      1.0000 0.98053  0.40318  0.64102  Biso   1.000  H
  H62      1.0000 0.64720  0.60628  0.96999  Biso   1.000  H
  C57      1.0000 0.75424  0.45853  0.86017  Biso   1.000  C
  C58      1.0000 0.07956  0.28647  0.45801  Biso   1.000  C
  C59      1.0000 0.21552  0.19300  0.54988  Biso   1.000  C
  C60      1.0000 0.97943  0.18988  0.53682  Biso   1.000  C
  C61      1.0000 0.71383  0.34492  0.79629  Biso   1.000  C
  C62      1.0000 0.80418  0.44160  0.94430  Biso   1.000  C
  C63      1.0000 0.87165  0.53029  0.85159  Biso   1.000  C
  C64      1.0000 0.17646  0.36562  0.44622  Biso   1.000  C
  H63      1.0000 0.06469  0.21473  0.41649  Biso   1.000  H
  H64      1.0000 0.99744  0.31469  0.44767  Biso   1.000  H
  C65      1.0000 0.24971  0.11610  0.49391  Biso   1.000  C
  N8       1.0000 0.29031  0.18750  0.62373  Biso   1.000  N
  H65      1.0000 0.91050  0.23471  0.53072  Biso   1.000  H
  H66      1.0000 0.95342  0.12459  0.48877  Biso   1.000  H
  C66      1.0000 0.98661  0.14901  0.60772  Biso   1.000  C
  N9       1.0000 0.59055  0.28012  0.77090  Biso   1.000  N
  C67      1.0000 0.78716  0.27878  0.76142  Biso   1.000  C
  H67      1.0000 0.88335  0.40930  0.94811  Biso   1.000  H
  H68      1.0000 0.82890  0.51550  0.98468  Biso   1.000  H
  C68      1.0000 0.71149  0.36889  0.96582  Biso   1.000  C
  H69      1.0000 0.90796  0.59207  0.90157  Biso   1.000  H
  H70      1.0000 0.93822  0.48323  0.84972  Biso   1.000  H
  C69      1.0000 0.86080  0.57532  0.79242  Biso   1.000  C
  H71      1.0000 0.16716  0.44182  0.46949  Biso   1.000  H
  H72      1.0000 0.16153  0.35118  0.38941  Biso   1.000  H
  H73      1.0000 0.26352  0.35511  0.47191  Biso   1.000  H
  H74      1.0000 0.21625  0.10164  0.43819  Biso   1.000  H
  C70      1.0000 0.34306  0.06295  0.53362  Biso   1.000  C
  C71      1.0000 0.36865  0.10762  0.61491  Biso   1.000  C
  H75      1.0000 0.28822  0.22873  0.66949  Biso   1.000  H
  H76      1.0000 0.04004  0.09155  0.60802  Biso   1.000  H
  H77      1.0000 0.02448  0.21099  0.65667  Biso   1.000  H
  H78      1.0000 0.89968  0.11822  0.60421  Biso   1.000  H
  C72      1.0000 0.58602  0.17463  0.72140  Biso   1.000  C
  H79      1.0000 0.52513  0.30281  0.78438  Biso   1.000  H
  C73      1.0000 0.70977  0.17372  0.71518  Biso   1.000  C
  H80      1.0000 0.87494  0.30028  0.76728  Biso   1.000  H
  H81      1.0000 0.63054  0.39718  0.95978  Biso   1.000  H
  H82      1.0000 0.69432  0.29277  0.93058  Biso   1.000  H
  H83      1.0000 0.75008  0.37001  0.02082  Biso   1.000  H
  H84      1.0000 0.81009  0.52014  0.74189  Biso   1.000  H
  H85      1.0000 0.94659  0.59925  0.79103  Biso   1.000  H
  H86      1.0000 0.81760  0.63922  0.80149  Biso   1.000  H
  H87      1.0000 0.38165  0.00628  0.50902  Biso   1.000  H
  C74      1.0000 0.46498  0.08376  0.68478  Biso   1.000  C
  H88      1.0000 0.73698  0.11319  0.68532  Biso   1.000  H
  C75      1.0000 0.40293  0.06715  0.74812  Biso   1.000  C
  C76      1.0000 0.50685  0.96938  0.65202  Biso   1.000  C
  C77      1.0000 0.47952  0.08529  0.82663  Biso   1.000  C
  C78      1.0000 0.27216  0.02099  0.72588  Biso   1.000  C
  H89      1.0000 0.43024  0.91102  0.62591  Biso   1.000  H
  H90      1.0000 0.56534  0.95115  0.69608  Biso   1.000  H
  H91      1.0000 0.55058  0.97526  0.61388  Biso   1.000  H
  H92      1.0000 0.56858  0.11467  0.84259  Biso   1.000  H
  C79      1.0000 0.42714  0.06084  0.88260  Biso   1.000  C
  H93      1.0000 0.21831  0.00770  0.67287  Biso   1.000  H
  C80      1.0000 0.21957  0.99393  0.78082  Biso   1.000  C
  H94      1.0000 0.48085  0.07454  0.93560  Biso   1.000  H
  C81      1.0000 0.29543  0.01614  0.85981  Biso   1.000  C
  H95      1.0000 0.13156  0.96043  0.76389  Biso   1.000  H
  N10      1.0000 0.23805  0.98206  0.91227  Biso   1.000  N
  C82      1.0000 0.25725  0.04774  0.98329  Biso   1.000  C
  H96      1.0000 0.30821  0.11934  0.00015  Biso   1.000  H
  C83      1.0000 0.20043  0.01169  0.03865  Biso   1.000  C
  C84      1.0000 0.12874  0.90141  0.01544  Biso   1.000  C
  C85      1.0000 0.21673  0.08718  0.11323  Biso   1.000  C
  O2       1.0000 0.10847  0.82542  0.94400  Biso   1.000  O
  C86      1.0000 0.07676  0.87055  0.06996  Biso   1.000  C
  H97      1.0000 0.26412  0.15998  0.12840  Biso   1.000  H
  C87      1.0000 0.16152  0.05343  0.16533  Biso   1.000  C
  H98      1.0000 0.13129  0.85634  0.91433  Biso   1.000  H
  C88      1.0000 0.09248  0.94580  0.14303  Biso   1.000  C
  H99      1.0000 0.03081  0.79765  0.05624  Biso   1.000  H
  Cl2      1.0000 0.17712  0.14694  0.25750  Biso   1.000  Cl
  H100     1.0000 0.05589  0.92402  0.17845  Biso   1.000  H
