data_image0
_cell_length_a       14.154
_cell_length_b       16.335
_cell_length_c       21.582
_cell_angle_alpha    85.45
_cell_angle_beta     82.56
_cell_angle_gamma    71.46

_symmetry_space_group_name_H-M    "P 1"
_symmetry_int_tables_number       1

loop_
  _symmetry_equiv_pos_as_xyz
  'x, y, z'

loop_
  _atom_site_label
  _atom_site_occupancy
  _atom_site_fract_x
  _atom_site_fract_y
  _atom_site_fract_z
  _atom_site_thermal_displace_type
  _atom_site_B_iso_or_equiv
  _atom_site_type_symbol
  O1       1.0000 0.49859  0.56523  0.42731  Biso   1.000  O
  C1       1.0000 0.52029  0.54856  0.36413  Biso   1.000  C
  C2       1.0000 0.42739  0.64851  0.44134  Biso   1.000  C
  C3       1.0000 0.46892  0.50235  0.33840  Biso   1.000  C
  C4       1.0000 0.59642  0.57544  0.32938  Biso   1.000  C
  C5       1.0000 0.35428  0.63745  0.49582  Biso   1.000  C
  H1       1.0000 0.38778  0.67623  0.40079  Biso   1.000  H
  H2       1.0000 0.46630  0.69222  0.45289  Biso   1.000  H
  C6       1.0000 0.38410  0.47815  0.37965  Biso   1.000  C
  C7       1.0000 0.49663  0.48160  0.27564  Biso   1.000  C
  C8       1.0000 0.62252  0.55219  0.26723  Biso   1.000  C
  C9       1.0000 0.64913  0.62344  0.36001  Biso   1.000  C
  O2       1.0000 0.29222  0.58713  0.48357  Biso   1.000  O
  H3       1.0000 0.39597  0.60652  0.53501  Biso   1.000  H
  H4       1.0000 0.30599  0.70116  0.50999  Biso   1.000  H
  C10      1.0000 0.37401  0.39133  0.36417  Biso   1.000  C
  H5       1.0000 0.40343  0.47095  0.42750  Biso   1.000  H
  C11      1.0000 0.28521  0.55148  0.37886  Biso   1.000  C
  C12      1.0000 0.57453  0.50507  0.23931  Biso   1.000  C
  H6       1.0000 0.45712  0.44623  0.25451  Biso   1.000  H
  O3       1.0000 0.70573  0.56936  0.23397  Biso   1.000  O
  C13      1.0000 0.71091  0.58057  0.40589  Biso   1.000  C
  C14      1.0000 0.63825  0.71075  0.34481  Biso   1.000  C
  C15      1.0000 0.24499  0.60463  0.42937  Biso   1.000  C
  C16      1.0000 0.46613  0.31428  0.37610  Biso   1.000  C
  H7       1.0000 0.30847  0.38168  0.39237  Biso   1.000  H
  H8       1.0000 0.36161  0.39389  0.31521  Biso   1.000  H
  C17      1.0000 0.23006  0.56379  0.32756  Biso   1.000  C
  C18      1.0000 0.60921  0.47936  0.17159  Biso   1.000  C
  C19      1.0000 0.68559  0.64686  0.19441  Biso   1.000  C
  H9       1.0000 0.71685  0.51441  0.42039  Biso   1.000  H
  C20      1.0000 0.76447  0.62427  0.43269  Biso   1.000  C
  C21      1.0000 0.69161  0.75162  0.37362  Biso   1.000  C
  H10      1.0000 0.58857  0.74577  0.31091  Biso   1.000  H
  C22      1.0000 0.15036  0.66847  0.42965  Biso   1.000  C
  C23      1.0000 0.44451  0.22793  0.36838  Biso   1.000  C
  H11      1.0000 0.48509  0.31584  0.42319  Biso   1.000  H
  H12      1.0000 0.52990  0.31826  0.34308  Biso   1.000  H
  H13      1.0000 0.53200  0.33013  0.35370  Biso   1.000  H
  H14      1.0000 0.47148  0.30837  0.42619  Biso   1.000  H
  C24      1.0000 0.47275  0.23063  0.35599  Biso   1.000  C
  H15      1.0000 0.26200  0.52478  0.28729  Biso   1.000  H
  C25      1.0000 0.13459  0.62518  0.32667  Biso   1.000  C
  C26      1.0000 0.55699  0.55068  0.12599  Biso   1.000  C
  H16      1.0000 0.68880  0.47296  0.16359  Biso   1.000  H
  C27      1.0000 0.59950  0.39116  0.15779  Biso   1.000  C
  C28      1.0000 0.74458  0.62881  0.13067  Biso   1.000  C
  H17      1.0000 0.70599  0.69615  0.21602  Biso   1.000  H
  H18      1.0000 0.60583  0.67156  0.18931  Biso   1.000  H
  I1       1.0000 0.86700  0.55365  0.49447  Biso   1.000  I
  C29      1.0000 0.75651  0.70953  0.41725  Biso   1.000  C
  I2       1.0000 0.67162  0.88361  0.35155  Biso   1.000  I
  C30      1.0000 0.09630  0.67543  0.37816  Biso   1.000  C
  C31      1.0000 0.10288  0.72493  0.48329  Biso   1.000  C
  H19      1.0000 0.42370  0.22577  0.32180  Biso   1.000  H
  H20      1.0000 0.38405  0.22083  0.40299  Biso   1.000  H
  C32      1.0000 0.55061  0.15133  0.37919  Biso   1.000  C
  H21      1.0000 0.39719  0.22697  0.36941  Biso   1.000  H
  C33      1.0000 0.53329  0.14555  0.36600  Biso   1.000  C
  H22      1.0000 0.47929  0.23897  0.30520  Biso   1.000  H
  C34      1.0000 0.07582  0.63678  0.27069  Biso   1.000  C
  C35      1.0000 0.60928  0.59949  0.08820  Biso   1.000  C
  C36      1.0000 0.45689  0.56507  0.11818  Biso   1.000  C
  H23      1.0000 0.52260  0.39130  0.17131  Biso   1.000  H
  H24      1.0000 0.61699  0.38079  0.10780  Biso   1.000  H
  C37      1.0000 0.67074  0.31786  0.19376  Biso   1.000  C
  O4       1.0000 0.71144  0.57924  0.09115  Biso   1.000  O
  H25      1.0000 0.74226  0.69035  0.10639  Biso   1.000  H
  H26      1.0000 0.82268  0.59461  0.13721  Biso   1.000  H
  H27      1.0000 0.79899  0.74224  0.43830  Biso   1.000  H
  O5       1.0000 0.99899  0.73201  0.38012  Biso   1.000  O
  C38      1.0000 0.01993  0.71221  0.52019  Biso   1.000  C
  C39      1.0000 0.13341  0.79666  0.49269  Biso   1.000  C
  H28      1.0000 0.55343  0.09333  0.35641  Biso   1.000  H
  H29      1.0000 0.61348  0.17248  0.35781  Biso   1.000  H
  C40      1.0000 0.56010  0.13104  0.44611  Biso   1.000  C
  C41      1.0000 0.60152  0.13828  0.41608  Biso   1.000  C
  H30      1.0000 0.57883  0.12229  0.32241  Biso   1.000  H
  H31      1.0000 0.48588  0.10468  0.37970  Biso   1.000  H
  H32      1.0000 0.00089  0.67996  0.28472  Biso   1.000  H
  C42      1.0000 0.12123  0.68288  0.21658  Biso   1.000  C
  C43      1.0000 0.06196  0.55269  0.25133  Biso   1.000  C
  C44      1.0000 0.56212  0.66092  0.04401  Biso   1.000  C
  C45      1.0000 0.40739  0.62468  0.07413  Biso   1.000  C
  H33      1.0000 0.41582  0.52849  0.14760  Biso   1.000  H
  H34      1.0000 0.74734  0.31755  0.17851  Biso   1.000  H
  H35      1.0000 0.65549  0.33180  0.24328  Biso   1.000  H
  C46      1.0000 0.66444  0.22806  0.18641  Biso   1.000  C
  C47      1.0000 0.98772  0.82255  0.36946  Biso   1.000  C
  H36      1.0000 0.99593  0.65730  0.51369  Biso   1.000  H
  C48      1.0000 0.96862  0.77103  0.56518  Biso   1.000  C
  C49      1.0000 0.08209  0.85250  0.53899  Biso   1.000  C
  H37      1.0000 0.19681  0.80771  0.46379  Biso   1.000  H
  H38      1.0000 0.57873  0.18214  0.46650  Biso   1.000  H
  H39      1.0000 0.62029  0.07066  0.45210  Biso   1.000  H
  C50      1.0000 0.46158  0.12266  0.47941  Biso   1.000  C
  H40      1.0000 0.62640  0.19527  0.41319  Biso   1.000  H
  H41      1.0000 0.66754  0.08168  0.40879  Biso   1.000  H
  C51      1.0000 0.54402  0.13016  0.48268  Biso   1.000  C
  C52      1.0000 0.09131  0.77326  0.21340  Biso   1.000  C
  C53      1.0000 0.18933  0.63875  0.16873  Biso   1.000  C
  H42      1.0000 0.03229  0.56407  0.20620  Biso   1.000  H
  H43      1.0000 0.13477  0.50289  0.24599  Biso   1.000  H
  C54      1.0000 0.99163  0.52058  0.29898  Biso   1.000  C
  C55      1.0000 0.46064  0.67339  0.03811  Biso   1.000  C
  C56      1.0000 0.61788  0.70495  0.99570  Biso   1.000  C
  C57      1.0000 0.30042  0.63411  0.06379  Biso   1.000  C
  H44      1.0000 0.67821  0.21320  0.13712  Biso   1.000  H
  H45      1.0000 0.58963  0.22565  0.20409  Biso   1.000  H
  C58      1.0000 0.74295  0.16138  0.22298  Biso   1.000  C
  H46      1.0000 0.00859  0.84591  0.41000  Biso   1.000  H
  C59      1.0000 0.04982  0.84276  0.31189  Biso   1.000  C
  H47      1.0000 0.90902  0.85765  0.36539  Biso   1.000  H
  I3       1.0000 0.83885  0.75414  0.61653  Biso   1.000  I
  C60      1.0000 0.99772  0.84210  0.57589  Biso   1.000  C
  I4       1.0000 0.12646  0.95986  0.55199  Biso   1.000  I
  H48      1.0000 0.43544  0.08132  0.45317  Biso   1.000  H
  H49      1.0000 0.40572  0.18634  0.48259  Biso   1.000  H
  H50      1.0000 0.47331  0.09413  0.52631  Biso   1.000  H
  H51      1.0000 0.46579  0.17023  0.48310  Biso   1.000  H
  H52      1.0000 0.57859  0.15163  0.51780  Biso   1.000  H
  H53      1.0000 0.54718  0.06293  0.49320  Biso   1.000  H
  O6       1.0000 0.01760  0.81949  0.25708  Biso   1.000  O
  C61      1.0000 0.12767  0.81897  0.16289  Biso   1.000  C
  H54      1.0000 0.21401  0.56900  0.17121  Biso   1.000  H
  C62      1.0000 0.22713  0.68167  0.11724  Biso   1.000  C
  H55      1.0000 0.02472  0.50378  0.34299  Biso   1.000  H
  H56      1.0000 0.92122  0.57253  0.30749  Biso   1.000  H
  C63      1.0000 0.97004  0.44215  0.27789  Biso   1.000  C
  O7       1.0000 0.41449  0.73128  0.99252  Biso   1.000  O
  C64      1.0000 0.65601  0.77019  0.00912  Biso   1.000  C
  C65      1.0000 0.62555  0.68193  0.93420  Biso   1.000  C
  H57      1.0000 0.28421  0.67408  0.02119  Biso   1.000  H
  C66      1.0000 0.28991  0.54506  0.05247  Biso   1.000  C
  H58      1.0000 0.81671  0.16625  0.20531  Biso   1.000  H
  H59      1.0000 0.72843  0.17846  0.27190  Biso   1.000  H
  C67      1.0000 0.74609  0.06830  0.22008  Biso   1.000  C
  H60      1.0000 0.04168  0.91145  0.30880  Biso   1.000  H
  H61      1.0000 0.12858  0.80684  0.31469  Biso   1.000  H
  H62      1.0000 0.95671  0.88725  0.61129  Biso   1.000  H
  C68      1.0000 0.19560  0.77138  0.11556  Biso   1.000  C
  C69      1.0000 0.09211  0.91475  0.15891  Biso   1.000  C
  H63      1.0000 0.03932  0.38813  0.27391  Biso   1.000  H
  H64      1.0000 0.94394  0.45688  0.23168  Biso   1.000  H
  C70      1.0000 0.89205  0.41543  0.32246  Biso   1.000  C
  C71      1.0000 0.38413  0.82121  0.00884  Biso   1.000  C
  H65      1.0000 0.64871  0.79000  0.05649  Biso   1.000  H
  C72      1.0000 0.70363  0.80888  0.96044  Biso   1.000  C
  H66      1.0000 0.59464  0.63287  0.92354  Biso   1.000  H
  C73      1.0000 0.67254  0.72165  0.88682  Biso   1.000  C
  H67      1.0000 0.34590  0.51582  0.01431  Biso   1.000  H
  H68      1.0000 0.30741  0.50359  0.09419  Biso   1.000  H
  C74      1.0000 0.18828  0.54638  0.03695  Biso   1.000  C
  H69      1.0000 0.76169  0.04939  0.17159  Biso   1.000  H
  H70      1.0000 0.67353  0.06158  0.23870  Biso   1.000  H
  C75      1.0000 0.82821  0.00875  0.25839  Biso   1.000  C
  O8       1.0000 0.22748  0.81611  0.06421  Biso   1.000  O
  C76      1.0000 0.02470  0.95800  0.11650  Biso   1.000  C
  C77      1.0000 0.12642  0.96243  0.19637  Biso   1.000  C
  H71      1.0000 0.82264  0.46943  0.32568  Biso   1.000  H
  H72      1.0000 0.91765  0.40276  0.36880  Biso   1.000  H
  C78      1.0000 0.86932  0.33626  0.30417  Biso   1.000  C
  C79      1.0000 0.31667  0.83860  0.06945  Biso   1.000  C
  H73      1.0000 0.45083  0.83941  0.01258  Biso   1.000  H
  H74      1.0000 0.34526  0.86134  0.97152  Biso   1.000  H
  I5       1.0000 0.76558  0.90410  0.97928  Biso   1.000  I
  C80      1.0000 0.71287  0.78606  0.89884  Biso   1.000  C
  I6       1.0000 0.68755  0.68140  0.79502  Biso   1.000  I
  H75      1.0000 0.13316  0.56781  0.07731  Biso   1.000  H
  H76      1.0000 0.19122  0.48090  0.02778  Biso   1.000  H
  C81      1.0000 0.15411  0.60547  0.98031  Biso   1.000  C
  H77      1.0000 0.90086  0.01524  0.23940  Biso   1.000  H
  H78      1.0000 0.81172  0.02714  0.30698  Biso   1.000  H
  H79      1.0000 0.82989  0.94200  0.25581  Biso   1.000  H
  H80      1.0000 0.99922  0.92167  0.08619  Biso   1.000  H
  C82      1.0000 0.99053  0.04736  0.11308  Biso   1.000  C
  H81      1.0000 0.18068  0.93004  0.22832  Biso   1.000  H
  C83      1.0000 0.08990  0.05268  0.19216  Biso   1.000  C
  H82      1.0000 0.93680  0.28058  0.30459  Biso   1.000  H
  H83      1.0000 0.84803  0.34667  0.25670  Biso   1.000  H
  C84      1.0000 0.78514  0.31719  0.34841  Biso   1.000  C
  H84      1.0000 0.35562  0.80031  0.10761  Biso   1.000  H
  H85      1.0000 0.29653  0.90667  0.07969  Biso   1.000  H
  H86      1.0000 0.74967  0.81675  0.86152  Biso   1.000  H
  H87      1.0000 0.21486  0.59289  0.94220  Biso   1.000  H
  H88      1.0000 0.13545  0.67265  0.99252  Biso   1.000  H
  C85      1.0000 0.06213  0.58975  0.95903  Biso   1.000  C
  I7       1.0000 0.89197  0.11060  0.04709  Biso   1.000  I
  C86      1.0000 0.02263  0.09579  0.15106  Biso   1.000  C
  I8       1.0000 0.13810  0.12395  0.25104  Biso   1.000  I
  H89      1.0000 0.77199  0.25969  0.33401  Biso   1.000  H
  H90      1.0000 0.71690  0.37195  0.34710  Biso   1.000  H
  H91      1.0000 0.80634  0.30626  0.39588  Biso   1.000  H
  H92      1.0000 0.08116  0.52205  0.94800  Biso   1.000  H
  H93      1.0000 0.00174  0.60277  0.99733  Biso   1.000  H
  C87      1.0000 0.02535  0.64608  0.90212  Biso   1.000  C
  H94      1.0000 0.99520  0.16549  0.14830  Biso   1.000  H
  C88      1.0000 0.93549  0.62595  0.88224  Biso   1.000  C
  H95      1.0000 0.08564  0.63428  0.86381  Biso   1.000  H
  H96      1.0000 0.00376  0.71397  0.91320  Biso   1.000  H
  H97      1.0000 0.91206  0.66454  0.84010  Biso   1.000  H
  H98      1.0000 0.87373  0.64148  0.91961  Biso   1.000  H
  H99      1.0000 0.95666  0.55759  0.87270  Biso   1.000  H
  O9       1.0000 0.50142  0.43465  0.57266  Biso   1.000  O
  C89      1.0000 0.47972  0.45132  0.63584  Biso   1.000  C
  C90      1.0000 0.57264  0.35131  0.55863  Biso   1.000  C
  C91      1.0000 0.40359  0.42445  0.67059  Biso   1.000  C
  C92      1.0000 0.53109  0.49753  0.66156  Biso   1.000  C
  H100     1.0000 0.61223  0.32366  0.59918  Biso   1.000  H
  H101     1.0000 0.53371  0.30766  0.54708  Biso   1.000  H
  C93      1.0000 0.64573  0.36243  0.50415  Biso   1.000  C
  C94      1.0000 0.35088  0.37645  0.63996  Biso   1.000  C
  C95      1.0000 0.37749  0.44770  0.73274  Biso   1.000  C
  C96      1.0000 0.50338  0.51829  0.72432  Biso   1.000  C
  C97      1.0000 0.61591  0.52173  0.62032  Biso   1.000  C
  O10      1.0000 0.70778  0.41275  0.51645  Biso   1.000  O
  H102     1.0000 0.60403  0.39336  0.46500  Biso   1.000  H
  H103     1.0000 0.69402  0.29872  0.48998  Biso   1.000  H
  C98      1.0000 0.28910  0.41931  0.59408  Biso   1.000  C
  C99      1.0000 0.36183  0.28914  0.65516  Biso   1.000  C
  O11      1.0000 0.29428  0.43053  0.76599  Biso   1.000  O
  C100     1.0000 0.42547  0.49481  0.76071  Biso   1.000  C
  H104     1.0000 0.54291  0.55358  0.74551  Biso   1.000  H
  H105     1.0000 0.59664  0.52894  0.57247  Biso   1.000  H
  C101     1.0000 0.71480  0.44840  0.62111  Biso   1.000  C
  C102     1.0000 0.62600  0.60855  0.63580  Biso   1.000  C
  C103     1.0000 0.75500  0.39525  0.57065  Biso   1.000  C
  C104     1.0000 0.23553  0.37562  0.56728  Biso   1.000  C
  H106     1.0000 0.28318  0.48541  0.57958  Biso   1.000  H
  C105     1.0000 0.30842  0.24820  0.62635  Biso   1.000  C
  H107     1.0000 0.41143  0.25411  0.68911  Biso   1.000  H
  C106     1.0000 0.31440  0.35302  0.80561  Biso   1.000  C
  C107     1.0000 0.39080  0.52052  0.82838  Biso   1.000  C
  C108     1.0000 0.76994  0.43610  0.67246  Biso   1.000  C
  H108     1.0000 0.69154  0.61820  0.60759  Biso   1.000  H
  H109     1.0000 0.63839  0.60600  0.68481  Biso   1.000  H
  C109     1.0000 0.53395  0.68560  0.62387  Biso   1.000  C
  C110     1.0000 0.84964  0.33141  0.57032  Biso   1.000  C
  I9       1.0000 0.13301  0.44623  0.50550  Biso   1.000  I
  C111     1.0000 0.24349  0.29036  0.58271  Biso   1.000  C
  I10      1.0000 0.32841  0.11621  0.64842  Biso   1.000  I
  C112     1.0000 0.25542  0.37108  0.86930  Biso   1.000  C
  H110     1.0000 0.29401  0.30374  0.78400  Biso   1.000  H
  H111     1.0000 0.39417  0.32833  0.81070  Biso   1.000  H
  C113     1.0000 0.44301  0.44920  0.87398  Biso   1.000  C
  H112     1.0000 0.31121  0.52692  0.83638  Biso   1.000  H
  C114     1.0000 0.40050  0.60873  0.84218  Biso   1.000  C
  H113     1.0000 0.73800  0.47510  0.71268  Biso   1.000  H
  C115     1.0000 0.86542  0.37471  0.67330  Biso   1.000  C
  H114     1.0000 0.51492  0.68405  0.57678  Biso   1.000  H
  H115     1.0000 0.47011  0.68162  0.65689  Biso   1.000  H
  C116     1.0000 0.55552  0.77189  0.63159  Biso   1.000  C
  H116     1.0000 0.46803  0.66969  0.64627  Biso   1.000  H
  H117     1.0000 0.52853  0.69151  0.57378  Biso   1.000  H
  C117     1.0000 0.52735  0.76919  0.64398  Biso   1.000  C
  C118     1.0000 0.90370  0.32445  0.62186  Biso   1.000  C
  C119     1.0000 0.89713  0.27495  0.51668  Biso   1.000  C
  H118     1.0000 0.20102  0.25764  0.56167  Biso   1.000  H
  O12      1.0000 0.28857  0.42064  0.90882  Biso   1.000  O
  H119     1.0000 0.25784  0.30947  0.89357  Biso   1.000  H
  H120     1.0000 0.17732  0.40528  0.86280  Biso   1.000  H
  C120     1.0000 0.39072  0.40040  0.91177  Biso   1.000  C
  C121     1.0000 0.54312  0.43482  0.88179  Biso   1.000  C
  H121     1.0000 0.47740  0.60858  0.82871  Biso   1.000  H
  H122     1.0000 0.38301  0.61910  0.89217  Biso   1.000  H
  C122     1.0000 0.32926  0.68203  0.80626  Biso   1.000  C
  C123     1.0000 0.92419  0.36311  0.72928  Biso   1.000  C
  H123     1.0000 0.57630  0.77412  0.67821  Biso   1.000  H
  H124     1.0000 0.61605  0.77899  0.59698  Biso   1.000  H
  C124     1.0000 0.44942  0.84849  0.62078  Biso   1.000  C
  H125     1.0000 0.60281  0.77291  0.63060  Biso   1.000  H
  C125     1.0000 0.46671  0.85434  0.63397  Biso   1.000  C
  H126     1.0000 0.52071  0.76092  0.69477  Biso   1.000  H
  O13      1.0000 0.00102  0.26787  0.61985  Biso   1.000  O
  C126     1.0000 0.98014  0.28767  0.47983  Biso   1.000  C
  C127     1.0000 0.86660  0.20322  0.50728  Biso   1.000  C
  C128     1.0000 0.43789  0.33897  0.95596  Biso   1.000  C
  C129     1.0000 0.59261  0.37520  0.92584  Biso   1.000  C
  H127     1.0000 0.58418  0.47140  0.85237  Biso   1.000  H
  H128     1.0000 0.25269  0.68227  0.82151  Biso   1.000  H
  H129     1.0000 0.34452  0.66808  0.75669  Biso   1.000  H
  C130     1.0000 0.33557  0.77182  0.81356  Biso   1.000  C
  H130     1.0000 0.99911  0.31992  0.71530  Biso   1.000  H
  C131     1.0000 0.87885  0.31701  0.78339  Biso   1.000  C
  C132     1.0000 0.93805  0.44719  0.74864  Biso   1.000  C
  H131     1.0000 0.44659  0.90649  0.64361  Biso   1.000  H
  H132     1.0000 0.38652  0.82740  0.64220  Biso   1.000  H
  C133     1.0000 0.43990  0.86884  0.55391  Biso   1.000  C
  C134     1.0000 0.39848  0.86160  0.58388  Biso   1.000  C
  H133     1.0000 0.42124  0.87759  0.67760  Biso   1.000  H
  H134     1.0000 0.51412  0.89520  0.62027  Biso   1.000  H
  C135     1.0000 0.01229  0.17733  0.63051  Biso   1.000  C
  H135     1.0000 0.00410  0.34252  0.48628  Biso   1.000  H
  C136     1.0000 0.03139  0.22886  0.43479  Biso   1.000  C
  C137     1.0000 0.91794  0.14732  0.46098  Biso   1.000  C
  H136     1.0000 0.80322  0.19211  0.53618  Biso   1.000  H
  C138     1.0000 0.53943  0.32650  0.96190  Biso   1.000  C
  C139     1.0000 0.38219  0.29493  0.00427  Biso   1.000  C
  C140     1.0000 0.69958  0.36578  0.93618  Biso   1.000  C
  H137     1.0000 0.32178  0.78668  0.86290  Biso   1.000  H
  H138     1.0000 0.41038  0.77423  0.79588  Biso   1.000  H
  C141     1.0000 0.25713  0.83851  0.77698  Biso   1.000  C
  C142     1.0000 0.90870  0.22663  0.78657  Biso   1.000  C
  C143     1.0000 0.81070  0.36107  0.83123  Biso   1.000  C
  H139     1.0000 0.96772  0.43581  0.79377  Biso   1.000  H
  H140     1.0000 0.86524  0.49700  0.75398  Biso   1.000  H
  C144     1.0000 0.00837  0.47931  0.70099  Biso   1.000  C
  H141     1.0000 0.42128  0.81775  0.53347  Biso   1.000  H
  H142     1.0000 0.37972  0.92923  0.54787  Biso   1.000  H
  C145     1.0000 0.53842  0.87723  0.52061  Biso   1.000  C
  H143     1.0000 0.37360  0.80462  0.58678  Biso   1.000  H
  H144     1.0000 0.33254  0.91821  0.59118  Biso   1.000  H
  C146     1.0000 0.45599  0.86973  0.51729  Biso   1.000  C
  H145     1.0000 0.99144  0.15390  0.59001  Biso   1.000  H
  C147     1.0000 0.95018  0.15712  0.68813  Biso   1.000  C
  H146     1.0000 0.09099  0.14223  0.63458  Biso   1.000  H
  I11      1.0000 0.16116  0.24575  0.38344  Biso   1.000  I
  C148     1.0000 0.00231  0.15772  0.42408  Biso   1.000  C
  I12      1.0000 0.87357  0.03996  0.44798  Biso   1.000  I
  O14      1.0000 0.58551  0.26860  0.00750  Biso   1.000  O
  C149     1.0000 0.34399  0.22970  0.99090  Biso   1.000  C
  C150     1.0000 0.37448  0.31789  0.06577  Biso   1.000  C
  C151     1.0000 0.77287  0.31821  0.88277  Biso   1.000  C
  H147     1.0000 0.71580  0.32581  0.97878  Biso   1.000  H
  C152     1.0000 0.71011  0.45476  0.94754  Biso   1.000  C
  H148     1.0000 0.18331  0.83357  0.79471  Biso   1.000  H
  H149     1.0000 0.27157  0.82143  0.72807  Biso   1.000  H
  C153     1.0000 0.25392  0.93158  0.77988  Biso   1.000  C
  O15      1.0000 0.98241  0.18039  0.74289  Biso   1.000  O
  C154     1.0000 0.87233  0.18092  0.83708  Biso   1.000  C
  H150     1.0000 0.78599  0.43088  0.82880  Biso   1.000  H
  H151     1.0000 0.97536  0.49611  0.65698  Biso   1.000  H
  H152     1.0000 0.07881  0.42729  0.69248  Biso   1.000  H
  C155     1.0000 0.02996  0.55774  0.72213  Biso   1.000  C
  H153     1.0000 0.56459  0.91850  0.54680  Biso   1.000  H
  H154     1.0000 0.59429  0.81355  0.51738  Biso   1.000  H
  H155     1.0000 0.52669  0.90575  0.47370  Biso   1.000  H
  H156     1.0000 0.53421  0.82965  0.51691  Biso   1.000  H
  H157     1.0000 0.42141  0.84826  0.48221  Biso   1.000  H
  H158     1.0000 0.45282  0.93695  0.50681  Biso   1.000  H
  H159     1.0000 0.95832  0.08844  0.69117  Biso   1.000  H
  H160     1.0000 0.87143  0.19305  0.68527  Biso   1.000  H
  H161     1.0000 0.04329  0.11264  0.38868  Biso   1.000  H
  C156     1.0000 0.61588  0.17867  0.99113  Biso   1.000  C
  H162     1.0000 0.35129  0.20988  0.94347  Biso   1.000  H
  C157     1.0000 0.29636  0.19100  0.03958  Biso   1.000  C
  H163     1.0000 0.40536  0.36701  0.07648  Biso   1.000  H
  C158     1.0000 0.32747  0.27824  0.11314  Biso   1.000  C
  C159     1.0000 0.80441  0.22850  0.88441  Biso   1.000  C
  H164     1.0000 0.65410  0.48407  0.98570  Biso   1.000  H
  H165     1.0000 0.69259  0.49630  0.90578  Biso   1.000  H
  C160     1.0000 0.81172  0.45350  0.96307  Biso   1.000  C
  H166     1.0000 0.23832  0.95049  0.82838  Biso   1.000  H
  H167     1.0000 0.32648  0.93831  0.76127  Biso   1.000  H
  C161     1.0000 0.17180  0.99113  0.74158  Biso   1.000  C
  C162     1.0000 0.90790  0.08513  0.84106  Biso   1.000  C
  H168     1.0000 0.96070  0.61169  0.72610  Biso   1.000  H
  H169     1.0000 0.05607  0.54301  0.76829  Biso   1.000  H
  C163     1.0000 0.10795  0.58445  0.67756  Biso   1.000  C
  C164     1.0000 0.68333  0.16128  0.93052  Biso   1.000  C
  H170     1.0000 0.54918  0.16048  0.98739  Biso   1.000  H
  H171     1.0000 0.65475  0.13855  0.02845  Biso   1.000  H
  I13      1.0000 0.23442  0.09578  0.02073  Biso   1.000  I
  C165     1.0000 0.28713  0.21383  0.10117  Biso   1.000  C
  I14      1.0000 0.31247  0.31842  0.20499  Biso   1.000  I
  O16      1.0000 0.77252  0.18378  0.93580  Biso   1.000  O
  H172     1.0000 0.86685  0.43207  0.92266  Biso   1.000  H
  H173     1.0000 0.80878  0.51898  0.97219  Biso   1.000  H
  C166     1.0000 0.84590  0.39441  0.01966  Biso   1.000  C
  H174     1.0000 0.09924  0.98458  0.76057  Biso   1.000  H
  H175     1.0000 0.18828  0.97274  0.69299  Biso   1.000  H
  H176     1.0000 0.17010  0.05788  0.74420  Biso   1.000  H
  C167     1.0000 0.97531  0.04188  0.88347  Biso   1.000  C
  C168     1.0000 0.87360  0.03738  0.80364  Biso   1.000  C
  H177     1.0000 0.17739  0.53039  0.67428  Biso   1.000  H
  H178     1.0000 0.08242  0.59712  0.63121  Biso   1.000  H
  C169     1.0000 0.13068  0.66362  0.69580  Biso   1.000  C
  H179     1.0000 0.64445  0.19958  0.89241  Biso   1.000  H
  H180     1.0000 0.70348  0.09322  0.92028  Biso   1.000  H
  H181     1.0000 0.25034  0.18313  0.13845  Biso   1.000  H
  H182     1.0000 0.78515  0.40700  0.05777  Biso   1.000  H
  H183     1.0000 0.86456  0.32723  0.00745  Biso   1.000  H
  C170     1.0000 0.93787  0.41013  0.04098  Biso   1.000  C
  C171     1.0000 0.00947  0.95252  0.88689  Biso   1.000  C
  H184     1.0000 0.00078  0.07821  0.91378  Biso   1.000  H
  H185     1.0000 0.81934  0.06978  0.77170  Biso   1.000  H
  C172     1.0000 0.91011  0.94721  0.80780  Biso   1.000  C
  H186     1.0000 0.06321  0.71930  0.69538  Biso   1.000  H
  H187     1.0000 0.15198  0.65321  0.74327  Biso   1.000  H
  C173     1.0000 0.21494  0.68270  0.65156  Biso   1.000  C
  H188     1.0000 0.91884  0.47783  0.05197  Biso   1.000  H
  H189     1.0000 0.99826  0.39711  0.00268  Biso   1.000  H
  C174     1.0000 0.97466  0.35380  0.09785  Biso   1.000  C
  C175     1.0000 0.97745  0.90409  0.84891  Biso   1.000  C
  I15      1.0000 0.10804  0.88929  0.95287  Biso   1.000  I
  I16      1.0000 0.86193  0.87587  0.74892  Biso   1.000  I
  H190     1.0000 0.22801  0.74019  0.66601  Biso   1.000  H
  H191     1.0000 0.28309  0.62793  0.65291  Biso   1.000  H
  H192     1.0000 0.19367  0.69362  0.60409  Biso   1.000  H
  H193     1.0000 0.91437  0.36560  0.13615  Biso   1.000  H
  H194     1.0000 0.99625  0.28592  0.08677  Biso   1.000  H
  C176     1.0000 0.06451  0.37393  0.11777  Biso   1.000  C
  H195     1.0000 0.00481  0.83440  0.85167  Biso   1.000  H
  H196     1.0000 0.08797  0.33528  0.15986  Biso   1.000  H
  H197     1.0000 0.12627  0.35840  0.08036  Biso   1.000  H
  H198     1.0000 0.04334  0.44229  0.12727  Biso   1.000  H
