data_image0
_cell_length_a       12.456
_cell_length_b       15.794
_cell_length_c       15.852
_cell_angle_alpha    74.97
_cell_angle_beta     70.02
_cell_angle_gamma    82.96

_symmetry_space_group_name_H-M    "P 1"
_symmetry_int_tables_number       1

loop_
  _symmetry_equiv_pos_as_xyz
  'x, y, z'

loop_
  _atom_site_label
  _atom_site_occupancy
  _atom_site_fract_x
  _atom_site_fract_y
  _atom_site_fract_z
  _atom_site_thermal_displace_type
  _atom_site_B_iso_or_equiv
  _atom_site_type_symbol
  O1       1.0000 0.53514  0.39823  0.50927  Biso   1.000  O
  H1       1.0000 0.52099  0.39102  0.46351  Biso   1.000  H
  C1       1.0000 0.61822  0.33769  0.52798  Biso   1.000  C
  C2       1.0000 0.72700  0.34509  0.46551  Biso   1.000  C
  C3       1.0000 0.59425  0.27265  0.60818  Biso   1.000  C
  O2       1.0000 0.75399  0.40849  0.38578  Biso   1.000  O
  C4       1.0000 0.81371  0.28663  0.48345  Biso   1.000  C
  C5       1.0000 0.47391  0.26416  0.67528  Biso   1.000  C
  C6       1.0000 0.68324  0.21612  0.62461  Biso   1.000  C
  H2       1.0000 0.69790  0.44406  0.38592  Biso   1.000  H
  O3       1.0000 0.92208  0.29389  0.42161  Biso   1.000  O
  C7       1.0000 0.79302  0.22144  0.56318  Biso   1.000  C
  C8       1.0000 0.45748  0.31127  0.75086  Biso   1.000  C
  H3       1.0000 0.42211  0.29500  0.63973  Biso   1.000  H
  C9       1.0000 0.43988  0.16855  0.71089  Biso   1.000  C
  H4       1.0000 0.66785  0.17199  0.68038  Biso   1.000  H
  H5       1.0000 0.92196  0.33269  0.37405  Biso   1.000  H
  C10      1.0000 0.88866  0.15806  0.58375  Biso   1.000  C
  C11      1.0000 0.42627  0.40036  0.73892  Biso   1.000  C
  C12      1.0000 0.47450  0.26764  0.83348  Biso   1.000  C
  H6       1.0000 0.45681  0.14177  0.65754  Biso   1.000  H
  H7       1.0000 0.48747  0.13655  0.74879  Biso   1.000  H
  C13      1.0000 0.31626  0.15663  0.76756  Biso   1.000  C
  C14      1.0000 0.93764  0.18896  0.64525  Biso   1.000  C
  H8       1.0000 0.95136  0.16068  0.52356  Biso   1.000  H
  C15      1.0000 0.85173  0.06374  0.61985  Biso   1.000  C
  O4       1.0000 0.40429  0.45038  0.66175  Biso   1.000  O
  C16      1.0000 0.41508  0.44345  0.80705  Biso   1.000  C
  C17      1.0000 0.46127  0.30843  0.90361  Biso   1.000  C
  H9       1.0000 0.49619  0.20702  0.84218  Biso   1.000  H
  H10      1.0000 0.26812  0.18971  0.73057  Biso   1.000  H
  H11      1.0000 0.29943  0.18109  0.82244  Biso   1.000  H
  C18      1.0000 0.28593  0.06153  0.79856  Biso   1.000  C
  C19      1.0000 0.89503  0.16131  0.74037  Biso   1.000  C
  C20      1.0000 0.02649  0.24595  0.60832  Biso   1.000  C
  H12      1.0000 0.81748  0.05016  0.57719  Biso   1.000  H
  H13      1.0000 0.79094  0.05906  0.68045  Biso   1.000  H
  C21      1.0000 0.94461  0.99429  0.63158  Biso   1.000  C
  H14      1.0000 0.44483  0.43133  0.61557  Biso   1.000  H
  O5       1.0000 0.38643  0.53129  0.79759  Biso   1.000  O
  C22      1.0000 0.43222  0.39749  0.88891  Biso   1.000  C
  C23      1.0000 0.47902  0.26034  0.99424  Biso   1.000  C
  H15      1.0000 0.30512  0.03636  0.74458  Biso   1.000  H
  H16      1.0000 0.20387  0.05689  0.83217  Biso   1.000  H
  H17      1.0000 0.32908  0.02932  0.83914  Biso   1.000  H
  C24      1.0000 0.93778  0.18570  0.79932  Biso   1.000  C
  H18      1.0000 0.83255  0.12327  0.76639  Biso   1.000  H
  O6       1.0000 0.07678  0.27722  0.51583  Biso   1.000  O
  C25      1.0000 0.07037  0.27195  0.66575  Biso   1.000  C
  H19      1.0000 0.97461  0.00397  0.67859  Biso   1.000  H
  C26      1.0000 0.90380  0.90266  0.66016  Biso   1.000  C
  H20      1.0000 0.00850  0.00113  0.57250  Biso   1.000  H
  H21      1.0000 0.42314  0.55885  0.74430  Biso   1.000  H
  O7       1.0000 0.42017  0.44003  0.95662  Biso   1.000  O
  C27      1.0000 0.60075  0.26633  0.99114  Biso   1.000  C
  H22      1.0000 0.42905  0.29132  0.04215  Biso   1.000  H
  C28      1.0000 0.44206  0.16573  0.02537  Biso   1.000  C
  C29      1.0000 0.89128  0.15164  0.90292  Biso   1.000  C
  C30      1.0000 0.02550  0.24303  0.76025  Biso   1.000  C
  H23      1.0000 0.02618  0.28674  0.49015  Biso   1.000  H
  O8       1.0000 0.16025  0.32669  0.62799  Biso   1.000  O
  H24      1.0000 0.84364  0.89435  0.72042  Biso   1.000  H
  H25      1.0000 0.96776  0.86088  0.66444  Biso   1.000  H
  H26      1.0000 0.87316  0.89278  0.61433  Biso   1.000  H
  H27      1.0000 0.41757  0.49452  0.93502  Biso   1.000  H
  C31      1.0000 0.68722  0.21161  0.95014  Biso   1.000  C
  C32      1.0000 0.62934  0.32753  0.02758  Biso   1.000  C
  H28      1.0000 0.49557  0.13131  0.98348  Biso   1.000  H
  H29      1.0000 0.36518  0.16440  0.02040  Biso   1.000  H
  C33      1.0000 0.43829  0.12299  0.12353  Biso   1.000  C
  C34      1.0000 0.79890  0.21407  0.94682  Biso   1.000  C
  H30      1.0000 0.95587  0.15095  0.92708  Biso   1.000  H
  C35      1.0000 0.85078  0.05804  0.93295  Biso   1.000  C
  O9       1.0000 0.07651  0.27415  0.80926  Biso   1.000  O
  H31      1.0000 0.16522  0.35015  0.66837  Biso   1.000  H
  H32      1.0000 0.66885  0.17056  0.92322  Biso   1.000  H
  O10      1.0000 0.55020  0.38676  0.06748  Biso   1.000  O
  C36      1.0000 0.73974  0.33170  0.02606  Biso   1.000  C
  H33      1.0000 0.51420  0.12703  0.12919  Biso   1.000  H
  H34      1.0000 0.38193  0.15581  0.16570  Biso   1.000  H
  C37      1.0000 0.40734  0.02877  0.15286  Biso   1.000  C
  C38      1.0000 0.82391  0.27561  0.98493  Biso   1.000  C
  H35      1.0000 0.78827  0.05645  0.90817  Biso   1.000  H
  C39      1.0000 0.94102  0.98839  0.90320  Biso   1.000  C
  H36      1.0000 0.81834  0.04242  0.00115  Biso   1.000  H
  H37      1.0000 0.02986  0.27434  0.86199  Biso   1.000  H
  H38      1.0000 0.49975  0.39931  0.04166  Biso   1.000  H
  O11      1.0000 0.77200  0.39123  0.06058  Biso   1.000  O
  H39      1.0000 0.46380  0.99546  0.11228  Biso   1.000  H
  H40      1.0000 0.33154  0.02434  0.14893  Biso   1.000  H
  H41      1.0000 0.40646  0.00475  0.21664  Biso   1.000  H
  O12      1.0000 0.93416  0.28045  0.98037  Biso   1.000  O
  H42      1.0000 0.97387  0.00293  0.83500  Biso   1.000  H
  C40      1.0000 0.89405  0.89844  0.93516  Biso   1.000  C
  H43      1.0000 0.00355  0.98868  0.92839  Biso   1.000  H
  H44      1.0000 0.71536  0.40666  0.10151  Biso   1.000  H
  H45      1.0000 0.93786  0.31764  0.00860  Biso   1.000  H
  H46      1.0000 0.95566  0.85561  0.91569  Biso   1.000  H
  H47      1.0000 0.83444  0.89707  0.90824  Biso   1.000  H
  H48      1.0000 0.86153  0.88367  0.00266  Biso   1.000  H
  O13      1.0000 0.46469  0.60177  0.49070  Biso   1.000  O
  C41      1.0000 0.38160  0.66238  0.47200  Biso   1.000  C
  H49      1.0000 0.47883  0.60905  0.53647  Biso   1.000  H
  C42      1.0000 0.40557  0.72742  0.39179  Biso   1.000  C
  C43      1.0000 0.27290  0.65498  0.53446  Biso   1.000  C
  C44      1.0000 0.52588  0.73589  0.32477  Biso   1.000  C
  C45      1.0000 0.31656  0.78387  0.37543  Biso   1.000  C
  O14      1.0000 0.24592  0.59151  0.61419  Biso   1.000  O
  C46      1.0000 0.18612  0.71337  0.51652  Biso   1.000  C
  C47      1.0000 0.54235  0.68873  0.24911  Biso   1.000  C
  H50      1.0000 0.57771  0.70506  0.36024  Biso   1.000  H
  C48      1.0000 0.55994  0.83152  0.28908  Biso   1.000  C
  C49      1.0000 0.20681  0.77857  0.43679  Biso   1.000  C
  H51      1.0000 0.33197  0.82808  0.31959  Biso   1.000  H
  H52      1.0000 0.30192  0.55600  0.61405  Biso   1.000  H
  O15      1.0000 0.07774  0.70618  0.57836  Biso   1.000  O
  C50      1.0000 0.57356  0.59964  0.26105  Biso   1.000  C
  C51      1.0000 0.52533  0.73236  0.16649  Biso   1.000  C
  H53      1.0000 0.54299  0.85821  0.34250  Biso   1.000  H
  H54      1.0000 0.51237  0.86346  0.25118  Biso   1.000  H
  C52      1.0000 0.68357  0.84337  0.23241  Biso   1.000  C
  C53      1.0000 0.11117  0.84194  0.41622  Biso   1.000  C
  H55      1.0000 0.07787  0.66731  0.62592  Biso   1.000  H
  C54      1.0000 0.58475  0.55655  0.19293  Biso   1.000  C
  O16      1.0000 0.59553  0.54969  0.33823  Biso   1.000  O
  C55      1.0000 0.53856  0.69157  0.09636  Biso   1.000  C
  H56      1.0000 0.50363  0.79305  0.15779  Biso   1.000  H
  H57      1.0000 0.73171  0.81029  0.26941  Biso   1.000  H
  H58      1.0000 0.70040  0.81891  0.17753  Biso   1.000  H
  C56      1.0000 0.71390  0.93847  0.20142  Biso   1.000  C
  C57      1.0000 0.06219  0.81104  0.35472  Biso   1.000  C
  H59      1.0000 0.04847  0.83932  0.47641  Biso   1.000  H
  C58      1.0000 0.14810  0.93626  0.38012  Biso   1.000  C
  O17      1.0000 0.61348  0.46872  0.20238  Biso   1.000  O
  C59      1.0000 0.56758  0.60249  0.11113  Biso   1.000  C
  H60      1.0000 0.55497  0.56866  0.38447  Biso   1.000  H
  C60      1.0000 0.52081  0.73966  0.00573  Biso   1.000  C
  H61      1.0000 0.69471  0.96364  0.25539  Biso   1.000  H
  H62      1.0000 0.79603  0.94318  0.16780  Biso   1.000  H
  H63      1.0000 0.67075  0.97069  0.16083  Biso   1.000  H
  C61      1.0000 0.10488  0.83869  0.25960  Biso   1.000  C
  C62      1.0000 0.97342  0.75405  0.39165  Biso   1.000  C
  H64      1.0000 0.18235  0.94984  0.42278  Biso   1.000  H
  H65      1.0000 0.20889  0.94095  0.31952  Biso   1.000  H
  C63      1.0000 0.05522  0.00572  0.36839  Biso   1.000  C
  H66      1.0000 0.57669  0.44115  0.25567  Biso   1.000  H
  O18      1.0000 0.57966  0.55997  0.04335  Biso   1.000  O
  C64      1.0000 0.39905  0.73366  0.00890  Biso   1.000  C
  H67      1.0000 0.57078  0.70868  0.95783  Biso   1.000  H
  C65      1.0000 0.55777  0.83428  0.97460  Biso   1.000  C
  C66      1.0000 0.06205  0.81430  0.20066  Biso   1.000  C
  H68      1.0000 0.16727  0.87680  0.23358  Biso   1.000  H
  O19      1.0000 0.92305  0.72278  0.48414  Biso   1.000  O
  C67      1.0000 0.92954  0.72805  0.33422  Biso   1.000  C
  H69      1.0000 0.02521  0.99610  0.32138  Biso   1.000  H
  H70      1.0000 0.99140  0.99894  0.42747  Biso   1.000  H
  C68      1.0000 0.09612  0.09734  0.33981  Biso   1.000  C
  H71      1.0000 0.58226  0.50555  0.06495  Biso   1.000  H
  C69      1.0000 0.31262  0.78839  0.04984  Biso   1.000  C
  C70      1.0000 0.37049  0.67247  0.97239  Biso   1.000  C
  H72      1.0000 0.50425  0.86876  0.01650  Biso   1.000  H
  H73      1.0000 0.63464  0.83566  0.97957  Biso   1.000  H
  C71      1.0000 0.56151  0.87700  0.87651  Biso   1.000  C
  C72      1.0000 0.10855  0.84836  0.09705  Biso   1.000  C
  C73      1.0000 0.97433  0.75697  0.23973  Biso   1.000  C
  H74      1.0000 0.97362  0.71331  0.50989  Biso   1.000  H
  O20      1.0000 0.83966  0.67331  0.37198  Biso   1.000  O
  H75      1.0000 0.15618  0.10572  0.27955  Biso   1.000  H
  H76      1.0000 0.03207  0.13919  0.33553  Biso   1.000  H
  H77      1.0000 0.12667  0.10722  0.38565  Biso   1.000  H
  C74      1.0000 0.20090  0.78592  0.05322  Biso   1.000  C
  H78      1.0000 0.33094  0.82949  0.07683  Biso   1.000  H
  O21      1.0000 0.44963  0.61324  0.93249  Biso   1.000  O
  C75      1.0000 0.26008  0.66837  0.97391  Biso   1.000  C
  H79      1.0000 0.48563  0.87297  0.87078  Biso   1.000  H
  H80      1.0000 0.61798  0.84419  0.83427  Biso   1.000  H
  C76      1.0000 0.59248  0.97130  0.84711  Biso   1.000  C
  H81      1.0000 0.04394  0.84904  0.07296  Biso   1.000  H
  C77      1.0000 0.14913  0.94196  0.06702  Biso   1.000  C
  O22      1.0000 0.92331  0.72591  0.19072  Biso   1.000  O
  H82      1.0000 0.83459  0.64983  0.33167  Biso   1.000  H
  C78      1.0000 0.17591  0.72445  0.01505  Biso   1.000  C
  H83      1.0000 0.50016  0.60069  0.95831  Biso   1.000  H
  O23      1.0000 0.22782  0.60884  0.93940  Biso   1.000  O
  H84      1.0000 0.66828  0.97572  0.85104  Biso   1.000  H
  H85      1.0000 0.59337  0.99525  0.78333  Biso   1.000  H
  H86      1.0000 0.53603  0.00454  0.88770  Biso   1.000  H
  H87      1.0000 0.21157  0.94355  0.09180  Biso   1.000  H
  H88      1.0000 0.18150  0.95759  0.99883  Biso   1.000  H
  C79      1.0000 0.05879  0.01159  0.09684  Biso   1.000  C
  H89      1.0000 0.96996  0.72573  0.13798  Biso   1.000  H
  O24      1.0000 0.06574  0.71962  0.01960  Biso   1.000  O
  H90      1.0000 0.28447  0.59335  0.89846  Biso   1.000  H
  H91      1.0000 0.02596  0.99707  0.16497  Biso   1.000  H
  H92      1.0000 0.99625  0.01131  0.07165  Biso   1.000  H
  C80      1.0000 0.10577  0.10162  0.06481  Biso   1.000  C
  H93      1.0000 0.06197  0.68236  0.99137  Biso   1.000  H
  H94      1.0000 0.13830  0.11633  0.99731  Biso   1.000  H
  H95      1.0000 0.04417  0.14439  0.08428  Biso   1.000  H
  H96      1.0000 0.16539  0.10293  0.09173  Biso   1.000  H
