data_image0
_cell_length_a       13.436
_cell_length_b       13.735
_cell_length_c       16.661
_cell_angle_alpha    93.19
_cell_angle_beta     100.53
_cell_angle_gamma    103.19

_symmetry_space_group_name_H-M    "P 1"
_symmetry_int_tables_number       1

loop_
  _symmetry_equiv_pos_as_xyz
  'x, y, z'

loop_
  _atom_site_label
  _atom_site_occupancy
  _atom_site_fract_x
  _atom_site_fract_y
  _atom_site_fract_z
  _atom_site_thermal_displace_type
  _atom_site_B_iso_or_equiv
  _atom_site_type_symbol
  C1       1.0000 0.77199  0.79053  0.34844  Biso   1.000  C
  C2       1.0000 0.81465  0.70753  0.31371  Biso   1.000  C
  C3       1.0000 0.67012  0.80168  0.29566  Biso   1.000  C
  C4       1.0000 0.85091  0.89164  0.36532  Biso   1.000  C
  H1       1.0000 0.75754  0.77140  0.40023  Biso   1.000  H
  C5       1.0000 0.77546  0.65840  0.23503  Biso   1.000  C
  C6       1.0000 0.89773  0.67815  0.36114  Biso   1.000  C
  H2       1.0000 0.64637  0.85561  0.32224  Biso   1.000  H
  H3       1.0000 0.67772  0.82189  0.24240  Biso   1.000  H
  H4       1.0000 0.61387  0.73808  0.28763  Biso   1.000  H
  C7       1.0000 0.84845  0.96093  0.42932  Biso   1.000  C
  C8       1.0000 0.92739  0.91930  0.31966  Biso   1.000  C
  C9       1.0000 0.81408  0.58217  0.20177  Biso   1.000  C
  H5       1.0000 0.71411  0.67668  0.19871  Biso   1.000  H
  C10      1.0000 0.93711  0.60168  0.33083  Biso   1.000  C
  O1       1.0000 0.93851  0.72571  0.43859  Biso   1.000  O
  O2       1.0000 0.77415  0.93319  0.47614  Biso   1.000  O
  C11      1.0000 0.91848  0.05375  0.44509  Biso   1.000  C
  H6       1.0000 0.93014  0.87141  0.27498  Biso   1.000  H
  C12      1.0000 0.00076  0.01147  0.33439  Biso   1.000  C
  C13      1.0000 0.77334  0.53403  0.11426  Biso   1.000  C
  C14      1.0000 0.89634  0.55488  0.25228  Biso   1.000  C
  H7       1.0000 0.99226  0.58194  0.36624  Biso   1.000  H
  H8       1.0000 0.00110  0.71220  0.45804  Biso   1.000  H
  H9       1.0000 0.79294  0.97117  0.52229  Biso   1.000  H
  C15      1.0000 0.99446  0.07847  0.39858  Biso   1.000  C
  H10      1.0000 0.91868  0.09893  0.49142  Biso   1.000  H
  C16      1.0000 0.08514  0.03950  0.28443  Biso   1.000  C
  C17      1.0000 0.66787  0.55340  0.07591  Biso   1.000  C
  C18      1.0000 0.85166  0.56601  0.05946  Biso   1.000  C
  H11      1.0000 0.76215  0.45882  0.11568  Biso   1.000  H
  O3       1.0000 0.93514  0.47910  0.22202  Biso   1.000  O
  O4       1.0000 0.06572  0.16952  0.41337  Biso   1.000  O
  C19      1.0000 0.11548  0.94793  0.25050  Biso   1.000  C
  C20      1.0000 0.05252  0.10525  0.21797  Biso   1.000  C
  H12      1.0000 0.14777  0.07939  0.32371  Biso   1.000  H
  H13      1.0000 0.61180  0.52992  0.10948  Biso   1.000  H
  H14      1.0000 0.67590  0.62548  0.07161  Biso   1.000  H
  H15      1.0000 0.64150  0.51821  0.02271  Biso   1.000  H
  C21      1.0000 0.92996  0.65490  0.07732  Biso   1.000  C
  C22      1.0000 0.84571  0.50711  0.98705  Biso   1.000  C
  H16      1.0000 0.98873  0.46651  0.25602  Biso   1.000  H
  H17      1.0000 0.07280  0.19881  0.46178  Biso   1.000  H
  C23      1.0000 0.08538  0.90814  0.16882  Biso   1.000  C
  C24      1.0000 0.17684  0.89996  0.30364  Biso   1.000  C
  H18      1.0000 0.98662  0.07030  0.17993  Biso   1.000  H
  H19      1.0000 0.04247  0.16774  0.24363  Biso   1.000  H
  H20      1.0000 0.11081  0.12579  0.18478  Biso   1.000  H
  H21      1.0000 0.93632  0.69827  0.12709  Biso   1.000  H
  C25      1.0000 0.00018  0.68724  0.02712  Biso   1.000  C
  C26      1.0000 0.91431  0.53666  0.93489  Biso   1.000  C
  O5       1.0000 0.77160  0.41689  0.96870  Biso   1.000  O
  C27      1.0000 0.11328  0.82413  0.13734  Biso   1.000  C
  H22      1.0000 0.04465  0.94250  0.13071  Biso   1.000  H
  C28      1.0000 0.20542  0.81527  0.27517  Biso   1.000  C
  O6       1.0000 0.20832  0.93858  0.38440  Biso   1.000  O
  C29      1.0000 0.99042  0.62566  0.95483  Biso   1.000  C
  C30      1.0000 0.08446  0.78527  0.04688  Biso   1.000  C
  H23      1.0000 0.91118  0.49251  0.88604  Biso   1.000  H
  H24      1.0000 0.78801  0.37808  0.92734  Biso   1.000  H
  C31      1.0000 0.17372  0.77811  0.19294  Biso   1.000  C
  H25      1.0000 0.24947  0.78253  0.31309  Biso   1.000  H
  H26      1.0000 0.27009  0.92093  0.40778  Biso   1.000  H
  O7       1.0000 0.05979  0.65614  0.90476  Biso   1.000  O
  C32      1.0000 0.05408  0.86348  0.99159  Biso   1.000  C
  H27      1.0000 0.14854  0.77253  0.03467  Biso   1.000  H
  O8       1.0000 0.20173  0.69424  0.16379  Biso   1.000  O
  H28      1.0000 0.05353  0.60394  0.87107  Biso   1.000  H
  H29      1.0000 0.98863  0.88021  0.99988  Biso   1.000  H
  H30      1.0000 0.04185  0.83584  0.93784  Biso   1.000  H
  H31      1.0000 0.10840  0.92801  0.00000  Biso   1.000  H
  H32      1.0000 0.25202  0.67718  0.20030  Biso   1.000  H
  C33      1.0000 0.22816  0.20949  0.65159  Biso   1.000  C
  C34      1.0000 0.14925  0.10838  0.63472  Biso   1.000  C
  C35      1.0000 0.18550  0.29249  0.68632  Biso   1.000  C
  C36      1.0000 0.32996  0.19834  0.70437  Biso   1.000  C
  H33      1.0000 0.24254  0.22861  0.59980  Biso   1.000  H
  C37      1.0000 0.15161  0.03901  0.57071  Biso   1.000  C
  C38      1.0000 0.07276  0.08072  0.68037  Biso   1.000  C
  C39      1.0000 0.10232  0.32180  0.63889  Biso   1.000  C
  C40      1.0000 0.22461  0.34162  0.76500  Biso   1.000  C
  H34      1.0000 0.35378  0.14441  0.67779  Biso   1.000  H
  H35      1.0000 0.32233  0.17806  0.75763  Biso   1.000  H
  H36      1.0000 0.38626  0.26186  0.71241  Biso   1.000  H
  O9       1.0000 0.22591  0.06676  0.52389  Biso   1.000  O
  C41      1.0000 0.08158  0.94626  0.55488  Biso   1.000  C
  H37      1.0000 0.06994  0.12861  0.72505  Biso   1.000  H
  C42      1.0000 0.99939  0.98855  0.66564  Biso   1.000  C
  C43      1.0000 0.06304  0.39833  0.66920  Biso   1.000  C
  O10      1.0000 0.06155  0.27424  0.56144  Biso   1.000  O
  C44      1.0000 0.18600  0.41785  0.79826  Biso   1.000  C
  H38      1.0000 0.28595  0.32326  0.80133  Biso   1.000  H
  H39      1.0000 0.20712  0.02878  0.47774  Biso   1.000  H
  C45      1.0000 0.00569  0.92155  0.60145  Biso   1.000  C
  H40      1.0000 0.08139  0.90109  0.50861  Biso   1.000  H
  C46      1.0000 0.91494  0.96052  0.71560  Biso   1.000  C
  C47      1.0000 0.10381  0.44514  0.74775  Biso   1.000  C
  H41      1.0000 0.00782  0.41808  0.63379  Biso   1.000  H
  H42      1.0000 0.99905  0.28782  0.54199  Biso   1.000  H
  C48      1.0000 0.22678  0.46591  0.88571  Biso   1.000  C
  O11      1.0000 0.93436  0.83050  0.58667  Biso   1.000  O
  C49      1.0000 0.94763  0.89477  0.78206  Biso   1.000  C
  H43      1.0000 0.85236  0.92056  0.67632  Biso   1.000  H
  C50      1.0000 0.88460  0.05209  0.74953  Biso   1.000  C
  O12      1.0000 0.06493  0.52092  0.77801  Biso   1.000  O
  C51      1.0000 0.14839  0.43393  0.94057  Biso   1.000  C
  C52      1.0000 0.33228  0.44662  0.92412  Biso   1.000  C
  H44      1.0000 0.23799  0.54119  0.88429  Biso   1.000  H
  H45      1.0000 0.92733  0.80120  0.53819  Biso   1.000  H
  H46      1.0000 0.95761  0.83227  0.75641  Biso   1.000  H
  H47      1.0000 0.88923  0.87415  0.81519  Biso   1.000  H
  H48      1.0000 0.01353  0.92972  0.82010  Biso   1.000  H
  C53      1.0000 0.82323  0.10006  0.69639  Biso   1.000  C
  C54      1.0000 0.91477  0.09188  0.83121  Biso   1.000  C
  H49      1.0000 0.01134  0.53351  0.74401  Biso   1.000  H
  C55      1.0000 0.07008  0.34503  0.92265  Biso   1.000  C
  C56      1.0000 0.15435  0.49283  0.01298  Biso   1.000  C
  H50      1.0000 0.38828  0.47010  0.89055  Biso   1.000  H
  H51      1.0000 0.32416  0.37447  0.92842  Biso   1.000  H
  H52      1.0000 0.35857  0.48181  0.97733  Biso   1.000  H
  C57      1.0000 0.79464  0.18467  0.72486  Biso   1.000  C
  O13      1.0000 0.79175  0.06144  0.61563  Biso   1.000  O
  C58      1.0000 0.88685  0.17582  0.86269  Biso   1.000  C
  H53      1.0000 0.95543  0.05752  0.86932  Biso   1.000  H
  H54      1.0000 0.06374  0.30167  0.87294  Biso   1.000  H
  C59      1.0000 0.99994  0.31270  0.97285  Biso   1.000  C
  C60      1.0000 0.08584  0.46336  0.06514  Biso   1.000  C
  O14      1.0000 0.22853  0.58306  0.03133  Biso   1.000  O
  C61      1.0000 0.82636  0.22191  0.80709  Biso   1.000  C
  H55      1.0000 0.75068  0.21748  0.68694  Biso   1.000  H
  H56      1.0000 0.73005  0.07908  0.59219  Biso   1.000  H
  C62      1.0000 0.91569  0.21475  0.95315  Biso   1.000  C
  C63      1.0000 0.00963  0.37428  0.04520  Biso   1.000  C
  H57      1.0000 0.08890  0.50751  0.11399  Biso   1.000  H
  H58      1.0000 0.21212  0.62186  0.07269  Biso   1.000  H
  O15      1.0000 0.79834  0.30578  0.83624  Biso   1.000  O
  H59      1.0000 0.85160  0.22748  0.96530  Biso   1.000  H
  C64      1.0000 0.94600  0.13654  0.00844  Biso   1.000  C
  O16      1.0000 0.94028  0.34388  0.09527  Biso   1.000  O
  H60      1.0000 0.74803  0.32277  0.79973  Biso   1.000  H
  H61      1.0000 0.95830  0.16418  0.06220  Biso   1.000  H
  H62      1.0000 0.89159  0.07200  0.99997  Biso   1.000  H
  H63      1.0000 0.01152  0.11980  0.00015  Biso   1.000  H
  H64      1.0000 0.94662  0.39608  0.12896  Biso   1.000  H
