data_image0
_cell_length_a       16.713
_cell_length_b       16.713
_cell_length_c       13.992
_cell_angle_alpha    90
_cell_angle_beta     90
_cell_angle_gamma    90

_symmetry_space_group_name_H-M    "P 1"
_symmetry_int_tables_number       1

loop_
  _symmetry_equiv_pos_as_xyz
  'x, y, z'

loop_
  _atom_site_label
  _atom_site_occupancy
  _atom_site_fract_x
  _atom_site_fract_y
  _atom_site_fract_z
  _atom_site_thermal_displace_type
  _atom_site_B_iso_or_equiv
  _atom_site_type_symbol
  C1       1.0000 0.89966  0.57877  0.56332  Biso   1.000  C
  C2       1.0000 0.90911  0.59636  0.46841  Biso   1.000  C
  H1       1.0000 0.84880  0.56537  0.58927  Biso   1.000  H
  C3       1.0000 0.96901  0.58152  0.62078  Biso   1.000  C
  O1       1.0000 0.85490  0.59726  0.39637  Biso   1.000  O
  C4       1.0000 0.98558  0.61623  0.43275  Biso   1.000  C
  C5       1.0000 0.98552  0.61623  0.43275  Biso   1.000  C
  C6       1.0000 0.04152  0.60193  0.58348  Biso   1.000  C
  H2       1.0000 0.96512  0.56890  0.68675  Biso   1.000  H
  B1       1.0000 0.89948  0.61503  0.30610  Biso   1.000  B
  O2       1.0000 0.98522  0.62999  0.33962  Biso   1.000  O
  N1       1.0000 0.05134  0.62030  0.48742  Biso   1.000  N
  H3       1.0000 0.08682  0.60360  0.62450  Biso   1.000  H
  H4       1.0000 0.08676  0.60360  0.62450  Biso   1.000  H
  C7       1.0000 0.89386  0.54263  0.23070  Biso   1.000  C
  C8       1.0000 0.89380  0.54263  0.23070  Biso   1.000  C
  N2       1.0000 0.87028  0.69868  0.26251  Biso   1.000  N
  B2       1.0000 0.13492  0.64949  0.44390  Biso   1.000  B
  C9       1.0000 0.82828  0.49028  0.23370  Biso   1.000  C
  C10      1.0000 0.95501  0.52486  0.16517  Biso   1.000  C
  C11      1.0000 0.86621  0.76443  0.31718  Biso   1.000  C
  C12      1.0000 0.85191  0.70843  0.16652  Biso   1.000  C
  O3       1.0000 0.11997  0.73524  0.41031  Biso   1.000  O
  O4       1.0000 0.15270  0.60486  0.35363  Biso   1.000  O
  C13      1.0000 0.20738  0.64381  0.51930  Biso   1.000  C
  C14      1.0000 0.82397  0.42320  0.17431  Biso   1.000  C
  H5       1.0000 0.78580  0.50069  0.27709  Biso   1.000  H
  C15      1.0000 0.95106  0.45791  0.10620  Biso   1.000  C
  H6       1.0000 0.00012  0.55938  0.16109  Biso   1.000  H
  H7       1.0000 0.00006  0.55938  0.16109  Biso   1.000  H
  O5       1.0000 0.88003  0.76473  0.41031  Biso   1.000  O
  C16      1.0000 0.84635  0.84084  0.28152  Biso   1.000  C
  O6       1.0000 0.87997  0.76473  0.41031  Biso   1.000  O
  C17      1.0000 0.83151  0.78101  0.12922  Biso   1.000  C
  H8       1.0000 0.85359  0.66320  0.12550  Biso   1.000  H
  C18      1.0000 0.13379  0.73554  0.31718  Biso   1.000  C
  C19      1.0000 0.15365  0.65913  0.28152  Biso   1.000  C
  C20      1.0000 0.22509  0.70496  0.58476  Biso   1.000  C
  C21      1.0000 0.25968  0.57823  0.51630  Biso   1.000  C
  C22      1.0000 0.88566  0.40681  0.11078  Biso   1.000  C
  H9       1.0000 0.77879  0.38880  0.17739  Biso   1.000  H
  H10      1.0000 0.99330  0.44720  0.06261  Biso   1.000  H
  B3       1.0000 0.86508  0.85048  0.44390  Biso   1.000  B
  B4       1.0000 0.86502  0.85048  0.44390  Biso   1.000  B
  O7       1.0000 0.84730  0.89511  0.35363  Biso   1.000  O
  C23      1.0000 0.82882  0.85036  0.18661  Biso   1.000  C
  C24      1.0000 0.82876  0.85036  0.18661  Biso   1.000  C
  H11      1.0000 0.81888  0.78490  0.06318  Biso   1.000  H
  N3       1.0000 0.12972  0.80129  0.26251  Biso   1.000  N
  N4       1.0000 0.12966  0.80129  0.26251  Biso   1.000  N
  C25      1.0000 0.17118  0.64961  0.18661  Biso   1.000  C
  H12      1.0000 0.19057  0.75007  0.58891  Biso   1.000  H
  C26      1.0000 0.29205  0.70107  0.64380  Biso   1.000  C
  C27      1.0000 0.32681  0.57398  0.57569  Biso   1.000  C
  H13      1.0000 0.24933  0.53581  0.47291  Biso   1.000  H
  H14      1.0000 0.24927  0.53581  0.47291  Biso   1.000  H
  H15      1.0000 0.88309  0.36098  0.07083  Biso   1.000  H
  N5       1.0000 0.94866  0.87967  0.48742  Biso   1.000  N
  C28      1.0000 0.79262  0.85616  0.51930  Biso   1.000  C
  H16      1.0000 0.81541  0.90121  0.16066  Biso   1.000  H
  B5       1.0000 0.10052  0.88494  0.30610  Biso   1.000  B
  C29      1.0000 0.14809  0.79154  0.16652  Biso   1.000  C
  H17      1.0000 0.18459  0.59882  0.16066  Biso   1.000  H
  C30      1.0000 0.16849  0.71902  0.12922  Biso   1.000  C
  H18      1.0000 0.30282  0.74331  0.68739  Biso   1.000  H
  C31      1.0000 0.34315  0.63561  0.63915  Biso   1.000  C
  H19      1.0000 0.30276  0.74331  0.68739  Biso   1.000  H
  H20      1.0000 0.36122  0.52881  0.57261  Biso   1.000  H
  H21      1.0000 0.36116  0.52881  0.57261  Biso   1.000  H
  C32      1.0000 0.95848  0.89804  0.58348  Biso   1.000  C
  C33      1.0000 0.95842  0.89804  0.58348  Biso   1.000  C
  C34      1.0000 0.01442  0.88374  0.43275  Biso   1.000  C
  C35      1.0000 0.77491  0.79501  0.58476  Biso   1.000  C
  C36      1.0000 0.74032  0.92174  0.51630  Biso   1.000  C
  C37      1.0000 0.74026  0.92174  0.51630  Biso   1.000  C
  O8       1.0000 0.01478  0.86998  0.33962  Biso   1.000  O
  O9       1.0000 0.14510  0.90271  0.39637  Biso   1.000  O
  C38      1.0000 0.10614  0.95734  0.23070  Biso   1.000  C
  H22      1.0000 0.14641  0.83677  0.12550  Biso   1.000  H
  H23      1.0000 0.18112  0.71507  0.06318  Biso   1.000  H
  H24      1.0000 0.18106  0.71507  0.06318  Biso   1.000  H
  H25      1.0000 0.38898  0.63310  0.67917  Biso   1.000  H
  H26      1.0000 0.91318  0.89637  0.62450  Biso   1.000  H
  C39      1.0000 0.03099  0.91851  0.62078  Biso   1.000  C
  C40      1.0000 0.09089  0.90367  0.46841  Biso   1.000  C
  C41      1.0000 0.09083  0.90367  0.46841  Biso   1.000  C
  H27      1.0000 0.80943  0.74990  0.58891  Biso   1.000  H
  C42      1.0000 0.70795  0.79896  0.64380  Biso   1.000  C
  H28      1.0000 0.80937  0.74990  0.58891  Biso   1.000  H
  C43      1.0000 0.67319  0.92605  0.57569  Biso   1.000  C
  H29      1.0000 0.75067  0.96416  0.47291  Biso   1.000  H
  C44      1.0000 0.04499  0.97511  0.16517  Biso   1.000  C
  C45      1.0000 0.17172  0.00969  0.23370  Biso   1.000  C
  C46      1.0000 0.10034  0.92120  0.56332  Biso   1.000  C
  H30      1.0000 0.03488  0.93107  0.68675  Biso   1.000  H
  H31      1.0000 0.69718  0.75672  0.68739  Biso   1.000  H
  C47      1.0000 0.65685  0.86436  0.63915  Biso   1.000  C
  C48      1.0000 0.65679  0.86436  0.63915  Biso   1.000  C
  H32      1.0000 0.63878  0.97116  0.57261  Biso   1.000  H
  H33      1.0000 0.99988  0.94059  0.16109  Biso   1.000  H
  C49      1.0000 0.04894  0.04206  0.10620  Biso   1.000  C
  H34      1.0000 0.21420  0.99928  0.27709  Biso   1.000  H
  C50      1.0000 0.17603  0.07677  0.17431  Biso   1.000  C
  H35      1.0000 0.15120  0.93460  0.58927  Biso   1.000  H
  H36      1.0000 0.61102  0.86687  0.67917  Biso   1.000  H
  H37      1.0000 0.00670  0.05277  0.06261  Biso   1.000  H
  C51      1.0000 0.11434  0.09316  0.11078  Biso   1.000  C
  H38      1.0000 0.22121  0.11117  0.17739  Biso   1.000  H
  H39      1.0000 0.11691  0.13899  0.07083  Biso   1.000  H
  C52      1.0000 0.89966  0.57877  0.56332  Biso   1.000  C
  C53      1.0000 0.90911  0.59636  0.46841  Biso   1.000  C
  H40      1.0000 0.84880  0.56537  0.58927  Biso   1.000  H
  C54      1.0000 0.96901  0.58152  0.62078  Biso   1.000  C
  O10      1.0000 0.85490  0.59726  0.39637  Biso   1.000  O
  C55      1.0000 0.98558  0.61623  0.43275  Biso   1.000  C
  C56      1.0000 0.98552  0.61623  0.43275  Biso   1.000  C
  C57      1.0000 0.04152  0.60193  0.58348  Biso   1.000  C
  H41      1.0000 0.96512  0.56890  0.68675  Biso   1.000  H
  B6       1.0000 0.89948  0.61503  0.30610  Biso   1.000  B
  O11      1.0000 0.98522  0.62999  0.33962  Biso   1.000  O
  N6       1.0000 0.05134  0.62030  0.48742  Biso   1.000  N
  H42      1.0000 0.08682  0.60360  0.62450  Biso   1.000  H
  H43      1.0000 0.08676  0.60360  0.62450  Biso   1.000  H
  C58      1.0000 0.89386  0.54263  0.23070  Biso   1.000  C
  C59      1.0000 0.89380  0.54263  0.23070  Biso   1.000  C
  N7       1.0000 0.87028  0.69868  0.26251  Biso   1.000  N
  B7       1.0000 0.13492  0.64949  0.44390  Biso   1.000  B
  C60      1.0000 0.82828  0.49028  0.23370  Biso   1.000  C
  C61      1.0000 0.95501  0.52486  0.16517  Biso   1.000  C
  C62      1.0000 0.86621  0.76443  0.31718  Biso   1.000  C
  C63      1.0000 0.85191  0.70843  0.16652  Biso   1.000  C
  O12      1.0000 0.11997  0.73524  0.41031  Biso   1.000  O
  O13      1.0000 0.15270  0.60486  0.35363  Biso   1.000  O
  C64      1.0000 0.20738  0.64381  0.51930  Biso   1.000  C
  C65      1.0000 0.82397  0.42320  0.17431  Biso   1.000  C
  H44      1.0000 0.78580  0.50069  0.27709  Biso   1.000  H
  C66      1.0000 0.95106  0.45791  0.10620  Biso   1.000  C
  H45      1.0000 0.00012  0.55938  0.16109  Biso   1.000  H
  H46      1.0000 0.00006  0.55938  0.16109  Biso   1.000  H
  C67      1.0000 0.84635  0.84084  0.28152  Biso   1.000  C
  O14      1.0000 0.88003  0.76473  0.41031  Biso   1.000  O
  O15      1.0000 0.87997  0.76473  0.41031  Biso   1.000  O
  C68      1.0000 0.83151  0.78101  0.12922  Biso   1.000  C
  H47      1.0000 0.85359  0.66320  0.12550  Biso   1.000  H
  C69      1.0000 0.13379  0.73554  0.31718  Biso   1.000  C
  C70      1.0000 0.15365  0.65913  0.28152  Biso   1.000  C
  C71      1.0000 0.22509  0.70496  0.58476  Biso   1.000  C
  C72      1.0000 0.25968  0.57823  0.51630  Biso   1.000  C
  C73      1.0000 0.88566  0.40681  0.11078  Biso   1.000  C
  H48      1.0000 0.77879  0.38880  0.17739  Biso   1.000  H
  H49      1.0000 0.99330  0.44720  0.06261  Biso   1.000  H
  O16      1.0000 0.84730  0.89511  0.35363  Biso   1.000  O
  C74      1.0000 0.82882  0.85036  0.18661  Biso   1.000  C
  C75      1.0000 0.82876  0.85036  0.18661  Biso   1.000  C
  B8       1.0000 0.86508  0.85048  0.44390  Biso   1.000  B
  B9       1.0000 0.86502  0.85048  0.44390  Biso   1.000  B
  H50      1.0000 0.81888  0.78490  0.06318  Biso   1.000  H
  N8       1.0000 0.12972  0.80129  0.26251  Biso   1.000  N
  N9       1.0000 0.12966  0.80129  0.26251  Biso   1.000  N
  C76      1.0000 0.17118  0.64961  0.18661  Biso   1.000  C
  H51      1.0000 0.19057  0.75007  0.58891  Biso   1.000  H
  C77      1.0000 0.29205  0.70107  0.64380  Biso   1.000  C
  C78      1.0000 0.32681  0.57398  0.57569  Biso   1.000  C
  H52      1.0000 0.24933  0.53581  0.47291  Biso   1.000  H
  H53      1.0000 0.24927  0.53581  0.47291  Biso   1.000  H
  H54      1.0000 0.88309  0.36098  0.07083  Biso   1.000  H
  H55      1.0000 0.81541  0.90121  0.16066  Biso   1.000  H
  N10      1.0000 0.94866  0.87967  0.48742  Biso   1.000  N
  C79      1.0000 0.79262  0.85616  0.51930  Biso   1.000  C
  B10      1.0000 0.10052  0.88494  0.30610  Biso   1.000  B
  C80      1.0000 0.14809  0.79154  0.16652  Biso   1.000  C
  H56      1.0000 0.18459  0.59882  0.16066  Biso   1.000  H
  C81      1.0000 0.16849  0.71902  0.12922  Biso   1.000  C
  H57      1.0000 0.30282  0.74331  0.68739  Biso   1.000  H
  C82      1.0000 0.34315  0.63561  0.63915  Biso   1.000  C
  H58      1.0000 0.30276  0.74331  0.68739  Biso   1.000  H
  H59      1.0000 0.36122  0.52881  0.57261  Biso   1.000  H
  H60      1.0000 0.36116  0.52881  0.57261  Biso   1.000  H
  C83      1.0000 0.95848  0.89804  0.58348  Biso   1.000  C
  C84      1.0000 0.95842  0.89804  0.58348  Biso   1.000  C
  C85      1.0000 0.01442  0.88374  0.43275  Biso   1.000  C
  C86      1.0000 0.77491  0.79501  0.58476  Biso   1.000  C
  C87      1.0000 0.74032  0.92174  0.51630  Biso   1.000  C
  C88      1.0000 0.74026  0.92174  0.51630  Biso   1.000  C
  O17      1.0000 0.01478  0.86998  0.33962  Biso   1.000  O
  O18      1.0000 0.14510  0.90271  0.39637  Biso   1.000  O
  C89      1.0000 0.10614  0.95734  0.23070  Biso   1.000  C
  H61      1.0000 0.14641  0.83677  0.12550  Biso   1.000  H
  H62      1.0000 0.18112  0.71507  0.06318  Biso   1.000  H
  H63      1.0000 0.18106  0.71507  0.06318  Biso   1.000  H
  H64      1.0000 0.38898  0.63310  0.67917  Biso   1.000  H
  H65      1.0000 0.91318  0.89637  0.62450  Biso   1.000  H
  C90      1.0000 0.03099  0.91851  0.62078  Biso   1.000  C
  C91      1.0000 0.09089  0.90367  0.46841  Biso   1.000  C
  C92      1.0000 0.09083  0.90367  0.46841  Biso   1.000  C
  C93      1.0000 0.70795  0.79896  0.64380  Biso   1.000  C
  H66      1.0000 0.80943  0.74990  0.58891  Biso   1.000  H
  H67      1.0000 0.80937  0.74990  0.58891  Biso   1.000  H
  C94      1.0000 0.67319  0.92605  0.57569  Biso   1.000  C
  H68      1.0000 0.75067  0.96416  0.47291  Biso   1.000  H
  C95      1.0000 0.04499  0.97511  0.16517  Biso   1.000  C
  C96      1.0000 0.17172  0.00969  0.23370  Biso   1.000  C
  C97      1.0000 0.10034  0.92120  0.56332  Biso   1.000  C
  H69      1.0000 0.03488  0.93107  0.68675  Biso   1.000  H
  H70      1.0000 0.69718  0.75672  0.68739  Biso   1.000  H
  C98      1.0000 0.65685  0.86436  0.63915  Biso   1.000  C
  C99      1.0000 0.65679  0.86436  0.63915  Biso   1.000  C
  H71      1.0000 0.63878  0.97116  0.57261  Biso   1.000  H
  H72      1.0000 0.99988  0.94059  0.16109  Biso   1.000  H
  C100     1.0000 0.04894  0.04206  0.10620  Biso   1.000  C
  H73      1.0000 0.21420  0.99928  0.27709  Biso   1.000  H
  C101     1.0000 0.17603  0.07677  0.17431  Biso   1.000  C
  H74      1.0000 0.15120  0.93460  0.58927  Biso   1.000  H
  H75      1.0000 0.61102  0.86687  0.67917  Biso   1.000  H
  H76      1.0000 0.00670  0.05277  0.06261  Biso   1.000  H
  C102     1.0000 0.11434  0.09316  0.11078  Biso   1.000  C
  H77      1.0000 0.22121  0.11117  0.17739  Biso   1.000  H
  H78      1.0000 0.11691  0.13899  0.07083  Biso   1.000  H
  C103     1.0000 0.74032  0.42171  0.48370  Biso   1.000  C
  C104     1.0000 0.67319  0.42602  0.42431  Biso   1.000  C
  C105     1.0000 0.79262  0.35619  0.48070  Biso   1.000  C
  H79      1.0000 0.75067  0.46419  0.52709  Biso   1.000  H
  C106     1.0000 0.65679  0.36433  0.36078  Biso   1.000  C
  C107     1.0000 0.65685  0.36433  0.36078  Biso   1.000  C
  H80      1.0000 0.63878  0.47119  0.42739  Biso   1.000  H
  C108     1.0000 0.74026  0.42171  0.48370  Biso   1.000  C
  C109     1.0000 0.77491  0.29498  0.41517  Biso   1.000  C
  B11      1.0000 0.86508  0.35051  0.55610  Biso   1.000  B
  B12      1.0000 0.86502  0.35051  0.55610  Biso   1.000  B
  C110     1.0000 0.70795  0.29893  0.35620  Biso   1.000  C
  H81      1.0000 0.61102  0.36690  0.32083  Biso   1.000  H
  H82      1.0000 0.80943  0.24993  0.41109  Biso   1.000  H
  H83      1.0000 0.80937  0.24993  0.41109  Biso   1.000  H
  O19      1.0000 0.88003  0.26476  0.58962  Biso   1.000  O
  O20      1.0000 0.84730  0.39508  0.64637  Biso   1.000  O
  N11      1.0000 0.94866  0.37970  0.51251  Biso   1.000  N
  O21      1.0000 0.87997  0.26476  0.58962  Biso   1.000  O
  H84      1.0000 0.69718  0.25669  0.31261  Biso   1.000  H
  C111     1.0000 0.86621  0.26446  0.68275  Biso   1.000  C
  C112     1.0000 0.84635  0.34087  0.71841  Biso   1.000  C
  C113     1.0000 0.95848  0.39807  0.41652  Biso   1.000  C
  C114     1.0000 0.95842  0.39807  0.41652  Biso   1.000  C
  C115     1.0000 0.01442  0.38377  0.56718  Biso   1.000  C
  N12      1.0000 0.87028  0.19865  0.73742  Biso   1.000  N
  C116     1.0000 0.82882  0.35033  0.81332  Biso   1.000  C
  C117     1.0000 0.82876  0.35033  0.81332  Biso   1.000  C
  H85      1.0000 0.91318  0.39640  0.37550  Biso   1.000  H
  C118     1.0000 0.03099  0.41848  0.37922  Biso   1.000  C
  O22      1.0000 0.01478  0.37001  0.66031  Biso   1.000  O
  C119     1.0000 0.09089  0.40364  0.53152  Biso   1.000  C
  C120     1.0000 0.09083  0.40364  0.53152  Biso   1.000  C
  C121     1.0000 0.85191  0.20846  0.83348  Biso   1.000  C
  B13      1.0000 0.89948  0.11506  0.69390  Biso   1.000  B
  H86      1.0000 0.81541  0.40118  0.83927  Biso   1.000  H
  C122     1.0000 0.83151  0.28098  0.87078  Biso   1.000  C
  C123     1.0000 0.10034  0.42123  0.43661  Biso   1.000  C
  H87      1.0000 0.03488  0.43110  0.31318  Biso   1.000  H
  B14      1.0000 0.10052  0.38497  0.69390  Biso   1.000  B
  O23      1.0000 0.14510  0.40268  0.60356  Biso   1.000  O
  H88      1.0000 0.85359  0.16323  0.87450  Biso   1.000  H
  O24      1.0000 0.98522  0.13002  0.66031  Biso   1.000  O
  O25      1.0000 0.85490  0.09729  0.60356  Biso   1.000  O
  C124     1.0000 0.89386  0.04260  0.76930  Biso   1.000  C
  C125     1.0000 0.89380  0.04260  0.76930  Biso   1.000  C
  H89      1.0000 0.81888  0.28487  0.93675  Biso   1.000  H
  H90      1.0000 0.15120  0.43457  0.41066  Biso   1.000  H
  N13      1.0000 0.12972  0.30132  0.73742  Biso   1.000  N
  C126     1.0000 0.10614  0.45737  0.76930  Biso   1.000  C
  N14      1.0000 0.12966  0.30132  0.73742  Biso   1.000  N
  C127     1.0000 0.98558  0.11620  0.56718  Biso   1.000  C
  C128     1.0000 0.98552  0.11620  0.56718  Biso   1.000  C
  C129     1.0000 0.90911  0.09633  0.53152  Biso   1.000  C
  C130     1.0000 0.95501  0.02489  0.83476  Biso   1.000  C
  C131     1.0000 0.82828  0.99031  0.76630  Biso   1.000  C
  C132     1.0000 0.13379  0.23557  0.68275  Biso   1.000  C
  C133     1.0000 0.14809  0.29157  0.83348  Biso   1.000  C
  C134     1.0000 0.04499  0.47508  0.83476  Biso   1.000  C
  C135     1.0000 0.17172  0.50972  0.76630  Biso   1.000  C
  N15      1.0000 0.05134  0.12033  0.51251  Biso   1.000  N
  C136     1.0000 0.89966  0.07880  0.43661  Biso   1.000  C
  C137     1.0000 0.95106  0.95794  0.89380  Biso   1.000  C
  H91      1.0000 0.00012  0.05941  0.83891  Biso   1.000  H
  H92      1.0000 0.00006  0.05941  0.83891  Biso   1.000  H
  H93      1.0000 0.78580  0.00072  0.72291  Biso   1.000  H
  C138     1.0000 0.82397  0.92317  0.82561  Biso   1.000  C
  O26      1.0000 0.11997  0.23521  0.58962  Biso   1.000  O
  C139     1.0000 0.15365  0.15916  0.71841  Biso   1.000  C
  C140     1.0000 0.16849  0.21899  0.87078  Biso   1.000  C
  H94      1.0000 0.14641  0.33680  0.87450  Biso   1.000  H
  H95      1.0000 0.99988  0.44062  0.83891  Biso   1.000  H
  C141     1.0000 0.04894  0.54203  0.89380  Biso   1.000  C
  C142     1.0000 0.17603  0.57680  0.82561  Biso   1.000  C
  H96      1.0000 0.21420  0.49931  0.72291  Biso   1.000  H
  B15      1.0000 0.13492  0.14946  0.55610  Biso   1.000  B
  C143     1.0000 0.04152  0.10190  0.41652  Biso   1.000  C
  H97      1.0000 0.84880  0.06540  0.41066  Biso   1.000  H
  C144     1.0000 0.96901  0.08149  0.37922  Biso   1.000  C
  H98      1.0000 0.99330  0.94723  0.93739  Biso   1.000  H
  C145     1.0000 0.88566  0.90684  0.88915  Biso   1.000  C
  H99      1.0000 0.77879  0.88883  0.82254  Biso   1.000  H
  O27      1.0000 0.15270  0.10489  0.64637  Biso   1.000  O
  C146     1.0000 0.17118  0.14964  0.81332  Biso   1.000  C
  H100     1.0000 0.18112  0.21510  0.93675  Biso   1.000  H
  H101     1.0000 0.18106  0.21510  0.93675  Biso   1.000  H
  H102     1.0000 0.00670  0.55280  0.93739  Biso   1.000  H
  C147     1.0000 0.11434  0.59319  0.88915  Biso   1.000  C
  H103     1.0000 0.22121  0.61120  0.82254  Biso   1.000  H
  C148     1.0000 0.20738  0.14384  0.48070  Biso   1.000  C
  H104     1.0000 0.08682  0.10357  0.37550  Biso   1.000  H
  H105     1.0000 0.08676  0.10357  0.37550  Biso   1.000  H
  H106     1.0000 0.96512  0.06893  0.31318  Biso   1.000  H
  H107     1.0000 0.88309  0.86101  0.92917  Biso   1.000  H
  H108     1.0000 0.18459  0.09879  0.83927  Biso   1.000  H
  H109     1.0000 0.11691  0.63896  0.92917  Biso   1.000  H
  C149     1.0000 0.22509  0.20499  0.41517  Biso   1.000  C
  C150     1.0000 0.25968  0.07826  0.48370  Biso   1.000  C
  H110     1.0000 0.19057  0.25010  0.41109  Biso   1.000  H
  C151     1.0000 0.29205  0.20104  0.35620  Biso   1.000  C
  C152     1.0000 0.32681  0.07395  0.42431  Biso   1.000  C
  H111     1.0000 0.24933  0.03578  0.52709  Biso   1.000  H
  H112     1.0000 0.24927  0.03578  0.52709  Biso   1.000  H
  H113     1.0000 0.30282  0.24328  0.31261  Biso   1.000  H
  C153     1.0000 0.34315  0.13564  0.36078  Biso   1.000  C
  H114     1.0000 0.30276  0.24328  0.31261  Biso   1.000  H
  H115     1.0000 0.36122  0.02878  0.42739  Biso   1.000  H
  H116     1.0000 0.36116  0.02878  0.42739  Biso   1.000  H
  H117     1.0000 0.38898  0.13307  0.32083  Biso   1.000  H
  C154     1.0000 0.74032  0.42171  0.48370  Biso   1.000  C
  C155     1.0000 0.79262  0.35619  0.48070  Biso   1.000  C
  C156     1.0000 0.67319  0.42602  0.42431  Biso   1.000  C
  H118     1.0000 0.75067  0.46419  0.52709  Biso   1.000  H
  C157     1.0000 0.77491  0.29498  0.41517  Biso   1.000  C
  B16      1.0000 0.86508  0.35051  0.55610  Biso   1.000  B
  C158     1.0000 0.74026  0.42171  0.48370  Biso   1.000  C
  B17      1.0000 0.86502  0.35051  0.55610  Biso   1.000  B
  C159     1.0000 0.65685  0.36433  0.36078  Biso   1.000  C
  C160     1.0000 0.65679  0.36433  0.36078  Biso   1.000  C
  H119     1.0000 0.63878  0.47119  0.42739  Biso   1.000  H
  C161     1.0000 0.70795  0.29893  0.35620  Biso   1.000  C
  H120     1.0000 0.80943  0.24993  0.41109  Biso   1.000  H
  H121     1.0000 0.80937  0.24993  0.41109  Biso   1.000  H
  O28      1.0000 0.84730  0.39508  0.64637  Biso   1.000  O
  N16      1.0000 0.94866  0.37970  0.51251  Biso   1.000  N
  O29      1.0000 0.88003  0.26476  0.58962  Biso   1.000  O
  O30      1.0000 0.87997  0.26476  0.58962  Biso   1.000  O
  H122     1.0000 0.61102  0.36690  0.32083  Biso   1.000  H
  H123     1.0000 0.69718  0.25669  0.31261  Biso   1.000  H
  C162     1.0000 0.84635  0.34087  0.71841  Biso   1.000  C
  C163     1.0000 0.95848  0.39807  0.41652  Biso   1.000  C
  C164     1.0000 0.95842  0.39807  0.41652  Biso   1.000  C
  C165     1.0000 0.01442  0.38377  0.56718  Biso   1.000  C
  C166     1.0000 0.86621  0.26446  0.68275  Biso   1.000  C
  C167     1.0000 0.82882  0.35033  0.81332  Biso   1.000  C
  C168     1.0000 0.82876  0.35033  0.81332  Biso   1.000  C
  H124     1.0000 0.91318  0.39640  0.37550  Biso   1.000  H
  C169     1.0000 0.03099  0.41848  0.37922  Biso   1.000  C
  O31      1.0000 0.01478  0.37001  0.66031  Biso   1.000  O
  C170     1.0000 0.09089  0.40364  0.53152  Biso   1.000  C
  C171     1.0000 0.09083  0.40364  0.53152  Biso   1.000  C
  N17      1.0000 0.87028  0.19865  0.73742  Biso   1.000  N
  H125     1.0000 0.81541  0.40118  0.83927  Biso   1.000  H
  C172     1.0000 0.83151  0.28098  0.87078  Biso   1.000  C
  C173     1.0000 0.10034  0.42123  0.43661  Biso   1.000  C
  H126     1.0000 0.03488  0.43110  0.31318  Biso   1.000  H
  B18      1.0000 0.10052  0.38497  0.69390  Biso   1.000  B
  O32      1.0000 0.14510  0.40268  0.60356  Biso   1.000  O
  C174     1.0000 0.85191  0.20846  0.83348  Biso   1.000  C
  B19      1.0000 0.89948  0.11506  0.69390  Biso   1.000  B
  H127     1.0000 0.81888  0.28487  0.93675  Biso   1.000  H
  H128     1.0000 0.15120  0.43457  0.41066  Biso   1.000  H
  N18      1.0000 0.12972  0.30132  0.73742  Biso   1.000  N
  C175     1.0000 0.10614  0.45737  0.76930  Biso   1.000  C
  N19      1.0000 0.12966  0.30132  0.73742  Biso   1.000  N
  H129     1.0000 0.85359  0.16323  0.87450  Biso   1.000  H
  O33      1.0000 0.98522  0.13002  0.66031  Biso   1.000  O
  O34      1.0000 0.85490  0.09729  0.60356  Biso   1.000  O
  C176     1.0000 0.89386  0.04260  0.76930  Biso   1.000  C
  C177     1.0000 0.89380  0.04260  0.76930  Biso   1.000  C
  C178     1.0000 0.13379  0.23557  0.68275  Biso   1.000  C
  C179     1.0000 0.14809  0.29157  0.83348  Biso   1.000  C
  C180     1.0000 0.04499  0.47508  0.83476  Biso   1.000  C
  C181     1.0000 0.17172  0.50972  0.76630  Biso   1.000  C
  C182     1.0000 0.98558  0.11620  0.56718  Biso   1.000  C
  C183     1.0000 0.98552  0.11620  0.56718  Biso   1.000  C
  C184     1.0000 0.90911  0.09633  0.53152  Biso   1.000  C
  C185     1.0000 0.95501  0.02489  0.83476  Biso   1.000  C
  C186     1.0000 0.82828  0.99031  0.76630  Biso   1.000  C
  O35      1.0000 0.11997  0.23521  0.58962  Biso   1.000  O
  C187     1.0000 0.15365  0.15916  0.71841  Biso   1.000  C
  C188     1.0000 0.16849  0.21899  0.87078  Biso   1.000  C
  H130     1.0000 0.14641  0.33680  0.87450  Biso   1.000  H
  H131     1.0000 0.99988  0.44062  0.83891  Biso   1.000  H
  C189     1.0000 0.04894  0.54203  0.89380  Biso   1.000  C
  C190     1.0000 0.17603  0.57680  0.82561  Biso   1.000  C
  H132     1.0000 0.21420  0.49931  0.72291  Biso   1.000  H
  N20      1.0000 0.05134  0.12033  0.51251  Biso   1.000  N
  C191     1.0000 0.89966  0.07880  0.43661  Biso   1.000  C
  C192     1.0000 0.95106  0.95794  0.89380  Biso   1.000  C
  H133     1.0000 0.00012  0.05941  0.83891  Biso   1.000  H
  H134     1.0000 0.00006  0.05941  0.83891  Biso   1.000  H
  H135     1.0000 0.78580  0.00072  0.72291  Biso   1.000  H
  C193     1.0000 0.82397  0.92317  0.82561  Biso   1.000  C
  B20      1.0000 0.13492  0.14946  0.55610  Biso   1.000  B
  O36      1.0000 0.15270  0.10489  0.64637  Biso   1.000  O
  C194     1.0000 0.17118  0.14964  0.81332  Biso   1.000  C
  H136     1.0000 0.18112  0.21510  0.93675  Biso   1.000  H
  H137     1.0000 0.18106  0.21510  0.93675  Biso   1.000  H
  H138     1.0000 0.00670  0.55280  0.93739  Biso   1.000  H
  C195     1.0000 0.11434  0.59319  0.88915  Biso   1.000  C
  H139     1.0000 0.22121  0.61120  0.82254  Biso   1.000  H
  C196     1.0000 0.04152  0.10190  0.41652  Biso   1.000  C
  H140     1.0000 0.84880  0.06540  0.41066  Biso   1.000  H
  C197     1.0000 0.96901  0.08149  0.37922  Biso   1.000  C
  H141     1.0000 0.99330  0.94723  0.93739  Biso   1.000  H
  C198     1.0000 0.88566  0.90684  0.88915  Biso   1.000  C
  H142     1.0000 0.77879  0.88883  0.82254  Biso   1.000  H
  C199     1.0000 0.20738  0.14384  0.48070  Biso   1.000  C
  H143     1.0000 0.18459  0.09879  0.83927  Biso   1.000  H
  H144     1.0000 0.11691  0.63896  0.92917  Biso   1.000  H
  H145     1.0000 0.08682  0.10357  0.37550  Biso   1.000  H
  H146     1.0000 0.08676  0.10357  0.37550  Biso   1.000  H
  H147     1.0000 0.96512  0.06893  0.31318  Biso   1.000  H
  H148     1.0000 0.88309  0.86101  0.92917  Biso   1.000  H
  C200     1.0000 0.22509  0.20499  0.41517  Biso   1.000  C
  C201     1.0000 0.25968  0.07826  0.48370  Biso   1.000  C
  H149     1.0000 0.19057  0.25010  0.41109  Biso   1.000  H
  C202     1.0000 0.29205  0.20104  0.35620  Biso   1.000  C
  C203     1.0000 0.32681  0.07395  0.42431  Biso   1.000  C
  H150     1.0000 0.24933  0.03578  0.52709  Biso   1.000  H
  H151     1.0000 0.24927  0.03578  0.52709  Biso   1.000  H
  H152     1.0000 0.30282  0.24328  0.31261  Biso   1.000  H
  C204     1.0000 0.34315  0.13564  0.36078  Biso   1.000  C
  H153     1.0000 0.30276  0.24328  0.31261  Biso   1.000  H
  H154     1.0000 0.36122  0.02878  0.42739  Biso   1.000  H
  H155     1.0000 0.36116  0.02878  0.42739  Biso   1.000  H
  H156     1.0000 0.38898  0.13307  0.32083  Biso   1.000  H
  C205     1.0000 0.67600  0.57680  0.67431  Biso   1.000  C
  C206     1.0000 0.67175  0.50972  0.73370  Biso   1.000  C
  C207     1.0000 0.61437  0.59319  0.61078  Biso   1.000  C
  H157     1.0000 0.72118  0.61120  0.67739  Biso   1.000  H
  C208     1.0000 0.60617  0.45737  0.73070  Biso   1.000  C
  H158     1.0000 0.71417  0.49931  0.77709  Biso   1.000  H
  C209     1.0000 0.54891  0.54203  0.60613  Biso   1.000  C
  H159     1.0000 0.61689  0.63896  0.57075  Biso   1.000  H
  B21      1.0000 0.60049  0.38497  0.80610  Biso   1.000  B
  C210     1.0000 0.54502  0.47508  0.66517  Biso   1.000  C
  H160     1.0000 0.50667  0.55280  0.56261  Biso   1.000  H
  O37      1.0000 0.51475  0.37001  0.83962  Biso   1.000  O
  O38      1.0000 0.64513  0.40268  0.89637  Biso   1.000  O
  N21      1.0000 0.62969  0.30132  0.76251  Biso   1.000  N
  H161     1.0000 0.49991  0.44062  0.66109  Biso   1.000  H
  C211     1.0000 0.51445  0.38377  0.93275  Biso   1.000  C
  C212     1.0000 0.59086  0.40364  0.96841  Biso   1.000  C
  C213     1.0000 0.63376  0.23557  0.81718  Biso   1.000  C
  C214     1.0000 0.64806  0.29157  0.66652  Biso   1.000  C
  N22      1.0000 0.44869  0.37970  0.98742  Biso   1.000  N
  C215     1.0000 0.60037  0.42123  0.06332  Biso   1.000  C
  O39      1.0000 0.62000  0.23521  0.91031  Biso   1.000  O
  C216     1.0000 0.65362  0.15916  0.78152  Biso   1.000  C
  C217     1.0000 0.66846  0.21899  0.62922  Biso   1.000  C
  H162     1.0000 0.64638  0.33680  0.62550  Biso   1.000  H
  B22      1.0000 0.36505  0.35051  0.94390  Biso   1.000  B
  C218     1.0000 0.45845  0.39807  0.08348  Biso   1.000  C
  C219     1.0000 0.53096  0.41848  0.12078  Biso   1.000  C
  H163     1.0000 0.65117  0.43457  0.08927  Biso   1.000  H
  B23      1.0000 0.63495  0.14946  0.94390  Biso   1.000  B
  O40      1.0000 0.65273  0.10489  0.85356  Biso   1.000  O
  C220     1.0000 0.67121  0.14964  0.68661  Biso   1.000  C
  H164     1.0000 0.68109  0.21510  0.56318  Biso   1.000  H
  O41      1.0000 0.34727  0.39508  0.85356  Biso   1.000  O
  O42      1.0000 0.38000  0.26476  0.91031  Biso   1.000  O
  C221     1.0000 0.29265  0.35619  0.01923  Biso   1.000  C
  H165     1.0000 0.41321  0.39640  0.12450  Biso   1.000  H
  H166     1.0000 0.53491  0.43110  0.18675  Biso   1.000  H
  N23      1.0000 0.55131  0.12033  0.98742  Biso   1.000  N
  C222     1.0000 0.70735  0.14384  0.01923  Biso   1.000  C
  H167     1.0000 0.68462  0.09879  0.66066  Biso   1.000  H
  C223     1.0000 0.34632  0.34087  0.78152  Biso   1.000  C
  C224     1.0000 0.36624  0.26446  0.81718  Biso   1.000  C
  C225     1.0000 0.27488  0.29498  0.08476  Biso   1.000  C
  C226     1.0000 0.24029  0.42171  0.01630  Biso   1.000  C
  C227     1.0000 0.48555  0.11620  0.93275  Biso   1.000  C
  C228     1.0000 0.54155  0.10190  0.08348  Biso   1.000  C
  C229     1.0000 0.72512  0.20499  0.08476  Biso   1.000  C
  C230     1.0000 0.75971  0.07826  0.01630  Biso   1.000  C
  C231     1.0000 0.32879  0.35033  0.68661  Biso   1.000  C
  N24      1.0000 0.37031  0.19865  0.76251  Biso   1.000  N
  H168     1.0000 0.30940  0.24993  0.08884  Biso   1.000  H
  C232     1.0000 0.20792  0.29893  0.14380  Biso   1.000  C
  H169     1.0000 0.25070  0.46419  0.97284  Biso   1.000  H
  C233     1.0000 0.17322  0.42602  0.07561  Biso   1.000  C
  O43      1.0000 0.48525  0.13002  0.83962  Biso   1.000  O
  C234     1.0000 0.40914  0.09633  0.96841  Biso   1.000  C
  C235     1.0000 0.46898  0.08149  0.12078  Biso   1.000  C
  H170     1.0000 0.58679  0.10357  0.12450  Biso   1.000  H
  H171     1.0000 0.69060  0.25010  0.08884  Biso   1.000  H
  C236     1.0000 0.79208  0.20104  0.14380  Biso   1.000  C
  H172     1.0000 0.74930  0.03578  0.97284  Biso   1.000  H
  C237     1.0000 0.82678  0.07395  0.07561  Biso   1.000  C
  C238     1.0000 0.33148  0.28098  0.62922  Biso   1.000  C
  H173     1.0000 0.31538  0.40118  0.66066  Biso   1.000  H
  C239     1.0000 0.35194  0.20846  0.66652  Biso   1.000  C
  B24      1.0000 0.39951  0.11506  0.80610  Biso   1.000  B
  H174     1.0000 0.19721  0.25669  0.18739  Biso   1.000  H
  C240     1.0000 0.15682  0.36433  0.13915  Biso   1.000  C
  H175     1.0000 0.13881  0.47119  0.07254  Biso   1.000  H
  O44      1.0000 0.35487  0.09729  0.89637  Biso   1.000  O
  C241     1.0000 0.39963  0.07880  0.06332  Biso   1.000  C
  H176     1.0000 0.46509  0.06893  0.18675  Biso   1.000  H
  H177     1.0000 0.80279  0.24328  0.18739  Biso   1.000  H
  C242     1.0000 0.84318  0.13564  0.13915  Biso   1.000  C
  H178     1.0000 0.86119  0.02878  0.07254  Biso   1.000  H
  H179     1.0000 0.31891  0.28487  0.56318  Biso   1.000  H
  H180     1.0000 0.35362  0.16323  0.62550  Biso   1.000  H
  C243     1.0000 0.39383  0.04260  0.73070  Biso   1.000  C
  H181     1.0000 0.11099  0.36690  0.17917  Biso   1.000  H
  H182     1.0000 0.34877  0.06540  0.08927  Biso   1.000  H
  H183     1.0000 0.88901  0.13307  0.17917  Biso   1.000  H
  C244     1.0000 0.45498  0.02489  0.66517  Biso   1.000  C
  C245     1.0000 0.32825  0.99031  0.73370  Biso   1.000  C
  H184     1.0000 0.50009  0.05941  0.66109  Biso   1.000  H
  C246     1.0000 0.45103  0.95794  0.60613  Biso   1.000  C
  H185     1.0000 0.28583  0.00072  0.77709  Biso   1.000  H
  C247     1.0000 0.32394  0.92317  0.67431  Biso   1.000  C
  H186     1.0000 0.49327  0.94723  0.56261  Biso   1.000  H
  C248     1.0000 0.38563  0.90684  0.61078  Biso   1.000  C
  H187     1.0000 0.27882  0.88883  0.67739  Biso   1.000  H
  H188     1.0000 0.38311  0.86101  0.57075  Biso   1.000  H
  C249     1.0000 0.67121  0.64961  0.31339  Biso   1.000  C
  C250     1.0000 0.65362  0.65913  0.21841  Biso   1.000  C
  H189     1.0000 0.68462  0.59882  0.33927  Biso   1.000  H
  C251     1.0000 0.66846  0.71902  0.37078  Biso   1.000  C
  O45      1.0000 0.65273  0.60486  0.14637  Biso   1.000  O
  C252     1.0000 0.63376  0.73554  0.18282  Biso   1.000  C
  C253     1.0000 0.64806  0.79154  0.33348  Biso   1.000  C
  H190     1.0000 0.68109  0.71507  0.43682  Biso   1.000  H
  B25      1.0000 0.63495  0.64949  0.05610  Biso   1.000  B
  O46      1.0000 0.62000  0.73524  0.08962  Biso   1.000  O
  N25      1.0000 0.62969  0.80129  0.23742  Biso   1.000  N
  H191     1.0000 0.64638  0.83677  0.37450  Biso   1.000  H
  N26      1.0000 0.55131  0.62030  0.01258  Biso   1.000  N
  C254     1.0000 0.70735  0.64381  0.98070  Biso   1.000  C
  B26      1.0000 0.60049  0.88494  0.19390  Biso   1.000  B
  C255     1.0000 0.48555  0.61623  0.06718  Biso   1.000  C
  C256     1.0000 0.54155  0.60193  0.91652  Biso   1.000  C
  C257     1.0000 0.72512  0.70496  0.91517  Biso   1.000  C
  C258     1.0000 0.75971  0.57823  0.98370  Biso   1.000  C
  O47      1.0000 0.51475  0.86998  0.16031  Biso   1.000  O
  O48      1.0000 0.64513  0.90271  0.10363  Biso   1.000  O
  C259     1.0000 0.60617  0.95734  0.26930  Biso   1.000  C
  O49      1.0000 0.48525  0.62999  0.16031  Biso   1.000  O
  C260     1.0000 0.40914  0.59636  0.03152  Biso   1.000  C
  C261     1.0000 0.46898  0.58152  0.87922  Biso   1.000  C
  H192     1.0000 0.58679  0.60360  0.87550  Biso   1.000  H
  H193     1.0000 0.69060  0.75007  0.91109  Biso   1.000  H
  C262     1.0000 0.79208  0.70107  0.85620  Biso   1.000  C
  H194     1.0000 0.74930  0.53581  0.02709  Biso   1.000  H
  C263     1.0000 0.82678  0.57398  0.92431  Biso   1.000  C
  C264     1.0000 0.51445  0.88374  0.06718  Biso   1.000  C
  C265     1.0000 0.59086  0.90367  0.03152  Biso   1.000  C
  C266     1.0000 0.54502  0.97511  0.33483  Biso   1.000  C
  C267     1.0000 0.67175  0.00969  0.26630  Biso   1.000  C
  B27      1.0000 0.39951  0.61503  0.19390  Biso   1.000  B
  O50      1.0000 0.35487  0.59726  0.10363  Biso   1.000  O
  C268     1.0000 0.39963  0.57877  0.93661  Biso   1.000  C
  H195     1.0000 0.46509  0.56890  0.81318  Biso   1.000  H
  H196     1.0000 0.80279  0.74331  0.81261  Biso   1.000  H
  C269     1.0000 0.84318  0.63561  0.86078  Biso   1.000  C
  H197     1.0000 0.86119  0.52881  0.92739  Biso   1.000  H
  N27      1.0000 0.44869  0.87967  0.01258  Biso   1.000  N
  C270     1.0000 0.60037  0.92120  0.93661  Biso   1.000  C
  H198     1.0000 0.49991  0.94059  0.33891  Biso   1.000  H
  C271     1.0000 0.54891  0.04206  0.39380  Biso   1.000  C
  H199     1.0000 0.71417  0.99928  0.22291  Biso   1.000  H
  C272     1.0000 0.67600  0.07677  0.32569  Biso   1.000  C
  C273     1.0000 0.39383  0.54263  0.26930  Biso   1.000  C
  N28      1.0000 0.37031  0.69868  0.23742  Biso   1.000  N
  H200     1.0000 0.34877  0.56537  0.91073  Biso   1.000  H
  H201     1.0000 0.88901  0.63310  0.82083  Biso   1.000  H
  B28      1.0000 0.36505  0.85048  0.05610  Biso   1.000  B
  C274     1.0000 0.45845  0.89804  0.91652  Biso   1.000  C
  C275     1.0000 0.53096  0.91851  0.87922  Biso   1.000  C
  H202     1.0000 0.65117  0.93460  0.91073  Biso   1.000  H
  H203     1.0000 0.50667  0.05277  0.43739  Biso   1.000  H
  C276     1.0000 0.61437  0.09316  0.38922  Biso   1.000  C
  H204     1.0000 0.72118  0.11117  0.32261  Biso   1.000  H
  C277     1.0000 0.32825  0.49028  0.26630  Biso   1.000  C
  C278     1.0000 0.45498  0.52486  0.33483  Biso   1.000  C
  C279     1.0000 0.36624  0.76443  0.18282  Biso   1.000  C
  C280     1.0000 0.35194  0.70843  0.33348  Biso   1.000  C
  O51      1.0000 0.38000  0.76473  0.08962  Biso   1.000  O
  O52      1.0000 0.34727  0.89511  0.14637  Biso   1.000  O
  C281     1.0000 0.29265  0.85616  0.98070  Biso   1.000  C
  H205     1.0000 0.41321  0.89637  0.87550  Biso   1.000  H
  H206     1.0000 0.53491  0.93107  0.81318  Biso   1.000  H
  H207     1.0000 0.61689  0.13899  0.42917  Biso   1.000  H
  C282     1.0000 0.32394  0.42320  0.32569  Biso   1.000  C
  H208     1.0000 0.28583  0.50069  0.22291  Biso   1.000  H
  C283     1.0000 0.45103  0.45791  0.39380  Biso   1.000  C
  H209     1.0000 0.50009  0.55938  0.33891  Biso   1.000  H
  C284     1.0000 0.34632  0.84084  0.21841  Biso   1.000  C
  C285     1.0000 0.33148  0.78101  0.37078  Biso   1.000  C
  H210     1.0000 0.35362  0.66320  0.37450  Biso   1.000  H
  C286     1.0000 0.27488  0.79501  0.91517  Biso   1.000  C
  C287     1.0000 0.24029  0.92174  0.98370  Biso   1.000  C
  C288     1.0000 0.38563  0.40681  0.38922  Biso   1.000  C
  H211     1.0000 0.27882  0.38880  0.32261  Biso   1.000  H
  H212     1.0000 0.49327  0.44720  0.43739  Biso   1.000  H
  C289     1.0000 0.32879  0.85036  0.31339  Biso   1.000  C
  H213     1.0000 0.31891  0.78490  0.43682  Biso   1.000  H
  H214     1.0000 0.30940  0.74990  0.91109  Biso   1.000  H
  C290     1.0000 0.20792  0.79896  0.85620  Biso   1.000  C
  H215     1.0000 0.25070  0.96416  0.02709  Biso   1.000  H
  C291     1.0000 0.17322  0.92605  0.92431  Biso   1.000  C
  H216     1.0000 0.38311  0.36098  0.42917  Biso   1.000  H
  H217     1.0000 0.31538  0.90121  0.33927  Biso   1.000  H
  H218     1.0000 0.19721  0.75672  0.81261  Biso   1.000  H
  C292     1.0000 0.15682  0.86436  0.86078  Biso   1.000  C
  H219     1.0000 0.13881  0.97116  0.92739  Biso   1.000  H
  H220     1.0000 0.11099  0.86687  0.82083  Biso   1.000  H
