data_image0
_cell_length_a       13.944
_cell_length_b       17.897
_cell_length_c       29.542
_cell_angle_alpha    90
_cell_angle_beta     90
_cell_angle_gamma    90

_symmetry_space_group_name_H-M    "P 1"
_symmetry_int_tables_number       1

loop_
  _symmetry_equiv_pos_as_xyz
  'x, y, z'

loop_
  _atom_site_label
  _atom_site_occupancy
  _atom_site_fract_x
  _atom_site_fract_y
  _atom_site_fract_z
  _atom_site_thermal_displace_type
  _atom_site_B_iso_or_equiv
  _atom_site_type_symbol
  C1       1.0000 0.60162  0.54490  0.49377  Biso   1.000  C
  C2       1.0000 0.61381  0.50835  0.45288  Biso   1.000  C
  C3       1.0000 0.61976  0.50796  0.53405  Biso   1.000  C
  H1       1.0000 0.58111  0.59429  0.49421  Biso   1.000  H
  C4       1.0000 0.64379  0.43460  0.45298  Biso   1.000  C
  H2       1.0000 0.60212  0.53299  0.42570  Biso   1.000  H
  C5       1.0000 0.64881  0.43410  0.53256  Biso   1.000  C
  H3       1.0000 0.61259  0.53238  0.56161  Biso   1.000  H
  O1       1.0000 0.66423  0.40152  0.41091  Biso   1.000  O
  C6       1.0000 0.66179  0.39616  0.49245  Biso   1.000  C
  O2       1.0000 0.67520  0.40141  0.57413  Biso   1.000  O
  C7       1.0000 0.60420  0.35000  0.39327  Biso   1.000  C
  H4       1.0000 0.68187  0.34659  0.49201  Biso   1.000  H
  C8       1.0000 0.63425  0.33732  0.58872  Biso   1.000  C
  N1       1.0000 0.63217  0.32614  0.35282  Biso   1.000  N
  N2       1.0000 0.52603  0.33011  0.41642  Biso   1.000  N
  N3       1.0000 0.67814  0.31061  0.62538  Biso   1.000  N
  N4       1.0000 0.55830  0.30988  0.56746  Biso   1.000  N
  C9       1.0000 0.57143  0.27642  0.33512  Biso   1.000  C
  C10      1.0000 0.47433  0.27966  0.39429  Biso   1.000  C
  C11      1.0000 0.63848  0.24820  0.64041  Biso   1.000  C
  C12      1.0000 0.52596  0.24775  0.58733  Biso   1.000  C
  O3       1.0000 0.59732  0.25295  0.29379  Biso   1.000  O
  N5       1.0000 0.49204  0.24999  0.35356  Biso   1.000  N
  O4       1.0000 0.39221  0.25384  0.41213  Biso   1.000  O
  N6       1.0000 0.56261  0.21261  0.62298  Biso   1.000  N
  O5       1.0000 0.67456  0.21456  0.67693  Biso   1.000  O
  O6       1.0000 0.44585  0.21490  0.57190  Biso   1.000  O
  C13      1.0000 0.53328  0.20110  0.27121  Biso   1.000  C
  C14      1.0000 0.36876  0.26731  0.45786  Biso   1.000  C
  C15      1.0000 0.75918  0.24809  0.69711  Biso   1.000  C
  C16      1.0000 0.39429  0.24742  0.53575  Biso   1.000  C
  H5       1.0000 0.53292  0.15450  0.28718  Biso   1.000  H
  H6       1.0000 0.46959  0.22149  0.27070  Biso   1.000  H
  H7       1.0000 0.55493  0.19310  0.24081  Biso   1.000  H
  C17      1.0000 0.28105  0.30066  0.46656  Biso   1.000  C
  C18      1.0000 0.42757  0.24021  0.49181  Biso   1.000  C
  H8       1.0000 0.77998  0.21819  0.72219  Biso   1.000  H
  H9       1.0000 0.80952  0.25060  0.67490  Biso   1.000  H
  H10      1.0000 0.74412  0.29748  0.70740  Biso   1.000  H
  C19      1.0000 0.30680  0.27943  0.54600  Biso   1.000  C
  H11      1.0000 0.24347  0.31838  0.44289  Biso   1.000  H
  C20      1.0000 0.24943  0.30731  0.51114  Biso   1.000  C
  H12      1.0000 0.48652  0.21819  0.48541  Biso   1.000  H
  H13      1.0000 0.28622  0.28228  0.57589  Biso   1.000  H
  C21      1.0000 0.15440  0.34503  0.52207  Biso   1.000  C
  O7       1.0000 0.10972  0.37364  0.48957  Biso   1.000  O
  O8       1.0000 0.12715  0.34324  0.56249  Biso   1.000  O
  C22      1.0000 0.39838  0.45510  0.50623  Biso   1.000  C
  C23      1.0000 0.38024  0.49204  0.46595  Biso   1.000  C
  H14      1.0000 0.41889  0.40571  0.50579  Biso   1.000  H
  C24      1.0000 0.38619  0.49165  0.54712  Biso   1.000  C
  C25      1.0000 0.35119  0.56590  0.46744  Biso   1.000  C
  H15      1.0000 0.38741  0.46762  0.43839  Biso   1.000  H
  C26      1.0000 0.35621  0.56540  0.54702  Biso   1.000  C
  H16      1.0000 0.39788  0.46701  0.57430  Biso   1.000  H
  O9       1.0000 0.32480  0.59859  0.42587  Biso   1.000  O
  C27      1.0000 0.33821  0.60384  0.50755  Biso   1.000  C
  O10      1.0000 0.33577  0.59848  0.58909  Biso   1.000  O
  C28      1.0000 0.36575  0.66268  0.41128  Biso   1.000  C
  H17      1.0000 0.31813  0.65341  0.50799  Biso   1.000  H
  C29      1.0000 0.39580  0.65000  0.60673  Biso   1.000  C
  N7       1.0000 0.32186  0.68939  0.37462  Biso   1.000  N
  N8       1.0000 0.44170  0.69012  0.43254  Biso   1.000  N
  N9       1.0000 0.36783  0.67386  0.64718  Biso   1.000  N
  N10      1.0000 0.47397  0.66989  0.58358  Biso   1.000  N
  C30      1.0000 0.36152  0.75180  0.35959  Biso   1.000  C
  C31      1.0000 0.47404  0.75225  0.41267  Biso   1.000  C
  C32      1.0000 0.42857  0.72358  0.66488  Biso   1.000  C
  C33      1.0000 0.52567  0.72034  0.60571  Biso   1.000  C
  O11      1.0000 0.32544  0.78544  0.32307  Biso   1.000  O
  N11      1.0000 0.43739  0.78739  0.37702  Biso   1.000  N
  O12      1.0000 0.55415  0.78510  0.42810  Biso   1.000  O
  O13      1.0000 0.40268  0.74705  0.70621  Biso   1.000  O
  N12      1.0000 0.50796  0.75001  0.64644  Biso   1.000  N
  O14      1.0000 0.60779  0.74616  0.58787  Biso   1.000  O
  C34      1.0000 0.24082  0.75191  0.30289  Biso   1.000  C
  C35      1.0000 0.60571  0.75258  0.46425  Biso   1.000  C
  C36      1.0000 0.46672  0.79890  0.72879  Biso   1.000  C
  C37      1.0000 0.63124  0.73269  0.54214  Biso   1.000  C
  H18      1.0000 0.22002  0.78181  0.27781  Biso   1.000  H
  H19      1.0000 0.19048  0.74940  0.32510  Biso   1.000  H
  H20      1.0000 0.25588  0.70252  0.29260  Biso   1.000  H
  C38      1.0000 0.69320  0.72057  0.45400  Biso   1.000  C
  C39      1.0000 0.57243  0.75979  0.50819  Biso   1.000  C
  H21      1.0000 0.46708  0.84550  0.71282  Biso   1.000  H
  H22      1.0000 0.53041  0.77851  0.72930  Biso   1.000  H
  H23      1.0000 0.44507  0.80690  0.75919  Biso   1.000  H
  C40      1.0000 0.71895  0.69934  0.53344  Biso   1.000  C
  C41      1.0000 0.75057  0.69269  0.48886  Biso   1.000  C
  H24      1.0000 0.71378  0.71772  0.42411  Biso   1.000  H
  H25      1.0000 0.51348  0.78181  0.51459  Biso   1.000  H
  H26      1.0000 0.75653  0.68162  0.55711  Biso   1.000  H
  C42      1.0000 0.84560  0.65497  0.47793  Biso   1.000  C
  O15      1.0000 0.89028  0.62636  0.51043  Biso   1.000  O
  O16      1.0000 0.87285  0.65676  0.43751  Biso   1.000  O
  C43      1.0000 0.86152  0.74817  0.64041  Biso   1.000  C
  N13      1.0000 0.82186  0.81064  0.62538  Biso   1.000  N
  N14      1.0000 0.93739  0.71263  0.62298  Biso   1.000  N
  O17      1.0000 0.82544  0.71459  0.67693  Biso   1.000  O
  C44      1.0000 0.86575  0.83729  0.58872  Biso   1.000  C
  C45      1.0000 0.97404  0.74778  0.58733  Biso   1.000  C
  C46      1.0000 0.74082  0.74811  0.69711  Biso   1.000  C
  O18      1.0000 0.82480  0.90144  0.57413  Biso   1.000  O
  N15      1.0000 0.94170  0.80986  0.56746  Biso   1.000  N
  O19      1.0000 0.05415  0.71492  0.57190  Biso   1.000  O
  H27      1.0000 0.72002  0.71822  0.72219  Biso   1.000  H
  H28      1.0000 0.69048  0.75057  0.67490  Biso   1.000  H
  H29      1.0000 0.75588  0.79751  0.70740  Biso   1.000  H
  C47      1.0000 0.85119  0.93407  0.53256  Biso   1.000  C
  C48      1.0000 0.10571  0.74744  0.53575  Biso   1.000  C
  C49      1.0000 0.83821  0.89613  0.49245  Biso   1.000  C
  C50      1.0000 0.88024  0.00793  0.53405  Biso   1.000  C
  C51      1.0000 0.07243  0.74018  0.49181  Biso   1.000  C
  C52      1.0000 0.19320  0.77940  0.54600  Biso   1.000  C
  C53      1.0000 0.85621  0.93463  0.45298  Biso   1.000  C
  H30      1.0000 0.81813  0.84662  0.49201  Biso   1.000  H
  C54      1.0000 0.89838  0.04487  0.49377  Biso   1.000  C
  H31      1.0000 0.88741  0.03241  0.56161  Biso   1.000  H
  C55      1.0000 0.13124  0.76728  0.45786  Biso   1.000  C
  H32      1.0000 0.01348  0.71822  0.48541  Biso   1.000  H
  C56      1.0000 0.25057  0.80734  0.51114  Biso   1.000  C
  H33      1.0000 0.21378  0.78231  0.57589  Biso   1.000  H
  O20      1.0000 0.83577  0.90149  0.41091  Biso   1.000  O
  C57      1.0000 0.88619  0.00833  0.45288  Biso   1.000  C
  H34      1.0000 0.91889  0.09432  0.49421  Biso   1.000  H
  O21      1.0000 0.10779  0.75381  0.41213  Biso   1.000  O
  C58      1.0000 0.21895  0.80064  0.46656  Biso   1.000  C
  C59      1.0000 0.34560  0.84506  0.52207  Biso   1.000  C
  C60      1.0000 0.89580  0.84997  0.39327  Biso   1.000  C
  H35      1.0000 0.89788  0.03302  0.42570  Biso   1.000  H
  C61      1.0000 0.02567  0.77968  0.39429  Biso   1.000  C
  H36      1.0000 0.25653  0.81841  0.44289  Biso   1.000  H
  O22      1.0000 0.39028  0.87361  0.48957  Biso   1.000  O
  O23      1.0000 0.37285  0.84321  0.56249  Biso   1.000  O
  N16      1.0000 0.86783  0.82617  0.35282  Biso   1.000  N
  N17      1.0000 0.97397  0.83008  0.41642  Biso   1.000  N
  N18      1.0000 0.00796  0.75001  0.35356  Biso   1.000  N
  C62      1.0000 0.92857  0.77639  0.33512  Biso   1.000  C
  O24      1.0000 0.90268  0.75298  0.29379  Biso   1.000  O
  C63      1.0000 0.96672  0.70112  0.27121  Biso   1.000  C
  H37      1.0000 0.96708  0.65452  0.28718  Biso   1.000  H
  H38      1.0000 0.94507  0.69308  0.24081  Biso   1.000  H
  H39      1.0000 0.03041  0.72152  0.27070  Biso   1.000  H
  C64      1.0000 0.13848  0.25183  0.35959  Biso   1.000  C
  O25      1.0000 0.17456  0.28541  0.32307  Biso   1.000  O
  N19      1.0000 0.06261  0.28737  0.37702  Biso   1.000  N
  N20      1.0000 0.17814  0.18936  0.37462  Biso   1.000  N
  C65      1.0000 0.25918  0.25189  0.30289  Biso   1.000  C
  C66      1.0000 0.02596  0.25222  0.41267  Biso   1.000  C
  C67      1.0000 0.13425  0.16271  0.41128  Biso   1.000  C
  H40      1.0000 0.27998  0.28178  0.27781  Biso   1.000  H
  H41      1.0000 0.30952  0.24943  0.32510  Biso   1.000  H
  H42      1.0000 0.24412  0.20249  0.29260  Biso   1.000  H
  N21      1.0000 0.05830  0.19014  0.43254  Biso   1.000  N
  O26      1.0000 0.94585  0.28508  0.42810  Biso   1.000  O
  O27      1.0000 0.17520  0.09856  0.42587  Biso   1.000  O
  C68      1.0000 0.89429  0.25256  0.46425  Biso   1.000  C
  C69      1.0000 0.14881  0.06593  0.46744  Biso   1.000  C
  C70      1.0000 0.80680  0.22060  0.45400  Biso   1.000  C
  C71      1.0000 0.92757  0.25982  0.50819  Biso   1.000  C
  C72      1.0000 0.16179  0.10387  0.50755  Biso   1.000  C
  C73      1.0000 0.11976  0.99207  0.46595  Biso   1.000  C
  C74      1.0000 0.74943  0.19266  0.48886  Biso   1.000  C
  H43      1.0000 0.78622  0.21769  0.42411  Biso   1.000  H
  C75      1.0000 0.86876  0.23272  0.54214  Biso   1.000  C
  H44      1.0000 0.98652  0.28178  0.51459  Biso   1.000  H
  C76      1.0000 0.14379  0.06537  0.54702  Biso   1.000  C
  H45      1.0000 0.18187  0.15338  0.50799  Biso   1.000  H
  H46      1.0000 0.11259  0.96759  0.43839  Biso   1.000  H
  C77      1.0000 0.10162  0.95513  0.50623  Biso   1.000  C
  C78      1.0000 0.78105  0.19936  0.53344  Biso   1.000  C
  C79      1.0000 0.65440  0.15494  0.47793  Biso   1.000  C
  O28      1.0000 0.89221  0.24619  0.58787  Biso   1.000  O
  O29      1.0000 0.16423  0.09851  0.58909  Biso   1.000  O
  C80      1.0000 0.11381  0.99167  0.54712  Biso   1.000  C
  H47      1.0000 0.08111  0.90568  0.50579  Biso   1.000  H
  H48      1.0000 0.74347  0.18159  0.55711  Biso   1.000  H
  O30      1.0000 0.60972  0.12639  0.51043  Biso   1.000  O
  O31      1.0000 0.62715  0.15679  0.43751  Biso   1.000  O
  C81      1.0000 0.97433  0.22032  0.60571  Biso   1.000  C
  C82      1.0000 0.10420  0.15003  0.60673  Biso   1.000  C
  H49      1.0000 0.10212  0.96698  0.57430  Biso   1.000  H
  N22      1.0000 0.02603  0.16992  0.58358  Biso   1.000  N
  N23      1.0000 0.99204  0.24999  0.64644  Biso   1.000  N
  N24      1.0000 0.13217  0.17383  0.64718  Biso   1.000  N
  C83      1.0000 0.07143  0.22361  0.66488  Biso   1.000  C
  O32      1.0000 0.09732  0.24702  0.70621  Biso   1.000  O
  C84      1.0000 0.03328  0.29888  0.72879  Biso   1.000  C
  H50      1.0000 0.03292  0.34548  0.71282  Biso   1.000  H
  H51      1.0000 0.05493  0.30692  0.75919  Biso   1.000  H
  H52      1.0000 0.96959  0.27848  0.72930  Biso   1.000  H
  C85      1.0000 0.53328  0.29888  0.77121  Biso   1.000  C
  O33      1.0000 0.59732  0.24702  0.79379  Biso   1.000  O
  H53      1.0000 0.53292  0.34548  0.78718  Biso   1.000  H
  H54      1.0000 0.46959  0.27848  0.77070  Biso   1.000  H
  H55      1.0000 0.55493  0.30692  0.74081  Biso   1.000  H
  C86      1.0000 0.57143  0.22361  0.83512  Biso   1.000  C
  N25      1.0000 0.63217  0.17383  0.85282  Biso   1.000  N
  N26      1.0000 0.49204  0.24999  0.85356  Biso   1.000  N
  C87      1.0000 0.60420  0.15003  0.89327  Biso   1.000  C
  C88      1.0000 0.47433  0.22032  0.89429  Biso   1.000  C
  O34      1.0000 0.66423  0.09851  0.91091  Biso   1.000  O
  N27      1.0000 0.52603  0.16992  0.91642  Biso   1.000  N
  O35      1.0000 0.39221  0.24619  0.91213  Biso   1.000  O
  C89      1.0000 0.64379  0.06537  0.95298  Biso   1.000  C
  C90      1.0000 0.36876  0.23272  0.95786  Biso   1.000  C
  C91      1.0000 0.66179  0.10387  0.99245  Biso   1.000  C
  C92      1.0000 0.61381  0.99167  0.95288  Biso   1.000  C
  C93      1.0000 0.28105  0.19936  0.96656  Biso   1.000  C
  C94      1.0000 0.42757  0.25982  0.99181  Biso   1.000  C
  H56      1.0000 0.68187  0.15338  0.99201  Biso   1.000  H
  C95      1.0000 0.64881  0.06593  0.03256  Biso   1.000  C
  C96      1.0000 0.60162  0.95513  0.99377  Biso   1.000  C
  H57      1.0000 0.60212  0.96698  0.92570  Biso   1.000  H
  H58      1.0000 0.24347  0.18159  0.94289  Biso   1.000  H
  C97      1.0000 0.24943  0.19266  0.01114  Biso   1.000  C
  H59      1.0000 0.48652  0.28178  0.98541  Biso   1.000  H
  C98      1.0000 0.39429  0.25256  0.03575  Biso   1.000  C
  C99      1.0000 0.61976  0.99207  0.03405  Biso   1.000  C
  O36      1.0000 0.67520  0.09856  0.07413  Biso   1.000  O
  H60      1.0000 0.58111  0.90568  0.99421  Biso   1.000  H
  C100     1.0000 0.30680  0.22060  0.04600  Biso   1.000  C
  C101     1.0000 0.15440  0.15494  0.02207  Biso   1.000  C
  O37      1.0000 0.44585  0.28508  0.07190  Biso   1.000  O
  H61      1.0000 0.61259  0.96759  0.06161  Biso   1.000  H
  C102     1.0000 0.63425  0.16271  0.08872  Biso   1.000  C
  H62      1.0000 0.28622  0.21769  0.07589  Biso   1.000  H
  O38      1.0000 0.10972  0.12639  0.98957  Biso   1.000  O
  O39      1.0000 0.12715  0.15679  0.06249  Biso   1.000  O
  C103     1.0000 0.52596  0.25222  0.08733  Biso   1.000  C
  N28      1.0000 0.67814  0.18936  0.12538  Biso   1.000  N
  N29      1.0000 0.55830  0.19014  0.06746  Biso   1.000  N
  N30      1.0000 0.56261  0.28737  0.12298  Biso   1.000  N
  C104     1.0000 0.63848  0.25183  0.14041  Biso   1.000  C
  O40      1.0000 0.67456  0.28541  0.17693  Biso   1.000  O
  C105     1.0000 0.75918  0.25189  0.19711  Biso   1.000  C
  H63      1.0000 0.77998  0.28178  0.22219  Biso   1.000  H
  H64      1.0000 0.80952  0.24943  0.17490  Biso   1.000  H
  H65      1.0000 0.74412  0.20249  0.20740  Biso   1.000  H
  C106     1.0000 0.46672  0.70112  0.22879  Biso   1.000  C
  O41      1.0000 0.40268  0.75298  0.20621  Biso   1.000  O
  H66      1.0000 0.46708  0.65452  0.21282  Biso   1.000  H
  H67      1.0000 0.53041  0.72152  0.22930  Biso   1.000  H
  H68      1.0000 0.44507  0.69308  0.25919  Biso   1.000  H
  C107     1.0000 0.42857  0.77639  0.16488  Biso   1.000  C
  N31      1.0000 0.36783  0.82617  0.14718  Biso   1.000  N
  N32      1.0000 0.50796  0.75001  0.14644  Biso   1.000  N
  C108     1.0000 0.39580  0.84997  0.10673  Biso   1.000  C
  C109     1.0000 0.52567  0.77968  0.10571  Biso   1.000  C
  O42      1.0000 0.33577  0.90149  0.08909  Biso   1.000  O
  N33      1.0000 0.47397  0.83008  0.08358  Biso   1.000  N
  O43      1.0000 0.60779  0.75381  0.08787  Biso   1.000  O
  C110     1.0000 0.35621  0.93463  0.04702  Biso   1.000  C
  C111     1.0000 0.63124  0.76728  0.04214  Biso   1.000  C
  C112     1.0000 0.33821  0.89613  0.00755  Biso   1.000  C
  C113     1.0000 0.38619  0.00833  0.04712  Biso   1.000  C
  C114     1.0000 0.71895  0.80064  0.03344  Biso   1.000  C
  C115     1.0000 0.57243  0.74018  0.00819  Biso   1.000  C
  H69      1.0000 0.31813  0.84662  0.00799  Biso   1.000  H
  C116     1.0000 0.35119  0.93407  0.96744  Biso   1.000  C
  C117     1.0000 0.39838  0.04487  0.00623  Biso   1.000  C
  H70      1.0000 0.39788  0.03302  0.07430  Biso   1.000  H
  H71      1.0000 0.75653  0.81841  0.05711  Biso   1.000  H
  C118     1.0000 0.75057  0.80734  0.98886  Biso   1.000  C
  H72      1.0000 0.51348  0.71822  0.01459  Biso   1.000  H
  C119     1.0000 0.60571  0.74744  0.96425  Biso   1.000  C
  O44      1.0000 0.32480  0.90144  0.92587  Biso   1.000  O
  C120     1.0000 0.38024  0.00793  0.96595  Biso   1.000  C
  H73      1.0000 0.41889  0.09432  0.00579  Biso   1.000  H
  C121     1.0000 0.69320  0.77940  0.95400  Biso   1.000  C
  C122     1.0000 0.84560  0.84506  0.97793  Biso   1.000  C
  O45      1.0000 0.55415  0.71492  0.92810  Biso   1.000  O
  C123     1.0000 0.36575  0.83729  0.91128  Biso   1.000  C
  H74      1.0000 0.38741  0.03241  0.93839  Biso   1.000  H
  H75      1.0000 0.71378  0.78231  0.92411  Biso   1.000  H
  O46      1.0000 0.89028  0.87361  0.01043  Biso   1.000  O
  O47      1.0000 0.87285  0.84321  0.93751  Biso   1.000  O
  C124     1.0000 0.47404  0.74778  0.91267  Biso   1.000  C
  N34      1.0000 0.32186  0.81064  0.87462  Biso   1.000  N
  N35      1.0000 0.44170  0.80986  0.93254  Biso   1.000  N
  N36      1.0000 0.43739  0.71263  0.87702  Biso   1.000  N
  C125     1.0000 0.36152  0.74817  0.85959  Biso   1.000  C
  O48      1.0000 0.32544  0.71459  0.82307  Biso   1.000  O
  C126     1.0000 0.24082  0.74811  0.80289  Biso   1.000  C
  H76      1.0000 0.22002  0.71822  0.77781  Biso   1.000  H
  H77      1.0000 0.19048  0.75057  0.82510  Biso   1.000  H
  H78      1.0000 0.25588  0.79751  0.79260  Biso   1.000  H
  O49      1.0000 0.90268  0.74705  0.79379  Biso   1.000  O
  C127     1.0000 0.92857  0.72358  0.83512  Biso   1.000  C
  C128     1.0000 0.96672  0.79890  0.77121  Biso   1.000  C
  N37      1.0000 0.86783  0.67386  0.85282  Biso   1.000  N
  N38      1.0000 0.00796  0.75001  0.85356  Biso   1.000  N
  H79      1.0000 0.96708  0.84550  0.78718  Biso   1.000  H
  H80      1.0000 0.94507  0.80690  0.74081  Biso   1.000  H
  H81      1.0000 0.03041  0.77851  0.77070  Biso   1.000  H
  C129     1.0000 0.89580  0.65000  0.89327  Biso   1.000  C
  C130     1.0000 0.02567  0.72034  0.89429  Biso   1.000  C
  O50      1.0000 0.83577  0.59848  0.91091  Biso   1.000  O
  N39      1.0000 0.97397  0.66989  0.91642  Biso   1.000  N
  O51      1.0000 0.10779  0.74616  0.91213  Biso   1.000  O
  C131     1.0000 0.85621  0.56540  0.95298  Biso   1.000  C
  C132     1.0000 0.13124  0.73269  0.95786  Biso   1.000  C
  C133     1.0000 0.88619  0.49165  0.95288  Biso   1.000  C
  C134     1.0000 0.83821  0.60384  0.99245  Biso   1.000  C
  C135     1.0000 0.21895  0.69934  0.96656  Biso   1.000  C
  C136     1.0000 0.07243  0.75979  0.99181  Biso   1.000  C
  C137     1.0000 0.89838  0.45510  0.99377  Biso   1.000  C
  H82      1.0000 0.89788  0.46701  0.92570  Biso   1.000  H
  H83      1.0000 0.81813  0.65341  0.99201  Biso   1.000  H
  C138     1.0000 0.85119  0.56590  0.03256  Biso   1.000  C
  H84      1.0000 0.25653  0.68162  0.94289  Biso   1.000  H
  C139     1.0000 0.25057  0.69269  0.01114  Biso   1.000  C
  H85      1.0000 0.01348  0.78181  0.98541  Biso   1.000  H
  C140     1.0000 0.10571  0.75258  0.03575  Biso   1.000  C
  H86      1.0000 0.91889  0.40571  0.99421  Biso   1.000  H
  C141     1.0000 0.88024  0.49204  0.03405  Biso   1.000  C
  O52      1.0000 0.82480  0.59859  0.07413  Biso   1.000  O
  C142     1.0000 0.19320  0.72057  0.04600  Biso   1.000  C
  C143     1.0000 0.34560  0.65497  0.02207  Biso   1.000  C
  O53      1.0000 0.05415  0.78510  0.07190  Biso   1.000  O
  H87      1.0000 0.88741  0.46762  0.06161  Biso   1.000  H
  C144     1.0000 0.86575  0.66268  0.08872  Biso   1.000  C
  H88      1.0000 0.21378  0.71772  0.07589  Biso   1.000  H
  O54      1.0000 0.39028  0.62636  0.98957  Biso   1.000  O
  O55      1.0000 0.37285  0.65676  0.06249  Biso   1.000  O
  C145     1.0000 0.97404  0.75225  0.08733  Biso   1.000  C
  N40      1.0000 0.82186  0.68939  0.12538  Biso   1.000  N
  N41      1.0000 0.94170  0.69012  0.06746  Biso   1.000  N
  N42      1.0000 0.93739  0.78739  0.12298  Biso   1.000  N
  C146     1.0000 0.86152  0.75180  0.14041  Biso   1.000  C
  O56      1.0000 0.82544  0.78544  0.17693  Biso   1.000  O
  C147     1.0000 0.74082  0.75191  0.19711  Biso   1.000  C
  H89      1.0000 0.72002  0.78181  0.22219  Biso   1.000  H
  H90      1.0000 0.69048  0.74940  0.17490  Biso   1.000  H
  H91      1.0000 0.75588  0.70252  0.20740  Biso   1.000  H
  O57      1.0000 0.09732  0.25295  0.20621  Biso   1.000  O
  C148     1.0000 0.07143  0.27642  0.16488  Biso   1.000  C
  C149     1.0000 0.03328  0.20110  0.22879  Biso   1.000  C
  N43      1.0000 0.13217  0.32614  0.14718  Biso   1.000  N
  N44      1.0000 0.99204  0.24999  0.14644  Biso   1.000  N
  H92      1.0000 0.03292  0.15450  0.21282  Biso   1.000  H
  H93      1.0000 0.05493  0.19310  0.25919  Biso   1.000  H
  H94      1.0000 0.96959  0.22149  0.22930  Biso   1.000  H
  C150     1.0000 0.10420  0.35000  0.10673  Biso   1.000  C
  C151     1.0000 0.97433  0.27966  0.10571  Biso   1.000  C
  O58      1.0000 0.16423  0.40152  0.08909  Biso   1.000  O
  N45      1.0000 0.02603  0.33011  0.08358  Biso   1.000  N
  O59      1.0000 0.89221  0.25384  0.08787  Biso   1.000  O
  C152     1.0000 0.14379  0.43460  0.04702  Biso   1.000  C
  C153     1.0000 0.86876  0.26731  0.04214  Biso   1.000  C
  C154     1.0000 0.11381  0.50835  0.04712  Biso   1.000  C
  C155     1.0000 0.16179  0.39616  0.00755  Biso   1.000  C
  C156     1.0000 0.78105  0.30066  0.03344  Biso   1.000  C
  C157     1.0000 0.92757  0.24021  0.00819  Biso   1.000  C
  C158     1.0000 0.10162  0.54490  0.00623  Biso   1.000  C
  H95      1.0000 0.10212  0.53299  0.07430  Biso   1.000  H
  H96      1.0000 0.18187  0.34659  0.00799  Biso   1.000  H
  C159     1.0000 0.14881  0.43410  0.96744  Biso   1.000  C
  C160     1.0000 0.74943  0.30731  0.98886  Biso   1.000  C
  H97      1.0000 0.74347  0.31838  0.05711  Biso   1.000  H
  C161     1.0000 0.89429  0.24742  0.96425  Biso   1.000  C
  H98      1.0000 0.98652  0.21819  0.01459  Biso   1.000  H
  H99      1.0000 0.08111  0.59429  0.00579  Biso   1.000  H
  C162     1.0000 0.11976  0.50796  0.96595  Biso   1.000  C
  O60      1.0000 0.17520  0.40141  0.92587  Biso   1.000  O
  C163     1.0000 0.80680  0.27943  0.95400  Biso   1.000  C
  C164     1.0000 0.65440  0.34503  0.97793  Biso   1.000  C
  O61      1.0000 0.94585  0.21490  0.92810  Biso   1.000  O
  H100     1.0000 0.11259  0.53238  0.93839  Biso   1.000  H
  C165     1.0000 0.13425  0.33732  0.91128  Biso   1.000  C
  H101     1.0000 0.78622  0.28228  0.92411  Biso   1.000  H
  O62      1.0000 0.62715  0.34324  0.93751  Biso   1.000  O
  O63      1.0000 0.60972  0.37364  0.01043  Biso   1.000  O
  C166     1.0000 0.02596  0.24775  0.91267  Biso   1.000  C
  N46      1.0000 0.17814  0.31061  0.87462  Biso   1.000  N
  N47      1.0000 0.05830  0.30988  0.93254  Biso   1.000  N
  N48      1.0000 0.06261  0.21261  0.87702  Biso   1.000  N
  C167     1.0000 0.13848  0.24820  0.85959  Biso   1.000  C
  O64      1.0000 0.17456  0.21456  0.82307  Biso   1.000  O
  C168     1.0000 0.25918  0.24809  0.80289  Biso   1.000  C
  H102     1.0000 0.27998  0.21819  0.77781  Biso   1.000  H
  H103     1.0000 0.30952  0.25060  0.82510  Biso   1.000  H
  H104     1.0000 0.24412  0.29748  0.79260  Biso   1.000  H
