data_image0
_cell_length_a       8.805
_cell_length_b       11.229
_cell_length_c       11.886
_cell_angle_alpha    87.87
_cell_angle_beta     72.45
_cell_angle_gamma    78.86

_symmetry_space_group_name_H-M    "P 1"
_symmetry_int_tables_number       1

loop_
  _symmetry_equiv_pos_as_xyz
  'x, y, z'

loop_
  _atom_site_label
  _atom_site_occupancy
  _atom_site_fract_x
  _atom_site_fract_y
  _atom_site_fract_z
  _atom_site_thermal_displace_type
  _atom_site_B_iso_or_equiv
  _atom_site_type_symbol
  C1       1.0000 0.48657  0.68266  0.47397  Biso   1.000  C
  N1       1.0000 0.50618  0.63301  0.36823  Biso   1.000  N
  N2       1.0000 0.35546  0.68120  0.56788  Biso   1.000  N
  N3       1.0000 0.60248  0.73541  0.48650  Biso   1.000  N
  C2       1.0000 0.39020  0.58230  0.36188  Biso   1.000  C
  H1       1.0000 0.59060  0.63499  0.30892  Biso   1.000  H
  C3       1.0000 0.24672  0.63060  0.54617  Biso   1.000  C
  H2       1.0000 0.34473  0.71110  0.63611  Biso   1.000  H
  C4       1.0000 0.60173  0.77904  0.60257  Biso   1.000  C
  C5       1.0000 0.73195  0.75393  0.38491  Biso   1.000  C
  O1       1.0000 0.40044  0.52712  0.26046  Biso   1.000  O
  N4       1.0000 0.25445  0.57841  0.44828  Biso   1.000  N
  Cl1      1.0000 0.06942  0.63729  0.66241  Biso   1.000  Cl
  H3       1.0000 0.50933  0.76019  0.66267  Biso   1.000  H
  H4       1.0000 0.69928  0.73985  0.61934  Biso   1.000  H
  H5       1.0000 0.59588  0.86532  0.60124  Biso   1.000  H
  C6       1.0000 0.88805  0.68847  0.36858  Biso   1.000  C
  C7       1.0000 0.69796  0.84168  0.30592  Biso   1.000  C
  C8       1.0000 0.53977  0.52441  0.16284  Biso   1.000  C
  H6       1.0000 0.17874  0.54437  0.44034  Biso   1.000  H
  H7       1.0000 0.90922  0.62990  0.42207  Biso   1.000  H
  C9       1.0000 0.01187  0.71173  0.27158  Biso   1.000  C
  C10      1.0000 0.82276  0.86177  0.20953  Biso   1.000  C
  H8       1.0000 0.59324  0.88580  0.31801  Biso   1.000  H
  C11      1.0000 0.67000  0.42889  0.14960  Biso   1.000  C
  C12      1.0000 0.53781  0.61339  0.08226  Biso   1.000  C
  C13      1.0000 0.98061  0.79820  0.19224  Biso   1.000  C
  H9       1.0000 0.11692  0.66862  0.26002  Biso   1.000  H
  N5       1.0000 0.78859  0.95650  0.12983  Biso   1.000  N
  C14      1.0000 0.80367  0.42256  0.04881  Biso   1.000  C
  H10      1.0000 0.66854  0.37013  0.20689  Biso   1.000  H
  H11      1.0000 0.44971  0.67716  0.09241  Biso   1.000  H
  C15      1.0000 0.67399  0.60404  0.98411  Biso   1.000  C
  H12      1.0000 0.06426  0.81404  0.12754  Biso   1.000  H
  C16      1.0000 0.75042  0.93102  0.03283  Biso   1.000  C
  C17      1.0000 0.80639  0.07809  0.15172  Biso   1.000  C
  H13      1.0000 0.89091  0.35803  0.03760  Biso   1.000  H
  C18      1.0000 0.80666  0.51211  0.96549  Biso   1.000  C
  O2       1.0000 0.67158  0.69326  0.89779  Biso   1.000  O
  N6       1.0000 0.73476  0.81781  0.01624  Biso   1.000  N
  N7       1.0000 0.73103  0.02078  0.95834  Biso   1.000  N
  H14      1.0000 0.78103  0.13052  0.09162  Biso   1.000  H
  H15      1.0000 0.73375  0.10708  0.22754  Biso   1.000  H
  H16      1.0000 0.91608  0.07715  0.15040  Biso   1.000  H
  H17      1.0000 0.89584  0.50994  0.89894  Biso   1.000  H
  C19      1.0000 0.69586  0.80234  0.92056  Biso   1.000  C
  H18      1.0000 0.74892  0.76028  0.06399  Biso   1.000  H
  C20      1.0000 0.69670  0.98750  0.86584  Biso   1.000  C
  H19      1.0000 0.74052  0.09375  0.97008  Biso   1.000  H
  N8       1.0000 0.67544  0.88226  0.84060  Biso   1.000  N
  Cl2      1.0000 0.67908  0.09793  0.76275  Biso   1.000  Cl
  H20      1.0000 0.65083  0.86631  0.77873  Biso   1.000  H
