data_image0
_cell_length_a       8.823
_cell_length_b       12.032
_cell_length_c       18.167
_cell_angle_alpha    90
_cell_angle_beta     90
_cell_angle_gamma    90

_symmetry_space_group_name_H-M    "P 1"
_symmetry_int_tables_number       1

loop_
  _symmetry_equiv_pos_as_xyz
  'x, y, z'

loop_
  _atom_site_label
  _atom_site_occupancy
  _atom_site_fract_x
  _atom_site_fract_y
  _atom_site_fract_z
  _atom_site_thermal_displace_type
  _atom_site_B_iso_or_equiv
  _atom_site_type_symbol
  C1       1.0000 0.49394  0.56042  0.53718  Biso   1.000  C
  C2       1.0000 0.41097  0.56948  0.47355  Biso   1.000  C
  C3       1.0000 0.49258  0.65101  0.58348  Biso   1.000  C
  H1       1.0000 0.54834  0.49651  0.54852  Biso   1.000  H
  O1       1.0000 0.41539  0.48329  0.42027  Biso   1.000  O
  C4       1.0000 0.32982  0.66298  0.45555  Biso   1.000  C
  C5       1.0000 0.41550  0.74560  0.56905  Biso   1.000  C
  O2       1.0000 0.58801  0.65151  0.64689  Biso   1.000  O
  C6       1.0000 0.31214  0.40243  0.42539  Biso   1.000  C
  C7       1.0000 0.33356  0.75141  0.50405  Biso   1.000  C
  H2       1.0000 0.27406  0.66664  0.41218  Biso   1.000  H
  H3       1.0000 0.41721  0.80494  0.60181  Biso   1.000  H
  C8       1.0000 0.54063  0.59658  0.70661  Biso   1.000  C
  N1       1.0000 0.30409  0.33785  0.36566  Biso   1.000  N
  N2       1.0000 0.23065  0.39370  0.48610  Biso   1.000  N
  H4       1.0000 0.28029  0.81591  0.49287  Biso   1.000  H
  N3       1.0000 0.41176  0.54214  0.70485  Biso   1.000  N
  N4       1.0000 0.63742  0.60464  0.76358  Biso   1.000  N
  C9       1.0000 0.20027  0.25947  0.37282  Biso   1.000  C
  C10      1.0000 0.13465  0.30942  0.48406  Biso   1.000  C
  C11      1.0000 0.38207  0.48762  0.76677  Biso   1.000  C
  C12      1.0000 0.59096  0.54588  0.82094  Biso   1.000  C
  N5       1.0000 0.11345  0.23629  0.42952  Biso   1.000  N
  Cl1      1.0000 0.17522  0.17761  0.29504  Biso   1.000  Cl
  O3       1.0000 0.04692  0.29064  0.54329  Biso   1.000  O
  O4       1.0000 0.25570  0.42678  0.77134  Biso   1.000  O
  N6       1.0000 0.46764  0.48404  0.82765  Biso   1.000  N
  Cl2      1.0000 0.70996  0.54854  0.89602  Biso   1.000  Cl
  C13      1.0000 0.05395  0.37168  0.60059  Biso   1.000  C
  C14      1.0000 0.15199  0.43692  0.71173  Biso   1.000  C
  C15      1.0000 0.15358  0.35805  0.65735  Biso   1.000  C
  C16      1.0000 0.95455  0.45969  0.59713  Biso   1.000  C
  C17      1.0000 0.05452  0.52593  0.71168  Biso   1.000  C
  H5       1.0000 0.21965  0.29779  0.65911  Biso   1.000  H
  H6       1.0000 0.88802  0.46692  0.55771  Biso   1.000  H
  C18      1.0000 0.95580  0.53740  0.65349  Biso   1.000  C
  H7       1.0000 0.05508  0.57721  0.74999  Biso   1.000  H
  H8       1.0000 0.88972  0.59749  0.65201  Biso   1.000  H
  N7       1.0000 0.61340  0.26371  0.57043  Biso   1.000  N
  C19      1.0000 0.63470  0.19058  0.51594  Biso   1.000  C
  C20      1.0000 0.70033  0.24044  0.62718  Biso   1.000  C
  O5       1.0000 0.54698  0.20936  0.45671  Biso   1.000  O
  N8       1.0000 0.73070  0.10622  0.51390  Biso   1.000  N
  N9       1.0000 0.80403  0.16215  0.63434  Biso   1.000  N
  Cl3      1.0000 0.67528  0.32239  0.70496  Biso   1.000  Cl
  C21      1.0000 0.55389  0.12832  0.39941  Biso   1.000  C
  C22      1.0000 0.81208  0.09749  0.57461  Biso   1.000  C
  C23      1.0000 0.45461  0.04031  0.40287  Biso   1.000  C
  C24      1.0000 0.65363  0.14195  0.34265  Biso   1.000  C
  O6       1.0000 0.91533  0.01671  0.57973  Biso   1.000  O
  H9       1.0000 0.38796  0.03308  0.44229  Biso   1.000  H
  C25      1.0000 0.45574  0.96260  0.34651  Biso   1.000  C
  C26      1.0000 0.65193  0.06308  0.28827  Biso   1.000  C
  H10      1.0000 0.71971  0.20221  0.34089  Biso   1.000  H
  C27      1.0000 0.91103  0.93044  0.52645  Biso   1.000  C
  H11      1.0000 0.38966  0.90251  0.34799  Biso   1.000  H
  C28      1.0000 0.55446  0.97407  0.28832  Biso   1.000  C
  O7       1.0000 0.75575  0.07322  0.22866  Biso   1.000  O
  C29      1.0000 0.99399  0.93949  0.46282  Biso   1.000  C
  C30      1.0000 0.82976  0.83693  0.54445  Biso   1.000  C
  H12      1.0000 0.55514  0.92279  0.25001  Biso   1.000  H
  C31      1.0000 0.88213  0.01238  0.23323  Biso   1.000  C
  C32      1.0000 0.99263  0.84890  0.41652  Biso   1.000  C
  H13      1.0000 0.04840  0.00349  0.45148  Biso   1.000  H
  C33      1.0000 0.83362  0.74859  0.49595  Biso   1.000  C
  H14      1.0000 0.77411  0.83328  0.58782  Biso   1.000  H
  N10      1.0000 0.96770  0.01587  0.17235  Biso   1.000  N
  N11      1.0000 0.91182  0.95778  0.29515  Biso   1.000  N
  O8       1.0000 0.08807  0.84849  0.35311  Biso   1.000  O
  C34      1.0000 0.91545  0.75440  0.43089  Biso   1.000  C
  H15      1.0000 0.78023  0.68409  0.50707  Biso   1.000  H
  C35      1.0000 0.09101  0.95404  0.17906  Biso   1.000  C
  C36      1.0000 0.04069  0.90334  0.29339  Biso   1.000  C
  H16      1.0000 0.91715  0.69498  0.39819  Biso   1.000  H
  N12      1.0000 0.13737  0.89536  0.23642  Biso   1.000  N
  Cl4      1.0000 0.21002  0.95146  0.10398  Biso   1.000  Cl
  O9       1.0000 0.24425  0.57322  0.27132  Biso   1.000  O
  C37      1.0000 0.11787  0.51238  0.26675  Biso   1.000  C
  C38      1.0000 0.34795  0.56308  0.21176  Biso   1.000  C
  N13      1.0000 0.08818  0.45786  0.20482  Biso   1.000  N
  N14      1.0000 0.03230  0.51587  0.32763  Biso   1.000  N
  C39      1.0000 0.44554  0.47407  0.21165  Biso   1.000  C
  C40      1.0000 0.34637  0.64195  0.15737  Biso   1.000  C
  C41      1.0000 0.95931  0.40342  0.20664  Biso   1.000  C
  C42      1.0000 0.90899  0.45404  0.32097  Biso   1.000  C
  C43      1.0000 0.54415  0.46260  0.15352  Biso   1.000  C
  H17      1.0000 0.44486  0.42279  0.25001  Biso   1.000  H
  C44      1.0000 0.44611  0.62832  0.10062  Biso   1.000  C
  H18      1.0000 0.28029  0.70221  0.15908  Biso   1.000  H
  N15      1.0000 0.86252  0.39536  0.26355  Biso   1.000  N
  O10      1.0000 0.91193  0.34849  0.14691  Biso   1.000  O
  Cl5      1.0000 0.78998  0.45146  0.39599  Biso   1.000  Cl
  C45      1.0000 0.54539  0.54031  0.09710  Biso   1.000  C
  H19      1.0000 0.61034  0.40251  0.15198  Biso   1.000  H
  O11      1.0000 0.45302  0.70936  0.04327  Biso   1.000  O
  C46      1.0000 0.00737  0.34890  0.08345  Biso   1.000  C
  H20      1.0000 0.61204  0.53308  0.05769  Biso   1.000  H
  C47      1.0000 0.36530  0.69049  0.98404  Biso   1.000  C
  C48      1.0000 0.08455  0.25440  0.06908  Biso   1.000  C
  C49      1.0000 0.00601  0.43949  0.03721  Biso   1.000  C
  N16      1.0000 0.38660  0.76371  0.92954  Biso   1.000  N
  N17      1.0000 0.26930  0.60622  0.98613  Biso   1.000  N
  C50      1.0000 0.16638  0.24859  0.00407  Biso   1.000  C
  H21      1.0000 0.08285  0.19498  0.10178  Biso   1.000  H
  H22      1.0000 0.95160  0.50349  0.04849  Biso   1.000  H
  C51      1.0000 0.08897  0.43044  0.97352  Biso   1.000  C
  C52      1.0000 0.29967  0.74044  0.87279  Biso   1.000  C
  C53      1.0000 0.18792  0.59749  0.92541  Biso   1.000  C
  H23      1.0000 0.21965  0.18409  0.99290  Biso   1.000  H
  C54      1.0000 0.17024  0.33702  0.95552  Biso   1.000  C
  O12      1.0000 0.08467  0.51671  0.92024  Biso   1.000  O
  N18      1.0000 0.19585  0.66207  0.86564  Biso   1.000  N
  Cl6      1.0000 0.32472  0.82239  0.79507  Biso   1.000  Cl
  H24      1.0000 0.22589  0.33328  0.91220  Biso   1.000  H
  N19      1.0000 0.53225  0.98404  0.67237  Biso   1.000  N
  C55      1.0000 0.61793  0.98762  0.73325  Biso   1.000  C
  C56      1.0000 0.40904  0.04588  0.67903  Biso   1.000  C
  O13      1.0000 0.74419  0.92678  0.72868  Biso   1.000  O
  N20      1.0000 0.58812  0.04214  0.79518  Biso   1.000  N
  N21      1.0000 0.36258  0.10464  0.73645  Biso   1.000  N
  Cl7      1.0000 0.29004  0.04854  0.60401  Biso   1.000  Cl
  C57      1.0000 0.84801  0.93692  0.78824  Biso   1.000  C
  C58      1.0000 0.45925  0.09658  0.79336  Biso   1.000  C
  C59      1.0000 0.84642  0.85796  0.84263  Biso   1.000  C
  C60      1.0000 0.94548  0.02593  0.78835  Biso   1.000  C
  O14      1.0000 0.41188  0.15151  0.85309  Biso   1.000  O
  C61      1.0000 0.94605  0.87159  0.89938  Biso   1.000  C
  H25      1.0000 0.78023  0.79779  0.84092  Biso   1.000  H
  H26      1.0000 0.94492  0.07721  0.74999  Biso   1.000  H
  C62      1.0000 0.04420  0.03740  0.84648  Biso   1.000  C
  C63      1.0000 0.50742  0.15101  0.91655  Biso   1.000  C
  O15      1.0000 0.95308  0.79056  0.95673  Biso   1.000  O
  C64      1.0000 0.04545  0.95969  0.90290  Biso   1.000  C
  H27      1.0000 0.11028  0.09749  0.84802  Biso   1.000  H
  C65      1.0000 0.58450  0.24560  0.93092  Biso   1.000  C
  C66      1.0000 0.50595  0.06042  0.96279  Biso   1.000  C
  C67      1.0000 0.86524  0.80942  0.01596  Biso   1.000  C
  H28      1.0000 0.11198  0.96684  0.94231  Biso   1.000  H
  C68      1.0000 0.66644  0.25141  0.99593  Biso   1.000  C
  H29      1.0000 0.58279  0.30502  0.89822  Biso   1.000  H
  H30      1.0000 0.45155  0.99643  0.95151  Biso   1.000  H
  C69      1.0000 0.58903  0.06956  0.02648  Biso   1.000  C
  N22      1.0000 0.88655  0.73629  0.07046  Biso   1.000  N
  N23      1.0000 0.76935  0.89370  0.01387  Biso   1.000  N
  H31      1.0000 0.71971  0.31591  0.00710  Biso   1.000  H
  C70      1.0000 0.67018  0.16298  0.04448  Biso   1.000  C
  O16      1.0000 0.58461  0.98329  0.07970  Biso   1.000  O
  C71      1.0000 0.79973  0.75947  0.12721  Biso   1.000  C
  C72      1.0000 0.68786  0.90243  0.07459  Biso   1.000  C
  H32      1.0000 0.72583  0.16672  0.08780  Biso   1.000  H
  N24      1.0000 0.69591  0.83785  0.13436  Biso   1.000  N
  Cl8      1.0000 0.82478  0.67753  0.20493  Biso   1.000  Cl
