data_image0
_cell_length_a       24.417
_cell_length_b       24.575
_cell_length_c       19.141
_cell_angle_alpha    90
_cell_angle_beta     106.62
_cell_angle_gamma    90

_symmetry_space_group_name_H-M    "P 1"
_symmetry_int_tables_number       1

loop_
  _symmetry_equiv_pos_as_xyz
  'x, y, z'

loop_
  _atom_site_label
  _atom_site_occupancy
  _atom_site_fract_x
  _atom_site_fract_y
  _atom_site_fract_z
  _atom_site_thermal_displace_type
  _atom_site_B_iso_or_equiv
  _atom_site_type_symbol
  C1       1.0000 0.58050  0.54490  0.54800  Biso   1.000  C
  C2       1.0000 0.57847  0.54002  0.46807  Biso   1.000  C
  H1       1.0000 0.61507  0.52769  0.57777  Biso   1.000  H
  H2       1.0000 0.54820  0.52562  0.55607  Biso   1.000  H
  C3       1.0000 0.57908  0.60399  0.57160  Biso   1.000  C
  C4       1.0000 0.58169  0.48212  0.44261  Biso   1.000  C
  H3       1.0000 0.54327  0.55642  0.43857  Biso   1.000  H
  H4       1.0000 0.61008  0.56049  0.46000  Biso   1.000  H
  C5       1.0000 0.63649  0.63259  0.58382  Biso   1.000  C
  H5       1.0000 0.56807  0.60521  0.61637  Biso   1.000  H
  H6       1.0000 0.55038  0.62340  0.53458  Biso   1.000  H
  C6       1.0000 0.57678  0.47919  0.36208  Biso   1.000  C
  H7       1.0000 0.55110  0.46100  0.45231  Biso   1.000  H
  H8       1.0000 0.61767  0.46612  0.47009  Biso   1.000  H
  C7       1.0000 0.63227  0.69502  0.58507  Biso   1.000  C
  H9       1.0000 0.65298  0.62210  0.54538  Biso   1.000  H
  H10      1.0000 0.66217  0.62043  0.62967  Biso   1.000  H
  H11      1.0000 0.54368  0.49900  0.33498  Biso   1.000  H
  H12      1.0000 0.57338  0.44191  0.34670  Biso   1.000  H
  H13      1.0000 0.61041  0.49481  0.35352  Biso   1.000  H
  C8       1.0000 0.68908  0.72370  0.59330  Biso   1.000  C
  C9       1.0000 0.60599  0.71540  0.64341  Biso   1.000  C
  H14      1.0000 0.60650  0.70612  0.53791  Biso   1.000  H
  C10      1.0000 0.74208  0.70059  0.62787  Biso   1.000  C
  C11      1.0000 0.68770  0.77611  0.56490  Biso   1.000  C
  C12      1.0000 0.62968  0.70051  0.71729  Biso   1.000  C
  C13      1.0000 0.55850  0.74930  0.62667  Biso   1.000  C
  H15      1.0000 0.74320  0.66633  0.64892  Biso   1.000  H
  C14      1.0000 0.79400  0.72732  0.63218  Biso   1.000  C
  O1       1.0000 0.63646  0.79821  0.52450  Biso   1.000  O
  C15      1.0000 0.73849  0.80541  0.57150  Biso   1.000  C
  C16      1.0000 0.60837  0.71910  0.77328  Biso   1.000  C
  H16      1.0000 0.66098  0.67719  0.72917  Biso   1.000  H
  O2       1.0000 0.53336  0.76411  0.55508  Biso   1.000  O
  C17      1.0000 0.53449  0.76871  0.68179  Biso   1.000  C
  C18      1.0000 0.85249  0.70181  0.66418  Biso   1.000  C
  C19      1.0000 0.79089  0.77969  0.60388  Biso   1.000  C
  C20      1.0000 0.60777  0.83361  0.56239  Biso   1.000  C
  C21      1.0000 0.73718  0.85961  0.54538  Biso   1.000  C
  C22      1.0000 0.63509  0.70132  0.85097  Biso   1.000  C
  C23      1.0000 0.56139  0.75390  0.75480  Biso   1.000  C
  C24      1.0000 0.54489  0.81961  0.53856  Biso   1.000  C
  C25      1.0000 0.48299  0.80000  0.66287  Biso   1.000  C
  H17      1.0000 0.87709  0.71609  0.63599  Biso   1.000  H
  C26      1.0000 0.87919  0.71992  0.74269  Biso   1.000  C
  C27      1.0000 0.85366  0.63959  0.65737  Biso   1.000  C
  O3       1.0000 0.84013  0.80647  0.60301  Biso   1.000  O
  H18      1.0000 0.61328  0.87121  0.55078  Biso   1.000  H
  H19      1.0000 0.62307  0.82861  0.61457  Biso   1.000  H
  C28      1.0000 0.73727  0.90482  0.52548  Biso   1.000  C
  H20      1.0000 0.61016  0.71499  0.87916  Biso   1.000  H
  C29      1.0000 0.63518  0.63902  0.85741  Biso   1.000  C
  C30      1.0000 0.69337  0.72741  0.88369  Biso   1.000  C
  O4       1.0000 0.53907  0.77400  0.80817  Biso   1.000  O
  H21      1.0000 0.52478  0.84411  0.56250  Biso   1.000  H
  H22      1.0000 0.53008  0.82539  0.48639  Biso   1.000  H
  C31      1.0000 0.43887  0.82360  0.64859  Biso   1.000  C
  C32      1.0000 0.85828  0.70112  0.79869  Biso   1.000  C
  C33      1.0000 0.92549  0.75540  0.75998  Biso   1.000  C
  H23      1.0000 0.83649  0.62319  0.69221  Biso   1.000  H
  H24      1.0000 0.83129  0.62889  0.60890  Biso   1.000  H
  C34      1.0000 0.91480  0.61851  0.67138  Biso   1.000  C
  C35      1.0000 0.86559  0.83910  0.66636  Biso   1.000  C
  I1       1.0000 0.74297  0.97961  0.48115  Biso   1.000  I
  H25      1.0000 0.65397  0.62360  0.82360  Biso   1.000  H
  H26      1.0000 0.65698  0.62861  0.90626  Biso   1.000  H
  C36      1.0000 0.57477  0.61579  0.84100  Biso   1.000  C
  C37      1.0000 0.74526  0.70112  0.88827  Biso   1.000  C
  C38      1.0000 0.69559  0.77982  0.91078  Biso   1.000  C
  C39      1.0000 0.55617  0.82962  0.82797  Biso   1.000  C
  I2       1.0000 0.35986  0.85815  0.62296  Biso   1.000  I
  C40      1.0000 0.88149  0.71699  0.87169  Biso   1.000  C
  H27      1.0000 0.82770  0.67699  0.78740  Biso   1.000  H
  O5       1.0000 0.94704  0.77575  0.70611  Biso   1.000  O
  C41      1.0000 0.95200  0.77070  0.83309  Biso   1.000  C
  H28      1.0000 0.93390  0.63992  0.64259  Biso   1.000  H
  H29      1.0000 0.93509  0.62421  0.72241  Biso   1.000  H
  C42      1.0000 0.91879  0.55931  0.65339  Biso   1.000  C
  H30      1.0000 0.85098  0.82800  0.70638  Biso   1.000  H
  H31      1.0000 0.85628  0.87711  0.65590  Biso   1.000  H
  C43      1.0000 0.92940  0.83101  0.68681  Biso   1.000  C
  H32      1.0000 0.55588  0.63223  0.87398  Biso   1.000  H
  H33      1.0000 0.55348  0.62580  0.79171  Biso   1.000  H
  C44      1.0000 0.57341  0.55471  0.84841  Biso   1.000  C
  C45      1.0000 0.79826  0.72529  0.92207  Biso   1.000  C
  H34      1.0000 0.74447  0.66649  0.86831  Biso   1.000  H
  O6       1.0000 0.64535  0.80627  0.91209  Biso   1.000  O
  C46      1.0000 0.74760  0.80623  0.94399  Biso   1.000  C
  C47      1.0000 0.62000  0.83829  0.84890  Biso   1.000  C
  H35      1.0000 0.54218  0.84020  0.86858  Biso   1.000  H
  H36      1.0000 0.53830  0.85310  0.78718  Biso   1.000  H
  C48      1.0000 0.92807  0.75239  0.88767  Biso   1.000  C
  C49      1.0000 0.85529  0.69742  0.93019  Biso   1.000  C
  C50      1.0000 0.00340  0.80191  0.85010  Biso   1.000  C
  H37      1.0000 0.89388  0.55219  0.60492  Biso   1.000  H
  H38      1.0000 0.90559  0.53742  0.68746  Biso   1.000  H
  C51      1.0000 0.97950  0.54230  0.65671  Biso   1.000  C
  H39      1.0000 0.94310  0.84212  0.64619  Biso   1.000  H
  H40      1.0000 0.94719  0.85453  0.72781  Biso   1.000  H
  C52      1.0000 0.51399  0.53339  0.84007  Biso   1.000  C
  H41      1.0000 0.58826  0.53811  0.81166  Biso   1.000  H
  H42      1.0000 0.59810  0.54421  0.89590  Biso   1.000  H
  C53      1.0000 0.79848  0.77762  0.95009  Biso   1.000  C
  C54      1.0000 0.74830  0.86120  0.96939  Biso   1.000  C
  H43      1.0000 0.63490  0.82751  0.80921  Biso   1.000  H
  H44      1.0000 0.62867  0.87650  0.85926  Biso   1.000  H
  O7       1.0000 0.95276  0.76834  0.95887  Biso   1.000  O
  H45      1.0000 0.88100  0.70922  0.97708  Biso   1.000  H
  C55      1.0000 0.85179  0.63499  0.93341  Biso   1.000  C
  C56      1.0000 0.04838  0.82523  0.86128  Biso   1.000  C
  C57      1.0000 0.98660  0.48330  0.63888  Biso   1.000  C
  H46      1.0000 0.99257  0.56480  0.62296  Biso   1.000  H
  H47      1.0000 0.00417  0.54970  0.70540  Biso   1.000  H
  C58      1.0000 0.51158  0.47129  0.84007  Biso   1.000  C
  H48      1.0000 0.48848  0.54690  0.79476  Biso   1.000  H
  H49      1.0000 0.50049  0.54710  0.87976  Biso   1.000  H
  O8       1.0000 0.84962  0.80073  0.99039  Biso   1.000  O
  C59      1.0000 0.74897  0.90592  0.98848  Biso   1.000  C
  C60      1.0000 0.94039  0.82299  0.97381  Biso   1.000  C
  H50      1.0000 0.83346  0.62490  0.97038  Biso   1.000  H
  H51      1.0000 0.82797  0.62169  0.88690  Biso   1.000  H
  C61      1.0000 0.91057  0.60741  0.95080  Biso   1.000  C
  I3       1.0000 0.12749  0.85774  0.87709  Biso   1.000  I
  H52      1.0000 0.97879  0.46092  0.67678  Biso   1.000  H
  H53      1.0000 0.95807  0.47451  0.59347  Biso   1.000  H
  C62      1.0000 0.04417  0.46852  0.63207  Biso   1.000  C
  H54      1.0000 0.53637  0.45770  0.88581  Biso   1.000  H
  H55      1.0000 0.52558  0.45742  0.80098  Biso   1.000  H
  C63      1.0000 0.45020  0.44981  0.83009  Biso   1.000  C
  C64      1.0000 0.87727  0.83609  0.95151  Biso   1.000  C
  I4       1.0000 0.74945  0.98222  0.03079  Biso   1.000  I
  H56      1.0000 0.95947  0.84741  0.94840  Biso   1.000  H
  H57      1.0000 0.95598  0.82970  0.02566  Biso   1.000  H
  C65      1.0000 0.91199  0.54970  0.97779  Biso   1.000  C
  H58      1.0000 0.92317  0.60761  0.90708  Biso   1.000  H
  H59      1.0000 0.93757  0.62889  0.98739  Biso   1.000  H
  H60      1.0000 0.05618  0.49542  0.60306  Biso   1.000  H
  H61      1.0000 0.04219  0.43361  0.60901  Biso   1.000  H
  H62      1.0000 0.07121  0.46702  0.67961  Biso   1.000  H
  H63      1.0000 0.42399  0.46950  0.79138  Biso   1.000  H
  H64      1.0000 0.44008  0.45481  0.87447  Biso   1.000  H
  H65      1.0000 0.44859  0.41180  0.81799  Biso   1.000  H
  H66      1.0000 0.87149  0.87381  0.96280  Biso   1.000  H
  H67      1.0000 0.86120  0.83080  0.89939  Biso   1.000  H
  H68      1.0000 0.94779  0.53290  0.97708  Biso   1.000  H
  H69      1.0000 0.88117  0.52932  0.94497  Biso   1.000  H
  C66      1.0000 0.90599  0.54641  0.05478  Biso   1.000  C
  H70      1.0000 0.93729  0.56631  0.08749  Biso   1.000  H
  H71      1.0000 0.87069  0.56419  0.05548  Biso   1.000  H
  C67      1.0000 0.90568  0.48879  0.08296  Biso   1.000  C
  H72      1.0000 0.94237  0.47182  0.08678  Biso   1.000  H
  H73      1.0000 0.87646  0.46779  0.04856  Biso   1.000  H
  C68      1.0000 0.89436  0.48761  0.15799  Biso   1.000  C
  H74      1.0000 0.85775  0.50372  0.15417  Biso   1.000  H
  H75      1.0000 0.92366  0.50779  0.19239  Biso   1.000  H
  H76      1.0000 0.89460  0.45062  0.17418  Biso   1.000  H
  C69      1.0000 0.41948  0.45510  0.45198  Biso   1.000  C
  C70      1.0000 0.42091  0.39601  0.42838  Biso   1.000  C
  H77      1.0000 0.38488  0.47231  0.42222  Biso   1.000  H
  H78      1.0000 0.45179  0.47443  0.44392  Biso   1.000  H
  C71      1.0000 0.42151  0.46002  0.53191  Biso   1.000  C
  C72      1.0000 0.36350  0.36741  0.41622  Biso   1.000  C
  H79      1.0000 0.43188  0.39479  0.38361  Biso   1.000  H
  H80      1.0000 0.44960  0.37660  0.46540  Biso   1.000  H
  H81      1.0000 0.45667  0.44362  0.56141  Biso   1.000  H
  H82      1.0000 0.38990  0.43951  0.53998  Biso   1.000  H
  C73      1.0000 0.41829  0.51792  0.55737  Biso   1.000  C
  C74      1.0000 0.36768  0.30498  0.41491  Biso   1.000  C
  H83      1.0000 0.34701  0.37790  0.45460  Biso   1.000  H
  H84      1.0000 0.33781  0.37961  0.37031  Biso   1.000  H
  H85      1.0000 0.44888  0.53900  0.54767  Biso   1.000  H
  H86      1.0000 0.38228  0.53392  0.52990  Biso   1.000  H
  C75      1.0000 0.42320  0.52081  0.63790  Biso   1.000  C
  C76      1.0000 0.31087  0.27630  0.40668  Biso   1.000  C
  C77      1.0000 0.39399  0.28460  0.35657  Biso   1.000  C
  H87      1.0000 0.39349  0.29392  0.46207  Biso   1.000  H
  H88      1.0000 0.45627  0.50100  0.66500  Biso   1.000  H
  H89      1.0000 0.42657  0.55809  0.65328  Biso   1.000  H
  H90      1.0000 0.38957  0.50519  0.64646  Biso   1.000  H
  C78      1.0000 0.25790  0.29941  0.37211  Biso   1.000  C
  C79      1.0000 0.31228  0.22389  0.43508  Biso   1.000  C
  C80      1.0000 0.37030  0.29949  0.28269  Biso   1.000  C
  C81      1.0000 0.44149  0.25070  0.37331  Biso   1.000  C
  H91      1.0000 0.25680  0.33371  0.35112  Biso   1.000  H
  C82      1.0000 0.20599  0.27272  0.36780  Biso   1.000  C
  O9       1.0000 0.36348  0.20179  0.47548  Biso   1.000  O
  C83      1.0000 0.26149  0.19459  0.42849  Biso   1.000  C
  C84      1.0000 0.39158  0.28090  0.22670  Biso   1.000  C
  H92      1.0000 0.33901  0.32281  0.27081  Biso   1.000  H
  O10      1.0000 0.46663  0.23589  0.44490  Biso   1.000  O
  C85      1.0000 0.46550  0.23129  0.31819  Biso   1.000  C
  C86      1.0000 0.14750  0.29819  0.33580  Biso   1.000  C
  C87      1.0000 0.20910  0.22031  0.39610  Biso   1.000  C
  C88      1.0000 0.39217  0.16639  0.43759  Biso   1.000  C
  C89      1.0000 0.26280  0.14039  0.45460  Biso   1.000  C
  C90      1.0000 0.36490  0.29872  0.14901  Biso   1.000  C
  C91      1.0000 0.43860  0.24610  0.24518  Biso   1.000  C
  C92      1.0000 0.45510  0.18039  0.46142  Biso   1.000  C
  C93      1.0000 0.51700  0.20000  0.33711  Biso   1.000  C
  H93      1.0000 0.12290  0.28391  0.36399  Biso   1.000  H
  C94      1.0000 0.12080  0.28012  0.25729  Biso   1.000  C
  C95      1.0000 0.14628  0.36041  0.34261  Biso   1.000  C
  O11      1.0000 0.15986  0.19353  0.39697  Biso   1.000  O
  H94      1.0000 0.38671  0.12879  0.44920  Biso   1.000  H
  H95      1.0000 0.37691  0.17139  0.38541  Biso   1.000  H
  C96      1.0000 0.26268  0.09522  0.47450  Biso   1.000  C
  H96      1.0000 0.38979  0.28501  0.12082  Biso   1.000  H
  C97      1.0000 0.36481  0.36102  0.14257  Biso   1.000  C
  C98      1.0000 0.30658  0.27259  0.11629  Biso   1.000  C
  O12      1.0000 0.46091  0.22600  0.19181  Biso   1.000  O
  H97      1.0000 0.47521  0.15589  0.43748  Biso   1.000  H
  H98      1.0000 0.46987  0.17461  0.51359  Biso   1.000  H
  C99      1.0000 0.56108  0.17640  0.35139  Biso   1.000  C
  C100     1.0000 0.14171  0.29892  0.20129  Biso   1.000  C
  C101     1.0000 0.07450  0.24460  0.24000  Biso   1.000  C
  H99      1.0000 0.16349  0.37681  0.30777  Biso   1.000  H
  H100     1.0000 0.16870  0.37111  0.39108  Biso   1.000  H
  C102     1.0000 0.08519  0.38149  0.32860  Biso   1.000  C
  C103     1.0000 0.13439  0.16090  0.33362  Biso   1.000  C
  I5       1.0000 0.25701  0.02043  0.51883  Biso   1.000  I
  H101     1.0000 0.34597  0.37640  0.17638  Biso   1.000  H
  H102     1.0000 0.34300  0.37139  0.09372  Biso   1.000  H
  C104     1.0000 0.42517  0.38421  0.15899  Biso   1.000  C
  C105     1.0000 0.25468  0.29892  0.11171  Biso   1.000  C
  C106     1.0000 0.30439  0.22018  0.08920  Biso   1.000  C
  C107     1.0000 0.44378  0.17042  0.17202  Biso   1.000  C
  I6       1.0000 0.64013  0.14189  0.37702  Biso   1.000  I
  C108     1.0000 0.11850  0.28301  0.12829  Biso   1.000  C
  H103     1.0000 0.17229  0.32301  0.21258  Biso   1.000  H
  O13      1.0000 0.05295  0.22425  0.29387  Biso   1.000  O
  C109     1.0000 0.04799  0.22930  0.16689  Biso   1.000  C
  H104     1.0000 0.06609  0.36012  0.35739  Biso   1.000  H
  H105     1.0000 0.06490  0.37579  0.27757  Biso   1.000  H
  C110     1.0000 0.08119  0.44069  0.34659  Biso   1.000  C
  H106     1.0000 0.14901  0.17200  0.29360  Biso   1.000  H
  H107     1.0000 0.14370  0.12289  0.34409  Biso   1.000  H
  C111     1.0000 0.07059  0.16899  0.31317  Biso   1.000  C
  H108     1.0000 0.44411  0.36781  0.12600  Biso   1.000  H
  H109     1.0000 0.44650  0.37420  0.20827  Biso   1.000  H
  C112     1.0000 0.42659  0.44529  0.15162  Biso   1.000  C
  C113     1.0000 0.20169  0.27471  0.07791  Biso   1.000  C
  H110     1.0000 0.25548  0.33351  0.13172  Biso   1.000  H
  O14      1.0000 0.35464  0.19373  0.08789  Biso   1.000  O
  C114     1.0000 0.25239  0.19381  0.05599  Biso   1.000  C
  C115     1.0000 0.37999  0.16171  0.15108  Biso   1.000  C
  H111     1.0000 0.45781  0.15980  0.13140  Biso   1.000  H
  H112     1.0000 0.46169  0.14690  0.21280  Biso   1.000  H
  C116     1.0000 0.07191  0.24761  0.11231  Biso   1.000  C
  C117     1.0000 0.14470  0.30258  0.06979  Biso   1.000  C
  C118     1.0000 0.99658  0.19809  0.14988  Biso   1.000  C
  H113     1.0000 0.10608  0.44781  0.39512  Biso   1.000  H
  H114     1.0000 0.09440  0.46262  0.31252  Biso   1.000  H
  C119     1.0000 0.02049  0.45770  0.34327  Biso   1.000  C
  H115     1.0000 0.05688  0.15788  0.35379  Biso   1.000  H
  H116     1.0000 0.05279  0.14551  0.27217  Biso   1.000  H
  C120     1.0000 0.48599  0.46661  0.15991  Biso   1.000  C
  H117     1.0000 0.41168  0.46189  0.18832  Biso   1.000  H
  H118     1.0000 0.40188  0.45579  0.10408  Biso   1.000  H
  C121     1.0000 0.20150  0.22242  0.04989  Biso   1.000  C
  C122     1.0000 0.25169  0.13880  0.03059  Biso   1.000  C
  H119     1.0000 0.36509  0.17249  0.19077  Biso   1.000  H
  H120     1.0000 0.37132  0.12350  0.14072  Biso   1.000  H
  O15      1.0000 0.04722  0.23170  0.04111  Biso   1.000  O
  H121     1.0000 0.11899  0.29078  0.02290  Biso   1.000  H
  C123     1.0000 0.14821  0.36501  0.06663  Biso   1.000  C
  C124     1.0000 0.95161  0.17481  0.13870  Biso   1.000  C
  C125     1.0000 0.01339  0.51670  0.36110  Biso   1.000  C
  H122     1.0000 0.00742  0.43520  0.37702  Biso   1.000  H
  H123     1.0000 0.99577  0.45030  0.29458  Biso   1.000  H
  C126     1.0000 0.48841  0.52871  0.15991  Biso   1.000  C
  H124     1.0000 0.51151  0.45310  0.20522  Biso   1.000  H
  H125     1.0000 0.49950  0.45290  0.12022  Biso   1.000  H
  O16      1.0000 0.15037  0.19927  0.00960  Biso   1.000  O
  C127     1.0000 0.25101  0.09412  0.01150  Biso   1.000  C
  C128     1.0000 0.05961  0.17701  0.02622  Biso   1.000  C
  H126     1.0000 0.16649  0.37510  0.02961  Biso   1.000  H
  H127     1.0000 0.17197  0.37831  0.11308  Biso   1.000  H
  C129     1.0000 0.08937  0.39259  0.04918  Biso   1.000  C
  I7       1.0000 0.87250  0.14226  0.12289  Biso   1.000  I
  H128     1.0000 0.02119  0.53913  0.32320  Biso   1.000  H
  H129     1.0000 0.04188  0.52549  0.40651  Biso   1.000  H
  C130     1.0000 0.95578  0.53152  0.36791  Biso   1.000  C
  H130     1.0000 0.46358  0.54230  0.11422  Biso   1.000  H
  H131     1.0000 0.47440  0.54262  0.19900  Biso   1.000  H
  C131     1.0000 0.54979  0.55019  0.16989  Biso   1.000  C
  C132     1.0000 0.12269  0.16391  0.04852  Biso   1.000  C
  I8       1.0000 0.25050  0.01778  0.96920  Biso   1.000  I
  H132     1.0000 0.04048  0.15259  0.05158  Biso   1.000  H
  H133     1.0000 0.04400  0.17030  0.97432  Biso   1.000  H
  C133     1.0000 0.08799  0.45030  0.02219  Biso   1.000  C
  H134     1.0000 0.07682  0.39239  0.09290  Biso   1.000  H
  H135     1.0000 0.06241  0.37111  0.01259  Biso   1.000  H
  H136     1.0000 0.94381  0.50462  0.39692  Biso   1.000  H
  H137     1.0000 0.95780  0.56639  0.39097  Biso   1.000  H
  H138     1.0000 0.92878  0.53302  0.32037  Biso   1.000  H
  H139     1.0000 0.57599  0.53050  0.20860  Biso   1.000  H
  H140     1.0000 0.55990  0.54519  0.12551  Biso   1.000  H
  H141     1.0000 0.55139  0.58820  0.18199  Biso   1.000  H
  H142     1.0000 0.12850  0.12619  0.03718  Biso   1.000  H
  H143     1.0000 0.13879  0.16920  0.10059  Biso   1.000  H
  H144     1.0000 0.05219  0.46710  0.02290  Biso   1.000  H
  H145     1.0000 0.11882  0.47072  0.05501  Biso   1.000  H
  C134     1.0000 0.09399  0.45359  0.94521  Biso   1.000  C
  H146     1.0000 0.06270  0.43369  0.91249  Biso   1.000  H
  H147     1.0000 0.12930  0.43581  0.94450  Biso   1.000  H
  C135     1.0000 0.09431  0.51121  0.91702  Biso   1.000  C
  H148     1.0000 0.05762  0.52822  0.91320  Biso   1.000  H
  H149     1.0000 0.12352  0.53221  0.95142  Biso   1.000  H
  C136     1.0000 0.10558  0.51239  0.84200  Biso   1.000  C
  H150     1.0000 0.14219  0.49632  0.84581  Biso   1.000  H
  H151     1.0000 0.07628  0.49221  0.80759  Biso   1.000  H
  H152     1.0000 0.10539  0.54942  0.82580  Biso   1.000  H
  C137     1.0000 0.55620  0.67040  0.32800  Biso   1.000  C
  O17      1.0000 0.53907  0.72602  0.30821  Biso   1.000  O
  C138     1.0000 0.61998  0.66169  0.34888  Biso   1.000  C
  H153     1.0000 0.54221  0.65982  0.36862  Biso   1.000  H
  H154     1.0000 0.53829  0.64692  0.28722  Biso   1.000  H
  C139     1.0000 0.56141  0.74612  0.25478  Biso   1.000  C
  O18      1.0000 0.64537  0.69375  0.41207  Biso   1.000  O
  H155     1.0000 0.63488  0.67251  0.30919  Biso   1.000  H
  H156     1.0000 0.62870  0.62352  0.35930  Biso   1.000  H
  C140     1.0000 0.53447  0.73131  0.18178  Biso   1.000  C
  C141     1.0000 0.60840  0.78092  0.27332  Biso   1.000  C
  C142     1.0000 0.69559  0.72020  0.41082  Biso   1.000  C
  C143     1.0000 0.48298  0.70002  0.16291  Biso   1.000  C
  C144     1.0000 0.55849  0.75072  0.12671  Biso   1.000  C
  C145     1.0000 0.63508  0.79870  0.35101  Biso   1.000  C
  C146     1.0000 0.62972  0.79951  0.21732  Biso   1.000  C
  C147     1.0000 0.69339  0.77261  0.38367  Biso   1.000  C
  C148     1.0000 0.74758  0.69379  0.44397  Biso   1.000  C
  C149     1.0000 0.43889  0.67642  0.14857  Biso   1.000  C
  O19      1.0000 0.53339  0.73587  0.05512  Biso   1.000  O
  C150     1.0000 0.60597  0.78462  0.14339  Biso   1.000  C
  H157     1.0000 0.61019  0.78503  0.37920  Biso   1.000  H
  C151     1.0000 0.63520  0.86100  0.35739  Biso   1.000  C
  H158     1.0000 0.66101  0.82283  0.22921  Biso   1.000  H
  C152     1.0000 0.74529  0.79890  0.38830  Biso   1.000  C
  C153     1.0000 0.79850  0.72240  0.45008  Biso   1.000  C
  C154     1.0000 0.74828  0.63882  0.46938  Biso   1.000  C
  I9       1.0000 0.35985  0.64187  0.12300  Biso   1.000  I
  C155     1.0000 0.54488  0.68041  0.03860  Biso   1.000  C
  C156     1.0000 0.63230  0.80501  0.08511  Biso   1.000  C
  H159     1.0000 0.65399  0.87642  0.32359  Biso   1.000  H
  H160     1.0000 0.65698  0.87141  0.40630  Biso   1.000  H
  C157     1.0000 0.57480  0.88419  0.34098  Biso   1.000  C
  C158     1.0000 0.79829  0.77469  0.42211  Biso   1.000  C
  H161     1.0000 0.74449  0.83353  0.36829  Biso   1.000  H
  O20      1.0000 0.84960  0.69929  0.49037  Biso   1.000  O
  C159     1.0000 0.74901  0.59410  0.48851  Biso   1.000  C
  C160     1.0000 0.60779  0.66641  0.06237  Biso   1.000  C
  H162     1.0000 0.52480  0.65591  0.06248  Biso   1.000  H
  H163     1.0000 0.53011  0.67459  0.98642  Biso   1.000  H
  C161     1.0000 0.68910  0.77632  0.09329  Biso   1.000  C
  H164     1.0000 0.60648  0.79390  0.03789  Biso   1.000  H
  C162     1.0000 0.63647  0.86743  0.08380  Biso   1.000  C
  H165     1.0000 0.55591  0.86779  0.37402  Biso   1.000  H
  H166     1.0000 0.55351  0.87422  0.29169  Biso   1.000  H
  C163     1.0000 0.57339  0.94531  0.34839  Biso   1.000  C
  C164     1.0000 0.85527  0.80260  0.43018  Biso   1.000  C
  C165     1.0000 0.87729  0.66393  0.45149  Biso   1.000  C
  I10      1.0000 0.74948  0.51780  0.53082  Biso   1.000  I
  O21      1.0000 0.63648  0.70177  0.02448  Biso   1.000  O
  H167     1.0000 0.61331  0.62881  0.05081  Biso   1.000  H
  H168     1.0000 0.62311  0.67141  0.11460  Biso   1.000  H
  C166     1.0000 0.74208  0.79939  0.12791  Biso   1.000  C
  C167     1.0000 0.68769  0.72391  0.06488  Biso   1.000  C
  H169     1.0000 0.65301  0.87792  0.04542  Biso   1.000  H
  H170     1.0000 0.66221  0.87959  0.12971  Biso   1.000  H
  C168     1.0000 0.57910  0.89599  0.07159  Biso   1.000  C
  C169     1.0000 0.51399  0.96659  0.34011  Biso   1.000  C
  H171     1.0000 0.58830  0.96191  0.31170  Biso   1.000  H
  H172     1.0000 0.59808  0.95581  0.39588  Biso   1.000  H
  C170     1.0000 0.88147  0.78299  0.37167  Biso   1.000  C
  H173     1.0000 0.88099  0.79080  0.47712  Biso   1.000  H
  C171     1.0000 0.85177  0.86503  0.43339  Biso   1.000  C
  H174     1.0000 0.87147  0.62621  0.46278  Biso   1.000  H
  H175     1.0000 0.86118  0.66922  0.39937  Biso   1.000  H
  C172     1.0000 0.94037  0.67699  0.47379  Biso   1.000  C
  H176     1.0000 0.74318  0.83369  0.14890  Biso   1.000  H
  C173     1.0000 0.79399  0.77270  0.13221  Biso   1.000  C
  C174     1.0000 0.73847  0.69461  0.07148  Biso   1.000  C
  C175     1.0000 0.58048  0.95512  0.04798  Biso   1.000  C
  H177     1.0000 0.56810  0.89481  0.11640  Biso   1.000  H
  H178     1.0000 0.55042  0.87662  0.03462  Biso   1.000  H
  H179     1.0000 0.48851  0.95312  0.29480  Biso   1.000  H
  H180     1.0000 0.50048  0.95292  0.37980  Biso   1.000  H
  C176     1.0000 0.51161  0.02869  0.34011  Biso   1.000  C
  C177     1.0000 0.92811  0.74759  0.38770  Biso   1.000  C
  C178     1.0000 0.85830  0.79890  0.29867  Biso   1.000  C
  H181     1.0000 0.83349  0.87512  0.47041  Biso   1.000  H
  H182     1.0000 0.82799  0.87829  0.38689  Biso   1.000  H
  C179     1.0000 0.91059  0.89261  0.45078  Biso   1.000  C
  O22      1.0000 0.95275  0.73168  0.45891  Biso   1.000  O
  H183     1.0000 0.95949  0.65261  0.44839  Biso   1.000  H
  H184     1.0000 0.95598  0.67032  0.52570  Biso   1.000  H
  C180     1.0000 0.85248  0.79821  0.16422  Biso   1.000  C
  C181     1.0000 0.79088  0.72033  0.10392  Biso   1.000  C
  C182     1.0000 0.73718  0.64041  0.04542  Biso   1.000  C
  H185     1.0000 0.61510  0.97233  0.07780  Biso   1.000  H
  H186     1.0000 0.54819  0.97440  0.05610  Biso   1.000  H
  C183     1.0000 0.57851  0.96000  0.96810  Biso   1.000  C
  H187     1.0000 0.53639  0.04232  0.38580  Biso   1.000  H
  H188     1.0000 0.52558  0.04260  0.30101  Biso   1.000  H
  C184     1.0000 0.45018  0.05021  0.33007  Biso   1.000  C
  C185     1.0000 0.95198  0.72932  0.33307  Biso   1.000  C
  C186     1.0000 0.87917  0.78010  0.24268  Biso   1.000  C
  H189     1.0000 0.82768  0.82299  0.28738  Biso   1.000  H
  C187     1.0000 0.91198  0.95032  0.47777  Biso   1.000  C
  H190     1.0000 0.92320  0.89241  0.40711  Biso   1.000  H
  H191     1.0000 0.93759  0.87113  0.48737  Biso   1.000  H
  H192     1.0000 0.87707  0.78393  0.13598  Biso   1.000  H
  C188     1.0000 0.85370  0.86043  0.15740  Biso   1.000  C
  O23      1.0000 0.84015  0.69355  0.10299  Biso   1.000  O
  C189     1.0000 0.73730  0.59520  0.02552  Biso   1.000  C
  H193     1.0000 0.54331  0.94360  0.93861  Biso   1.000  H
  H194     1.0000 0.61010  0.93949  0.95998  Biso   1.000  H
  C190     1.0000 0.58167  0.01790  0.94259  Biso   1.000  C
  H195     1.0000 0.42399  0.03052  0.29142  Biso   1.000  H
  H196     1.0000 0.44008  0.04521  0.37451  Biso   1.000  H
  H197     1.0000 0.44857  0.08822  0.31797  Biso   1.000  H
  C191     1.0000 0.92548  0.74462  0.26001  Biso   1.000  C
  C192     1.0000 0.00338  0.69811  0.35008  Biso   1.000  C
  H198     1.0000 0.94779  0.96712  0.47712  Biso   1.000  H
  H199     1.0000 0.88120  0.97070  0.44501  Biso   1.000  H
  C193     1.0000 0.90599  0.95361  0.55481  Biso   1.000  C
  H200     1.0000 0.83647  0.87683  0.19219  Biso   1.000  H
  H201     1.0000 0.83127  0.87113  0.10888  Biso   1.000  H
  C194     1.0000 0.91479  0.88151  0.17142  Biso   1.000  C
  C195     1.0000 0.86559  0.66092  0.16640  Biso   1.000  C
  I11      1.0000 0.74301  0.52041  0.98119  Biso   1.000  I
  H202     1.0000 0.55108  0.03898  0.95229  Biso   1.000  H
  H203     1.0000 0.61770  0.03390  0.97012  Biso   1.000  H
  C196     1.0000 0.57682  0.02079  0.86211  Biso   1.000  C
  O24      1.0000 0.94706  0.72427  0.20609  Biso   1.000  O
  C197     1.0000 0.04841  0.67479  0.36131  Biso   1.000  C
  H204     1.0000 0.93727  0.93371  0.58747  Biso   1.000  H
  H205     1.0000 0.87067  0.93583  0.55547  Biso   1.000  H
  C198     1.0000 0.90567  0.01119  0.58300  Biso   1.000  C
  H206     1.0000 0.93388  0.86010  0.14257  Biso   1.000  H
  H207     1.0000 0.93511  0.87581  0.22239  Biso   1.000  H
  C199     1.0000 0.91878  0.94071  0.15342  Biso   1.000  C
  H208     1.0000 0.85101  0.67202  0.20642  Biso   1.000  H
  H209     1.0000 0.85630  0.62291  0.15588  Biso   1.000  H
  C200     1.0000 0.92938  0.66901  0.18679  Biso   1.000  C
  H210     1.0000 0.54371  0.00102  0.83502  Biso   1.000  H
  H211     1.0000 0.57340  0.05811  0.84669  Biso   1.000  H
  H212     1.0000 0.61039  0.00521  0.85350  Biso   1.000  H
  I12      1.0000 0.12747  0.64228  0.37707  Biso   1.000  I
  H213     1.0000 0.94240  0.02820  0.58682  Biso   1.000  H
  H214     1.0000 0.87650  0.03219  0.54860  Biso   1.000  H
  C201     1.0000 0.89439  0.01241  0.65797  Biso   1.000  C
  H215     1.0000 0.89390  0.94779  0.10490  Biso   1.000  H
  H216     1.0000 0.90558  0.96260  0.18750  Biso   1.000  H
  C202     1.0000 0.97948  0.95772  0.15670  Biso   1.000  C
  H217     1.0000 0.94308  0.65790  0.14617  Biso   1.000  H
  H218     1.0000 0.94717  0.64549  0.22779  Biso   1.000  H
  H219     1.0000 0.85779  0.99630  0.65421  Biso   1.000  H
  H220     1.0000 0.92368  0.99223  0.69237  Biso   1.000  H
  H221     1.0000 0.89459  0.04940  0.67421  Biso   1.000  H
  H222     1.0000 0.99260  0.93522  0.12300  Biso   1.000  H
  C203     1.0000 0.98659  0.01668  0.13892  Biso   1.000  C
  H223     1.0000 0.00419  0.95032  0.20538  Biso   1.000  H
  H224     1.0000 0.97879  0.03910  0.17681  Biso   1.000  H
  H225     1.0000 0.95810  0.02551  0.09350  Biso   1.000  H
  C204     1.0000 0.04420  0.03150  0.13211  Biso   1.000  C
  H226     1.0000 0.05621  0.00460  0.10310  Biso   1.000  H
  H227     1.0000 0.04221  0.06641  0.10899  Biso   1.000  H
  H228     1.0000 0.07119  0.03300  0.17959  Biso   1.000  H
  C205     1.0000 0.44379  0.32960  0.67198  Biso   1.000  C
  C206     1.0000 0.38001  0.33831  0.65110  Biso   1.000  C
  O25      1.0000 0.46088  0.27398  0.69177  Biso   1.000  O
  H229     1.0000 0.45779  0.34022  0.63142  Biso   1.000  H
  H230     1.0000 0.46171  0.35312  0.71282  Biso   1.000  H
  O26      1.0000 0.35462  0.30629  0.58791  Biso   1.000  O
  H231     1.0000 0.36507  0.32749  0.69079  Biso   1.000  H
  H232     1.0000 0.37128  0.37652  0.64068  Biso   1.000  H
  C207     1.0000 0.43858  0.25392  0.74520  Biso   1.000  C
  C208     1.0000 0.30441  0.27980  0.58922  Biso   1.000  C
  C209     1.0000 0.39158  0.21908  0.72666  Biso   1.000  C
  C210     1.0000 0.46547  0.26869  0.81821  Biso   1.000  C
  C211     1.0000 0.25241  0.30621  0.55601  Biso   1.000  C
  C212     1.0000 0.30660  0.22739  0.61631  Biso   1.000  C
  C213     1.0000 0.36487  0.20130  0.64897  Biso   1.000  C
  C214     1.0000 0.37028  0.20049  0.78271  Biso   1.000  C
  C215     1.0000 0.44149  0.24932  0.87327  Biso   1.000  C
  C216     1.0000 0.51697  0.30002  0.83707  Biso   1.000  C
  C217     1.0000 0.20148  0.27760  0.54991  Biso   1.000  C
  C218     1.0000 0.25171  0.36122  0.53060  Biso   1.000  C
  C219     1.0000 0.25469  0.20110  0.61168  Biso   1.000  C
  H233     1.0000 0.38980  0.21502  0.62078  Biso   1.000  H
  C220     1.0000 0.36479  0.13900  0.64259  Biso   1.000  C
  C221     1.0000 0.39397  0.21542  0.85659  Biso   1.000  C
  H234     1.0000 0.33898  0.17721  0.77077  Biso   1.000  H
  O27      1.0000 0.46660  0.26413  0.94486  Biso   1.000  O
  C222     1.0000 0.56110  0.32362  0.85141  Biso   1.000  C
  O28      1.0000 0.15035  0.30075  0.50961  Biso   1.000  O
  C223     1.0000 0.20169  0.22531  0.57787  Biso   1.000  C
  C224     1.0000 0.25098  0.40590  0.51147  Biso   1.000  C
  H235     1.0000 0.25549  0.16651  0.63169  Biso   1.000  H
  H236     1.0000 0.34599  0.12362  0.67640  Biso   1.000  H
  H237     1.0000 0.34297  0.12859  0.59369  Biso   1.000  H
  C225     1.0000 0.42519  0.11581  0.65900  Biso   1.000  C
  C226     1.0000 0.36768  0.19499  0.91487  Biso   1.000  C
  C227     1.0000 0.45507  0.31959  0.96138  Biso   1.000  C
  I13      1.0000 0.64014  0.35813  0.87698  Biso   1.000  I
  C228     1.0000 0.12269  0.33611  0.54849  Biso   1.000  C
  C229     1.0000 0.14468  0.19740  0.56981  Biso   1.000  C
  I14      1.0000 0.25050  0.48220  0.46916  Biso   1.000  I
  H238     1.0000 0.44409  0.13221  0.62602  Biso   1.000  H
  H239     1.0000 0.44648  0.12582  0.70829  Biso   1.000  H
  C230     1.0000 0.42660  0.05469  0.65159  Biso   1.000  C
  C231     1.0000 0.31089  0.22368  0.90669  Biso   1.000  C
  H240     1.0000 0.39346  0.20610  0.96209  Biso   1.000  H
  C232     1.0000 0.36347  0.13261  0.91618  Biso   1.000  C
  C233     1.0000 0.39219  0.33359  0.93761  Biso   1.000  C
  H241     1.0000 0.47518  0.34409  0.93750  Biso   1.000  H
  H242     1.0000 0.46988  0.32541  0.01356  Biso   1.000  H
  H243     1.0000 0.12848  0.37379  0.53720  Biso   1.000  H
  H244     1.0000 0.13880  0.33082  0.60061  Biso   1.000  H
  C234     1.0000 0.05958  0.32301  0.52619  Biso   1.000  C
  C235     1.0000 0.11848  0.21701  0.62831  Biso   1.000  C
  H245     1.0000 0.11901  0.20920  0.52292  Biso   1.000  H
  C236     1.0000 0.14817  0.13502  0.56659  Biso   1.000  C
  C237     1.0000 0.48600  0.03341  0.65988  Biso   1.000  C
  H246     1.0000 0.41169  0.03809  0.68828  Biso   1.000  H
  H247     1.0000 0.40190  0.04419  0.60410  Biso   1.000  H
  C238     1.0000 0.25787  0.20061  0.87207  Biso   1.000  C
  C239     1.0000 0.31230  0.27609  0.93510  Biso   1.000  C
  H248     1.0000 0.34697  0.12212  0.95456  Biso   1.000  H
  H249     1.0000 0.33778  0.12041  0.87027  Biso   1.000  H
  C240     1.0000 0.42088  0.10401  0.92839  Biso   1.000  C
  O29      1.0000 0.36350  0.29823  0.97550  Biso   1.000  O
  H250     1.0000 0.38668  0.37119  0.94917  Biso   1.000  H
  H251     1.0000 0.37688  0.32859  0.88538  Biso   1.000  H
  O30      1.0000 0.04719  0.26832  0.54107  Biso   1.000  O
  H252     1.0000 0.04050  0.34739  0.55160  Biso   1.000  H
  H253     1.0000 0.04401  0.32968  0.47428  Biso   1.000  H
  C241     1.0000 0.07188  0.25241  0.61228  Biso   1.000  C
  C242     1.0000 0.14168  0.20110  0.70131  Biso   1.000  C
  H254     1.0000 0.16649  0.12488  0.52957  Biso   1.000  H
  H255     1.0000 0.17199  0.12171  0.61310  Biso   1.000  H
  C243     1.0000 0.08939  0.10739  0.54920  Biso   1.000  C
  H256     1.0000 0.51148  0.04692  0.70518  Biso   1.000  H
  H257     1.0000 0.49950  0.04708  0.62018  Biso   1.000  H
  C244     1.0000 0.48838  0.97131  0.65988  Biso   1.000  C
  C245     1.0000 0.20600  0.22730  0.86777  Biso   1.000  C
  H258     1.0000 0.25677  0.16631  0.85108  Biso   1.000  H
  C246     1.0000 0.26147  0.30539  0.92850  Biso   1.000  C
  C247     1.0000 0.41950  0.04488  0.95200  Biso   1.000  C
  H259     1.0000 0.43189  0.10519  0.88358  Biso   1.000  H
  H260     1.0000 0.44957  0.12342  0.96536  Biso   1.000  H
  C248     1.0000 0.04801  0.27072  0.66691  Biso   1.000  C
  C249     1.0000 0.12078  0.21990  0.75731  Biso   1.000  C
  H261     1.0000 0.17231  0.17701  0.71260  Biso   1.000  H
  C250     1.0000 0.08801  0.04968  0.52221  Biso   1.000  C
  H262     1.0000 0.07678  0.10759  0.59287  Biso   1.000  H
  H263     1.0000 0.06239  0.12891  0.51261  Biso   1.000  H
  H264     1.0000 0.46359  0.95772  0.61419  Biso   1.000  H
  H265     1.0000 0.47437  0.95740  0.69897  Biso   1.000  H
  C251     1.0000 0.54980  0.94983  0.66991  Biso   1.000  C
  C252     1.0000 0.14746  0.20179  0.83576  Biso   1.000  C
  C253     1.0000 0.20906  0.27972  0.89606  Biso   1.000  C
  C254     1.0000 0.26277  0.35959  0.95456  Biso   1.000  C
  H266     1.0000 0.38488  0.02771  0.92218  Biso   1.000  H
  H267     1.0000 0.45180  0.02560  0.94388  Biso   1.000  H
  C255     1.0000 0.42148  0.04000  0.03188  Biso   1.000  C
  C256     1.0000 0.07450  0.25542  0.73997  Biso   1.000  C
  C257     1.0000 0.99660  0.30189  0.64990  Biso   1.000  C
  H268     1.0000 0.05221  0.03292  0.52292  Biso   1.000  H
  H269     1.0000 0.11878  0.02930  0.55498  Biso   1.000  H
  C258     1.0000 0.09400  0.04639  0.44517  Biso   1.000  C
  H270     1.0000 0.57596  0.96952  0.70856  Biso   1.000  H
  H271     1.0000 0.55987  0.95479  0.62547  Biso   1.000  H
  H272     1.0000 0.55137  0.91182  0.68201  Biso   1.000  H
  H273     1.0000 0.12287  0.21611  0.86400  Biso   1.000  H
  C259     1.0000 0.14629  0.13961  0.84258  Biso   1.000  C
  O31      1.0000 0.15984  0.30649  0.89699  Biso   1.000  O
  C260     1.0000 0.26268  0.40480  0.97447  Biso   1.000  C
  C261     1.0000 0.41827  0.98210  0.05739  Biso   1.000  C
  H274     1.0000 0.45668  0.05640  0.06137  Biso   1.000  H
  H275     1.0000 0.38988  0.06051  0.04000  Biso   1.000  H
  O32      1.0000 0.05293  0.27573  0.79389  Biso   1.000  O
  C262     1.0000 0.95157  0.32521  0.63867  Biso   1.000  C
  H276     1.0000 0.06268  0.06629  0.41251  Biso   1.000  H
  H277     1.0000 0.12928  0.06421  0.44451  Biso   1.000  H
  C263     1.0000 0.09427  0.98881  0.41698  Biso   1.000  C
  H278     1.0000 0.16347  0.12321  0.80779  Biso   1.000  H
  H279     1.0000 0.16868  0.12891  0.89110  Biso   1.000  H
  C264     1.0000 0.08519  0.11849  0.82857  Biso   1.000  C
  C265     1.0000 0.13440  0.33908  0.83358  Biso   1.000  C
  I15      1.0000 0.25698  0.47959  0.01879  Biso   1.000  I
  H280     1.0000 0.44890  0.96102  0.04769  Biso   1.000  H
  H281     1.0000 0.38228  0.96610  0.02986  Biso   1.000  H
  C266     1.0000 0.42317  0.97921  0.13787  Biso   1.000  C
  C267     1.0000 0.07061  0.33099  0.81319  Biso   1.000  C
  I16      1.0000 0.87252  0.35772  0.62291  Biso   1.000  I
  H282     1.0000 0.05759  0.97180  0.41322  Biso   1.000  H
  H283     1.0000 0.12349  0.96781  0.45138  Biso   1.000  H
  C268     1.0000 0.10560  0.98763  0.34201  Biso   1.000  C
  H284     1.0000 0.06611  0.13990  0.85741  Biso   1.000  H
  H285     1.0000 0.06488  0.12419  0.77759  Biso   1.000  H
  C269     1.0000 0.08117  0.05929  0.84661  Biso   1.000  C
  H286     1.0000 0.14898  0.32802  0.79356  Biso   1.000  H
  H287     1.0000 0.14368  0.37709  0.84410  Biso   1.000  H
  H288     1.0000 0.45628  0.99902  0.16496  Biso   1.000  H
  H289     1.0000 0.42659  0.94189  0.15330  Biso   1.000  H
  H290     1.0000 0.38959  0.99483  0.14648  Biso   1.000  H
  H291     1.0000 0.05690  0.34210  0.85381  Biso   1.000  H
  H292     1.0000 0.05277  0.35451  0.77219  Biso   1.000  H
  H293     1.0000 0.14220  0.00370  0.34578  Biso   1.000  H
  H294     1.0000 0.07630  0.00781  0.30761  Biso   1.000  H
  H295     1.0000 0.10541  0.95060  0.32582  Biso   1.000  H
  H296     1.0000 0.10609  0.05221  0.89508  Biso   1.000  H
  H297     1.0000 0.09437  0.03740  0.81248  Biso   1.000  H
  C270     1.0000 0.02047  0.04232  0.84329  Biso   1.000  C
  H298     1.0000 0.00738  0.06478  0.87698  Biso   1.000  H
  H299     1.0000 0.99579  0.04968  0.79460  Biso   1.000  H
  C271     1.0000 0.01340  0.98332  0.86106  Biso   1.000  C
  C272     1.0000 0.95579  0.96850  0.86788  Biso   1.000  C
  H300     1.0000 0.02120  0.96090  0.82317  Biso   1.000  H
  H301     1.0000 0.04189  0.97453  0.90648  Biso   1.000  H
  H302     1.0000 0.94378  0.99540  0.89688  Biso   1.000  H
  H303     1.0000 0.95777  0.93363  0.89099  Biso   1.000  H
  H304     1.0000 0.92880  0.96700  0.82039  Biso   1.000  H
