data_image0
_cell_length_a       14.222
_cell_length_b       24.936
_cell_length_c       18.117
_cell_angle_alpha    90
_cell_angle_beta     98.65
_cell_angle_gamma    90

_symmetry_space_group_name_H-M    "P 1"
_symmetry_int_tables_number       1

loop_
  _symmetry_equiv_pos_as_xyz
  'x, y, z'

loop_
  _atom_site_label
  _atom_site_occupancy
  _atom_site_fract_x
  _atom_site_fract_y
  _atom_site_fract_z
  _atom_site_thermal_displace_type
  _atom_site_B_iso_or_equiv
  _atom_site_type_symbol
  C1       1.0000 0.54871  0.52992  0.60399  Biso   1.000  C
  C2       1.0000 0.58139  0.58129  0.58261  Biso   1.000  C
  C3       1.0000 0.52153  0.48628  0.61957  Biso   1.000  C
  C4       1.0000 0.67479  0.58698  0.56736  Biso   1.000  C
  C5       1.0000 0.52130  0.62560  0.57289  Biso   1.000  C
  I1       1.0000 0.47902  0.41286  0.64173  Biso   1.000  I
  C6       1.0000 0.70689  0.63450  0.54040  Biso   1.000  C
  O1       1.0000 0.73529  0.54371  0.58328  Biso   1.000  O
  C7       1.0000 0.55120  0.67489  0.54687  Biso   1.000  C
  O2       1.0000 0.43190  0.62047  0.59399  Biso   1.000  O
  C8       1.0000 0.80548  0.63699  0.51728  Biso   1.000  C
  C9       1.0000 0.64381  0.67790  0.53040  Biso   1.000  C
  C10      1.0000 0.74661  0.50918  0.52348  Biso   1.000  C
  C11      1.0000 0.48160  0.72169  0.53409  Biso   1.000  C
  C12      1.0000 0.35517  0.61201  0.53626  Biso   1.000  C
  C13      1.0000 0.79608  0.61481  0.43817  Biso   1.000  C
  H1       1.0000 0.84672  0.61141  0.55017  Biso   1.000  H
  C14      1.0000 0.85381  0.69241  0.52700  Biso   1.000  C
  H2       1.0000 0.66483  0.71070  0.51170  Biso   1.000  H
  O3       1.0000 0.82302  0.52506  0.48630  Biso   1.000  O
  H3       1.0000 0.75833  0.47229  0.54280  Biso   1.000  H
  H4       1.0000 0.68709  0.50890  0.48730  Biso   1.000  H
  C15      1.0000 0.42351  0.71519  0.45659  Biso   1.000  C
  H5       1.0000 0.43617  0.71732  0.57077  Biso   1.000  H
  C16      1.0000 0.52939  0.77651  0.54978  Biso   1.000  C
  O4       1.0000 0.30960  0.66041  0.51019  Biso   1.000  O
  H6       1.0000 0.37867  0.59372  0.49417  Biso   1.000  H
  H7       1.0000 0.30823  0.58819  0.55480  Biso   1.000  H
  C17      1.0000 0.77893  0.64790  0.37508  Biso   1.000  C
  C18      1.0000 0.80072  0.55979  0.42678  Biso   1.000  C
  H8       1.0000 0.85554  0.70440  0.57931  Biso   1.000  H
  H9       1.0000 0.81553  0.71860  0.49417  Biso   1.000  H
  C19      1.0000 0.95460  0.69149  0.50840  Biso   1.000  C
  C20      1.0000 0.45049  0.73721  0.39267  Biso   1.000  C
  C21      1.0000 0.34150  0.68351  0.44839  Biso   1.000  C
  H10      1.0000 0.57137  0.78349  0.51198  Biso   1.000  H
  H11      1.0000 0.56970  0.77551  0.59941  Biso   1.000  H
  C22      1.0000 0.45848  0.82198  0.54849  Biso   1.000  C
  C23      1.0000 0.76922  0.62761  0.30272  Biso   1.000  C
  H12      1.0000 0.77370  0.68551  0.38189  Biso   1.000  H
  C24      1.0000 0.78923  0.53802  0.35470  Biso   1.000  C
  H13      1.0000 0.99289  0.66550  0.54168  Biso   1.000  H
  H14      1.0000 0.95278  0.67882  0.45637  Biso   1.000  H
  C25      1.0000 0.00340  0.74611  0.51650  Biso   1.000  C
  C26      1.0000 0.39658  0.73031  0.32120  Biso   1.000  C
  H15      1.0000 0.50752  0.75762  0.39708  Biso   1.000  H
  C27      1.0000 0.28760  0.67489  0.37882  Biso   1.000  C
  H16      1.0000 0.42509  0.82640  0.49679  Biso   1.000  H
  H17      1.0000 0.41043  0.81220  0.58026  Biso   1.000  H
  C28      1.0000 0.50269  0.87532  0.57518  Biso   1.000  C
  C29      1.0000 0.74900  0.66390  0.23388  Biso   1.000  C
  C30      1.0000 0.77282  0.57259  0.29362  Biso   1.000  C
  C31      1.0000 0.79549  0.48079  0.34370  Biso   1.000  C
  H18      1.0000 0.95909  0.77330  0.49110  Biso   1.000  H
  H19      1.0000 0.01601  0.75549  0.57021  Biso   1.000  H
  C32      1.0000 0.09570  0.74932  0.48518  Biso   1.000  C
  C33      1.0000 0.42742  0.75261  0.25057  Biso   1.000  C
  C34      1.0000 0.31618  0.69871  0.31551  Biso   1.000  C
  C35      1.0000 0.20491  0.64052  0.37078  Biso   1.000  C
  H20      1.0000 0.53388  0.87119  0.62749  Biso   1.000  H
  H21      1.0000 0.55268  0.88430  0.54470  Biso   1.000  H
  C36      1.0000 0.43279  0.92160  0.57110  Biso   1.000  C
  C37      1.0000 0.64123  0.66751  0.21199  Biso   1.000  C
  H22      1.0000 0.77352  0.64449  0.19228  Biso   1.000  H
  C38      1.0000 0.80200  0.71800  0.24298  Biso   1.000  C
  O5       1.0000 0.76689  0.54993  0.22338  Biso   1.000  O
  C39      1.0000 0.79969  0.43439  0.33332  Biso   1.000  C
  H23      1.0000 0.14321  0.72550  0.51410  Biso   1.000  H
  H24      1.0000 0.08543  0.73681  0.43270  Biso   1.000  H
  C40      1.0000 0.13618  0.80971  0.48842  Biso   1.000  C
  C41      1.0000 0.48802  0.71010  0.21970  Biso   1.000  C
  H25      1.0000 0.36859  0.75730  0.21328  Biso   1.000  H
  C42      1.0000 0.47522  0.80791  0.26152  Biso   1.000  C
  O6       1.0000 0.25839  0.69165  0.24767  Biso   1.000  O
  C43      1.0000 0.13879  0.61128  0.36548  Biso   1.000  C
  H26      1.0000 0.40441  0.92729  0.51840  Biso   1.000  H
  H27      1.0000 0.38084  0.91189  0.59941  Biso   1.000  H
  C44      1.0000 0.47828  0.97361  0.60231  Biso   1.000  C
  C45      1.0000 0.59401  0.62769  0.16699  Biso   1.000  C
  C46      1.0000 0.58660  0.70781  0.23840  Biso   1.000  C
  H28      1.0000 0.77869  0.73869  0.28318  Biso   1.000  H
  H29      1.0000 0.78641  0.73869  0.19608  Biso   1.000  H
  C47      1.0000 0.90857  0.71270  0.26118  Biso   1.000  C
  C48      1.0000 0.67372  0.54299  0.18447  Biso   1.000  C
  I2       1.0000 0.80506  0.35531  0.31802  Biso   1.000  I
  H30      1.0000 0.15981  0.81942  0.54090  Biso   1.000  H
  H31      1.0000 0.08402  0.83470  0.46938  Biso   1.000  H
  C49      1.0000 0.21359  0.81549  0.44358  Biso   1.000  C
  C50      1.0000 0.44347  0.66911  0.17470  Biso   1.000  C
  H32      1.0000 0.49161  0.82010  0.21311  Biso   1.000  H
  H33      1.0000 0.53530  0.80410  0.29658  Biso   1.000  H
  C51      1.0000 0.41402  0.85110  0.29150  Biso   1.000  C
  C52      1.0000 0.28641  0.65099  0.20122  Biso   1.000  C
  I3       1.0000 0.02351  0.56465  0.35688  Biso   1.000  I
  H34      1.0000 0.50639  0.96792  0.65507  Biso   1.000  H
  H35      1.0000 0.53048  0.98312  0.57417  Biso   1.000  H
  C53      1.0000 0.40844  0.01989  0.59779  Biso   1.000  C
  C54      1.0000 0.49643  0.62761  0.14907  Biso   1.000  C
  O7       1.0000 0.64454  0.58746  0.13712  Biso   1.000  O
  H36      1.0000 0.61790  0.73460  0.27039  Biso   1.000  H
  H37      1.0000 0.92478  0.70031  0.31350  Biso   1.000  H
  H38      1.0000 0.92991  0.68471  0.22869  Biso   1.000  H
  C55      1.0000 0.96394  0.76412  0.25180  Biso   1.000  C
  H39      1.0000 0.67139  0.50991  0.15398  Biso   1.000  H
  H40      1.0000 0.62887  0.53850  0.22087  Biso   1.000  H
  H41      1.0000 0.26281  0.78870  0.45938  Biso   1.000  H
  H42      1.0000 0.18848  0.81031  0.39071  Biso   1.000  H
  H43      1.0000 0.24122  0.85150  0.45090  Biso   1.000  H
  O8       1.0000 0.34588  0.67040  0.15052  Biso   1.000  O
  H44      1.0000 0.45072  0.88499  0.29730  Biso   1.000  H
  H45      1.0000 0.40147  0.84019  0.34158  Biso   1.000  H
  C56      1.0000 0.32023  0.86161  0.24270  Biso   1.000  C
  H46      1.0000 0.32078  0.62271  0.23271  Biso   1.000  H
  H47      1.0000 0.22893  0.63450  0.17241  Biso   1.000  H
  H48      1.0000 0.36950  0.01648  0.63788  Biso   1.000  H
  H49      1.0000 0.44338  0.05390  0.60326  Biso   1.000  H
  H50      1.0000 0.36710  0.01921  0.54939  Biso   1.000  H
  C57      1.0000 0.44849  0.58289  0.10770  Biso   1.000  C
  H51      1.0000 0.95042  0.77538  0.19887  Biso   1.000  H
  C58      1.0000 0.94281  0.80991  0.29937  Biso   1.000  C
  H52      1.0000 0.03282  0.75610  0.26308  Biso   1.000  H
  H53      1.0000 0.33180  0.86742  0.19078  Biso   1.000  H
  H54      1.0000 0.27957  0.82940  0.24298  Biso   1.000  H
  C59      1.0000 0.26641  0.91041  0.26749  Biso   1.000  C
  C60      1.0000 0.41382  0.54391  0.07828  Biso   1.000  C
  H55      1.0000 0.87381  0.81789  0.28932  Biso   1.000  H
  H56      1.0000 0.95863  0.79961  0.35258  Biso   1.000  H
  C61      1.0000 0.99930  0.86108  0.28519  Biso   1.000  C
  H57      1.0000 0.25351  0.90440  0.31908  Biso   1.000  H
  H58      1.0000 0.20442  0.91370  0.23461  Biso   1.000  H
  C62      1.0000 0.32158  0.96222  0.26481  Biso   1.000  C
  I4       1.0000 0.36059  0.47887  0.02250  Biso   1.000  I
  H59      1.0000 0.99568  0.86642  0.23070  Biso   1.000  H
  C63      1.0000 0.96222  0.91069  0.31919  Biso   1.000  C
  H60      1.0000 0.06702  0.85591  0.30652  Biso   1.000  H
  H61      1.0000 0.37782  0.96130  0.30440  Biso   1.000  H
  H62      1.0000 0.34487  0.96451  0.21607  Biso   1.000  H
  C64      1.0000 0.26293  0.01259  0.27542  Biso   1.000  C
  H63      1.0000 0.95540  0.90351  0.37128  Biso   1.000  H
  H64      1.0000 0.90024  0.92040  0.29111  Biso   1.000  H
  H65      1.0000 0.00698  0.94029  0.31718  Biso   1.000  H
  H66      1.0000 0.24781  0.01339  0.32639  Biso   1.000  H
  H67      1.0000 0.29959  0.04459  0.26671  Biso   1.000  H
  H68      1.0000 0.20373  0.01199  0.23980  Biso   1.000  H
  C65      1.0000 0.45128  0.47008  0.39602  Biso   1.000  C
  C66      1.0000 0.41860  0.41871  0.41740  Biso   1.000  C
  C67      1.0000 0.47852  0.51372  0.38038  Biso   1.000  C
  C68      1.0000 0.47868  0.37440  0.42711  Biso   1.000  C
  C69      1.0000 0.32518  0.41302  0.43259  Biso   1.000  C
  I5       1.0000 0.52097  0.58714  0.35827  Biso   1.000  I
  C70      1.0000 0.44878  0.32511  0.45308  Biso   1.000  C
  O9       1.0000 0.56808  0.37953  0.40601  Biso   1.000  O
  C71      1.0000 0.29309  0.36550  0.45961  Biso   1.000  C
  O10      1.0000 0.26468  0.45629  0.41667  Biso   1.000  O
  C72      1.0000 0.51839  0.27831  0.46592  Biso   1.000  C
  C73      1.0000 0.35618  0.32210  0.46960  Biso   1.000  C
  C74      1.0000 0.64481  0.38799  0.46368  Biso   1.000  C
  C75      1.0000 0.19450  0.36301  0.48267  Biso   1.000  C
  C76      1.0000 0.25343  0.49082  0.47647  Biso   1.000  C
  C77      1.0000 0.47058  0.22349  0.45017  Biso   1.000  C
  C78      1.0000 0.57648  0.28481  0.54341  Biso   1.000  C
  H69      1.0000 0.56380  0.28268  0.42918  Biso   1.000  H
  H70      1.0000 0.33522  0.28930  0.48831  Biso   1.000  H
  O11      1.0000 0.69038  0.33959  0.48981  Biso   1.000  O
  H71      1.0000 0.62130  0.40632  0.50578  Biso   1.000  H
  H72      1.0000 0.69182  0.41181  0.44520  Biso   1.000  H
  H73      1.0000 0.15332  0.38859  0.44978  Biso   1.000  H
  C79      1.0000 0.20389  0.38519  0.56178  Biso   1.000  C
  C80      1.0000 0.14624  0.30759  0.47301  Biso   1.000  C
  H74      1.0000 0.24172  0.52771  0.45721  Biso   1.000  H
  H75      1.0000 0.31290  0.49110  0.51270  Biso   1.000  H
  O12      1.0000 0.17703  0.47494  0.51371  Biso   1.000  O
  H76      1.0000 0.42860  0.21651  0.48797  Biso   1.000  H
  H77      1.0000 0.43029  0.22449  0.40059  Biso   1.000  H
  C81      1.0000 0.54150  0.17802  0.45151  Biso   1.000  C
  C82      1.0000 0.65848  0.31649  0.55156  Biso   1.000  C
  C83      1.0000 0.54948  0.26279  0.60728  Biso   1.000  C
  C84      1.0000 0.19932  0.44021  0.57317  Biso   1.000  C
  C85      1.0000 0.22111  0.35210  0.62487  Biso   1.000  C
  H78      1.0000 0.14451  0.29560  0.42069  Biso   1.000  H
  H79      1.0000 0.18451  0.28140  0.50578  Biso   1.000  H
  C86      1.0000 0.04539  0.30851  0.49160  Biso   1.000  C
  H80      1.0000 0.57489  0.17360  0.50321  Biso   1.000  H
  H81      1.0000 0.58962  0.18780  0.41969  Biso   1.000  H
  C87      1.0000 0.49729  0.12472  0.42477  Biso   1.000  C
  C88      1.0000 0.71239  0.32511  0.62118  Biso   1.000  C
  C89      1.0000 0.60340  0.26969  0.67880  Biso   1.000  C
  H82      1.0000 0.49252  0.24242  0.60287  Biso   1.000  H
  C90      1.0000 0.21082  0.46198  0.64530  Biso   1.000  C
  C91      1.0000 0.23083  0.37239  0.69728  Biso   1.000  C
  H83      1.0000 0.22628  0.31449  0.61811  Biso   1.000  H
  H84      1.0000 0.00708  0.33450  0.45827  Biso   1.000  H
  H85      1.0000 0.04719  0.32118  0.54358  Biso   1.000  H
  C92      1.0000 0.99659  0.25389  0.48350  Biso   1.000  C
  H86      1.0000 0.46611  0.12881  0.37251  Biso   1.000  H
  H87      1.0000 0.44731  0.11570  0.45531  Biso   1.000  H
  C93      1.0000 0.56720  0.07840  0.42890  Biso   1.000  C
  C94      1.0000 0.68381  0.30129  0.68450  Biso   1.000  C
  C95      1.0000 0.79513  0.35952  0.62917  Biso   1.000  C
  C96      1.0000 0.57262  0.24739  0.74937  Biso   1.000  C
  C97      1.0000 0.22723  0.42741  0.70638  Biso   1.000  C
  C98      1.0000 0.20449  0.51921  0.65630  Biso   1.000  C
  C99      1.0000 0.25097  0.33610  0.76607  Biso   1.000  C
  H88      1.0000 0.04090  0.22670  0.50891  Biso   1.000  H
  H89      1.0000 0.98397  0.24451  0.42979  Biso   1.000  H
  C100     1.0000 0.90428  0.25068  0.51477  Biso   1.000  C
  H90      1.0000 0.59557  0.07271  0.48161  Biso   1.000  H
  H91      1.0000 0.61922  0.08811  0.40059  Biso   1.000  H
  C101     1.0000 0.52170  0.02639  0.39769  Biso   1.000  C
  O13      1.0000 0.74158  0.30835  0.75228  Biso   1.000  O
  C102     1.0000 0.86119  0.38872  0.63447  Biso   1.000  C
  C103     1.0000 0.51203  0.28990  0.78031  Biso   1.000  C
  H92      1.0000 0.63138  0.24270  0.78667  Biso   1.000  H
  C104     1.0000 0.52484  0.19209  0.73849  Biso   1.000  C
  O14      1.0000 0.23309  0.45007  0.77656  Biso   1.000  O
  C105     1.0000 0.20029  0.56561  0.66669  Biso   1.000  C
  C106     1.0000 0.35882  0.33249  0.78801  Biso   1.000  C
  H93      1.0000 0.22653  0.35551  0.80766  Biso   1.000  H
  C107     1.0000 0.19797  0.28200  0.75697  Biso   1.000  C
  H94      1.0000 0.85684  0.27450  0.48590  Biso   1.000  H
  H95      1.0000 0.91462  0.26319  0.56731  Biso   1.000  H
  C108     1.0000 0.86380  0.19029  0.51159  Biso   1.000  C
  H96      1.0000 0.49358  0.03208  0.34487  Biso   1.000  H
  H97      1.0000 0.46949  0.01688  0.42577  Biso   1.000  H
  C109     1.0000 0.59161  0.98011  0.40221  Biso   1.000  C
  C110     1.0000 0.71358  0.34901  0.79879  Biso   1.000  C
  I6       1.0000 0.97646  0.43535  0.64307  Biso   1.000  I
  C111     1.0000 0.55652  0.33089  0.82531  Biso   1.000  C
  C112     1.0000 0.41339  0.29219  0.76160  Biso   1.000  C
  H98      1.0000 0.50844  0.17990  0.78689  Biso   1.000  H
  H99      1.0000 0.46474  0.19590  0.70337  Biso   1.000  H
  C113     1.0000 0.58603  0.14890  0.70851  Biso   1.000  C
  C114     1.0000 0.32632  0.45701  0.81548  Biso   1.000  C
  I7       1.0000 0.19499  0.64473  0.68193  Biso   1.000  I
  C115     1.0000 0.40603  0.37231  0.83296  Biso   1.000  C
  H100     1.0000 0.22128  0.26131  0.71677  Biso   1.000  H
  H101     1.0000 0.21364  0.26131  0.80387  Biso   1.000  H
  C116     1.0000 0.09141  0.28730  0.73877  Biso   1.000  C
  H102     1.0000 0.84017  0.18058  0.45911  Biso   1.000  H
  H103     1.0000 0.91602  0.16530  0.53057  Biso   1.000  H
  C117     1.0000 0.78638  0.18451  0.55636  Biso   1.000  C
  H104     1.0000 0.63047  0.98352  0.36207  Biso   1.000  H
  H105     1.0000 0.55659  0.94610  0.39669  Biso   1.000  H
  H106     1.0000 0.63287  0.98079  0.45056  Biso   1.000  H
  H107     1.0000 0.67921  0.37729  0.76730  Biso   1.000  H
  H108     1.0000 0.77113  0.36550  0.82760  Biso   1.000  H
  O15      1.0000 0.65410  0.32960  0.84948  Biso   1.000  O
  C118     1.0000 0.50362  0.37239  0.85088  Biso   1.000  C
  H109     1.0000 0.38209  0.26540  0.72961  Biso   1.000  H
  H110     1.0000 0.54934  0.11501  0.70270  Biso   1.000  H
  H111     1.0000 0.59850  0.15981  0.65837  Biso   1.000  H
  C119     1.0000 0.67983  0.13839  0.75730  Biso   1.000  C
  O16      1.0000 0.35552  0.41254  0.86288  Biso   1.000  O
  H112     1.0000 0.32858  0.49009  0.84596  Biso   1.000  H
  H113     1.0000 0.37110  0.46150  0.77908  Biso   1.000  H
  H114     1.0000 0.07521  0.29969  0.68651  Biso   1.000  H
  H115     1.0000 0.07014  0.31529  0.77126  Biso   1.000  H
  C120     1.0000 0.03612  0.23588  0.74820  Biso   1.000  C
  H116     1.0000 0.73723  0.21130  0.54056  Biso   1.000  H
  H117     1.0000 0.81150  0.18969  0.60929  Biso   1.000  H
  H118     1.0000 0.75884  0.14850  0.54911  Biso   1.000  H
  C121     1.0000 0.55149  0.41711  0.89230  Biso   1.000  C
  H119     1.0000 0.66818  0.13262  0.80917  Biso   1.000  H
  H120     1.0000 0.72040  0.17060  0.75697  Biso   1.000  H
  C122     1.0000 0.73364  0.08959  0.73246  Biso   1.000  C
  H121     1.0000 0.04962  0.22462  0.80108  Biso   1.000  H
  C123     1.0000 0.05723  0.19009  0.70058  Biso   1.000  C
  H122     1.0000 0.96722  0.24390  0.73687  Biso   1.000  H
  C124     1.0000 0.58623  0.45609  0.92167  Biso   1.000  C
  H123     1.0000 0.74653  0.09560  0.68087  Biso   1.000  H
  H124     1.0000 0.79564  0.08630  0.76540  Biso   1.000  H
  C125     1.0000 0.67840  0.03782  0.73519  Biso   1.000  C
  H125     1.0000 0.12624  0.18211  0.71068  Biso   1.000  H
  H126     1.0000 0.04141  0.20039  0.64737  Biso   1.000  H
  C126     1.0000 0.00067  0.13892  0.71476  Biso   1.000  C
  I8       1.0000 0.63939  0.52113  0.97750  Biso   1.000  I
  H127     1.0000 0.62223  0.03870  0.69561  Biso   1.000  H
  H128     1.0000 0.65510  0.03549  0.78388  Biso   1.000  H
  C127     1.0000 0.73712  0.98741  0.72459  Biso   1.000  C
  H129     1.0000 0.00430  0.13358  0.76931  Biso   1.000  H
  C128     1.0000 0.03783  0.08931  0.68081  Biso   1.000  C
  H130     1.0000 0.93303  0.14409  0.69349  Biso   1.000  H
  H131     1.0000 0.75225  0.98661  0.67361  Biso   1.000  H
  H132     1.0000 0.70040  0.95541  0.73330  Biso   1.000  H
  H133     1.0000 0.79633  0.98801  0.76021  Biso   1.000  H
  H134     1.0000 0.04458  0.09649  0.62867  Biso   1.000  H
  H135     1.0000 0.09982  0.07960  0.70890  Biso   1.000  H
  H136     1.0000 0.99300  0.05971  0.68277  Biso   1.000  H
  C129     1.0000 0.50072  0.36108  0.21479  Biso   1.000  C
  C130     1.0000 0.55721  0.30991  0.20060  Biso   1.000  C
  H137     1.0000 0.50427  0.36642  0.26928  Biso   1.000  H
  H138     1.0000 0.43301  0.35591  0.19351  Biso   1.000  H
  C131     1.0000 0.53780  0.41069  0.18078  Biso   1.000  C
  C132     1.0000 0.53609  0.26412  0.24817  Biso   1.000  C
  H139     1.0000 0.62622  0.31789  0.21071  Biso   1.000  H
  H140     1.0000 0.54139  0.29961  0.14740  Biso   1.000  H
  H141     1.0000 0.54462  0.40351  0.12869  Biso   1.000  H
  H142     1.0000 0.49297  0.44029  0.18279  Biso   1.000  H
  H143     1.0000 0.59979  0.42040  0.20892  Biso   1.000  H
  C133     1.0000 0.59138  0.21270  0.23879  Biso   1.000  C
  H144     1.0000 0.54960  0.27538  0.30110  Biso   1.000  H
  H145     1.0000 0.46720  0.25610  0.23689  Biso   1.000  H
  C134     1.0000 0.69802  0.21800  0.25699  Biso   1.000  C
  H146     1.0000 0.57517  0.20031  0.18648  Biso   1.000  H
  H147     1.0000 0.57012  0.18471  0.27129  Biso   1.000  H
  C135     1.0000 0.75102  0.16390  0.26609  Biso   1.000  C
  H148     1.0000 0.72133  0.23869  0.21680  Biso   1.000  H
  H149     1.0000 0.71362  0.23869  0.30389  Biso   1.000  H
  C136     1.0000 0.73081  0.12761  0.19731  Biso   1.000  C
  C137     1.0000 0.85879  0.16751  0.28798  Biso   1.000  C
  H150     1.0000 0.72651  0.14449  0.30769  Biso   1.000  H
  C138     1.0000 0.72109  0.14790  0.12490  Biso   1.000  C
  C139     1.0000 0.72721  0.07259  0.20641  Biso   1.000  C
  C140     1.0000 0.90601  0.12769  0.33298  Biso   1.000  C
  C141     1.0000 0.91342  0.20781  0.26157  Biso   1.000  C
  C142     1.0000 0.70387  0.11481  0.06181  Biso   1.000  C
  H151     1.0000 0.72632  0.18551  0.11808  Biso   1.000  H
  C143     1.0000 0.71079  0.03802  0.14527  Biso   1.000  C
  O17      1.0000 0.73313  0.04993  0.27659  Biso   1.000  O
  O18      1.0000 0.85549  0.08746  0.36291  Biso   1.000  O
  C144     1.0000 0.00359  0.12761  0.35090  Biso   1.000  C
  H152     1.0000 0.88212  0.23460  0.22958  Biso   1.000  H
  C145     1.0000 0.01200  0.21010  0.28028  Biso   1.000  C
  C146     1.0000 0.69455  0.13699  0.98269  Biso   1.000  C
  C147     1.0000 0.69930  0.05979  0.07320  Biso   1.000  C
  C148     1.0000 0.70453  0.98079  0.15627  Biso   1.000  C
  C149     1.0000 0.82630  0.04299  0.31551  Biso   1.000  C
  C150     1.0000 0.05648  0.16911  0.32528  Biso   1.000  C
  C151     1.0000 0.05153  0.08289  0.39227  Biso   1.000  C
  C152     1.0000 0.07260  0.25261  0.24940  Biso   1.000  C
  C153     1.0000 0.64621  0.19241  0.97298  Biso   1.000  C
  C154     1.0000 0.79313  0.13450  0.95958  Biso   1.000  C
  H153     1.0000 0.65329  0.11141  0.94975  Biso   1.000  H
  O19      1.0000 0.67700  0.02506  0.01368  Biso   1.000  O
  C155     1.0000 0.70027  0.93439  0.16671  Biso   1.000  C
  H154     1.0000 0.82863  0.00991  0.34599  Biso   1.000  H
  H155     1.0000 0.87108  0.03850  0.27910  Biso   1.000  H
  O20      1.0000 0.15408  0.17040  0.34951  Biso   1.000  O
  C156     1.0000 0.08621  0.04391  0.42170  Biso   1.000  C
  C157     1.0000 0.10337  0.23031  0.17877  Biso   1.000  C
  H156     1.0000 0.13143  0.25730  0.28670  Biso   1.000  H
  C158     1.0000 0.02481  0.30791  0.23851  Biso   1.000  C
  C159     1.0000 0.54542  0.19149  0.99157  Biso   1.000  C
  H157     1.0000 0.68449  0.21860  0.00581  Biso   1.000  H
  H158     1.0000 0.64455  0.20440  0.92066  Biso   1.000  H
  C160     1.0000 0.82522  0.08698  0.93256  Biso   1.000  C
  C161     1.0000 0.85622  0.17790  0.96957  Biso   1.000  C
  C162     1.0000 0.75341  0.00918  0.97649  Biso   1.000  C
  I9       1.0000 0.69496  0.85531  0.18196  Biso   1.000  I
  C163     1.0000 0.21363  0.15099  0.29881  Biso   1.000  C
  I10      1.0000 0.13943  0.97887  0.47747  Biso   1.000  I
  C164     1.0000 0.04953  0.23721  0.10731  Biso   1.000  C
  C165     1.0000 0.18377  0.19871  0.18447  Biso   1.000  C
  H159     1.0000 0.96472  0.30410  0.20340  Biso   1.000  H
  H160     1.0000 0.00842  0.32010  0.28692  Biso   1.000  H
  C166     1.0000 0.08600  0.35110  0.20848  Biso   1.000  C
  C167     1.0000 0.49662  0.24611  0.98347  Biso   1.000  C
  H161     1.0000 0.54717  0.17882  0.04360  Biso   1.000  H
  H162     1.0000 0.50713  0.16550  0.95829  Biso   1.000  H
  C168     1.0000 0.91864  0.08129  0.91737  Biso   1.000  C
  O21      1.0000 0.76473  0.04371  0.91670  Biso   1.000  O
  C169     1.0000 0.94883  0.17489  0.95310  Biso   1.000  C
  H163     1.0000 0.83526  0.21070  0.98828  Biso   1.000  H
  H164     1.0000 0.81286  0.00890  0.01267  Biso   1.000  H
  H165     1.0000 0.74176  0.97229  0.95718  Biso   1.000  H
  O22      1.0000 0.24163  0.19165  0.25230  Biso   1.000  O
  H166     1.0000 0.17918  0.12271  0.26727  Biso   1.000  H
  H167     1.0000 0.27110  0.13450  0.32757  Biso   1.000  H
  C170     1.0000 0.07652  0.21519  0.04338  Biso   1.000  C
  H168     1.0000 0.99250  0.25762  0.10290  Biso   1.000  H
  C171     1.0000 0.21244  0.17489  0.12121  Biso   1.000  C
  H169     1.0000 0.04931  0.38499  0.20267  Biso   1.000  H
  H170     1.0000 0.09848  0.34019  0.15839  Biso   1.000  H
  C172     1.0000 0.17979  0.36161  0.25727  Biso   1.000  C
  C173     1.0000 0.40433  0.24932  0.01480  Biso   1.000  C
  H171     1.0000 0.54087  0.27330  0.00888  Biso   1.000  H
  H172     1.0000 0.48401  0.25549  0.92976  Biso   1.000  H
  C174     1.0000 0.97872  0.12560  0.92708  Biso   1.000  C
  C175     1.0000 0.95131  0.02992  0.89599  Biso   1.000  C
  C176     1.0000 0.01843  0.22169  0.96589  Biso   1.000  C
  C177     1.0000 0.15853  0.18351  0.05159  Biso   1.000  C
  C178     1.0000 0.29511  0.14052  0.12919  Biso   1.000  C
  H173     1.0000 0.16822  0.36742  0.30920  Biso   1.000  H
  H174     1.0000 0.22038  0.32940  0.25699  Biso   1.000  H
  C179     1.0000 0.23361  0.41041  0.23248  Biso   1.000  C
  C180     1.0000 0.36378  0.30971  0.01161  Biso   1.000  C
  H175     1.0000 0.41459  0.23681  0.06728  Biso   1.000  H
  H176     1.0000 0.35681  0.22550  0.98587  Biso   1.000  H
  O23      1.0000 0.06812  0.12047  0.90598  Biso   1.000  O
  C181     1.0000 0.97855  0.98628  0.88035  Biso   1.000  C
  C182     1.0000 0.97063  0.27651  0.95020  Biso   1.000  C
  H177     1.0000 0.06384  0.21732  0.92915  Biso   1.000  H
  O24      1.0000 0.19042  0.16041  0.98978  Biso   1.000  O
  C183     1.0000 0.36123  0.11128  0.13450  Biso   1.000  C
  H178     1.0000 0.24651  0.40440  0.18090  Biso   1.000  H
  H179     1.0000 0.29560  0.41370  0.26537  Biso   1.000  H
  C184     1.0000 0.17838  0.46218  0.23522  Biso   1.000  C
  C185     1.0000 0.28643  0.31549  0.05639  Biso   1.000  C
  H180     1.0000 0.41600  0.33470  0.03060  Biso   1.000  H
  H181     1.0000 0.34021  0.31942  0.95908  Biso   1.000  H
  C186     1.0000 0.14484  0.11201  0.96365  Biso   1.000  C
  I11      1.0000 0.02101  0.91286  0.85824  Biso   1.000  I
  H182     1.0000 0.92865  0.28349  0.98800  Biso   1.000  H
  H183     1.0000 0.93032  0.27551  0.90056  Biso   1.000  H
  C187     1.0000 0.04154  0.32198  0.95148  Biso   1.000  C
  I12      1.0000 0.47644  0.06465  0.14310  Biso   1.000  I
  H184     1.0000 0.12220  0.46130  0.19558  Biso   1.000  H
  H185     1.0000 0.15508  0.46451  0.28390  Biso   1.000  H
  C188     1.0000 0.23710  0.51259  0.22461  Biso   1.000  C
  H186     1.0000 0.23721  0.28870  0.04059  Biso   1.000  H
  H187     1.0000 0.31148  0.31031  0.10932  Biso   1.000  H
  H188     1.0000 0.25880  0.35150  0.04908  Biso   1.000  H
  H189     1.0000 0.19186  0.08819  0.94517  Biso   1.000  H
  H190     1.0000 0.12128  0.09372  0.00581  Biso   1.000  H
  C189     1.0000 0.99733  0.37532  0.92479  Biso   1.000  C
  H191     1.0000 0.08966  0.31220  0.91966  Biso   1.000  H
  H192     1.0000 0.07493  0.32640  0.00318  Biso   1.000  H
  H193     1.0000 0.25221  0.51339  0.17358  Biso   1.000  H
  H194     1.0000 0.20038  0.54459  0.23332  Biso   1.000  H
  H195     1.0000 0.29630  0.51199  0.26018  Biso   1.000  H
  H196     1.0000 0.96615  0.37119  0.87248  Biso   1.000  H
  H197     1.0000 0.94735  0.38430  0.95528  Biso   1.000  H
  C190     1.0000 0.06723  0.42160  0.92887  Biso   1.000  C
  H198     1.0000 0.09561  0.42729  0.98158  Biso   1.000  H
  H199     1.0000 0.11926  0.41189  0.90056  Biso   1.000  H
  C191     1.0000 0.02174  0.47361  0.89766  Biso   1.000  C
  H200     1.0000 0.99363  0.46792  0.84490  Biso   1.000  H
  H201     1.0000 0.96954  0.48312  0.92580  Biso   1.000  H
  C192     1.0000 0.09165  0.51989  0.90218  Biso   1.000  C
  H202     1.0000 0.13052  0.51648  0.86210  Biso   1.000  H
  H203     1.0000 0.05663  0.55390  0.89666  Biso   1.000  H
  H204     1.0000 0.13292  0.51921  0.95059  Biso   1.000  H
  C193     1.0000 0.49932  0.63892  0.78516  Biso   1.000  C
  C194     1.0000 0.46217  0.58931  0.81916  Biso   1.000  C
  C195     1.0000 0.44285  0.69009  0.79940  Biso   1.000  C
  H205     1.0000 0.49570  0.63362  0.73067  Biso   1.000  H
  H206     1.0000 0.56704  0.64409  0.80649  Biso   1.000  H
  H207     1.0000 0.45542  0.59649  0.87126  Biso   1.000  H
  H208     1.0000 0.50701  0.55971  0.81721  Biso   1.000  H
  H209     1.0000 0.40019  0.57960  0.79108  Biso   1.000  H
  C196     1.0000 0.46389  0.73588  0.75178  Biso   1.000  C
  H210     1.0000 0.37383  0.68211  0.78929  Biso   1.000  H
  H211     1.0000 0.45860  0.70039  0.85261  Biso   1.000  H
  C197     1.0000 0.40860  0.78730  0.76121  Biso   1.000  C
  H212     1.0000 0.45038  0.72462  0.69890  Biso   1.000  H
  H213     1.0000 0.53279  0.74390  0.76311  Biso   1.000  H
  C198     1.0000 0.30203  0.78200  0.74301  Biso   1.000  C
  H214     1.0000 0.42480  0.79969  0.81347  Biso   1.000  H
  H215     1.0000 0.42993  0.81529  0.72866  Biso   1.000  H
  C199     1.0000 0.24903  0.83610  0.73391  Biso   1.000  C
  H216     1.0000 0.27873  0.76131  0.78321  Biso   1.000  H
  H217     1.0000 0.28644  0.76131  0.69611  Biso   1.000  H
  C200     1.0000 0.14119  0.83249  0.71197  Biso   1.000  C
  C201     1.0000 0.26924  0.87239  0.80269  Biso   1.000  C
  H218     1.0000 0.27354  0.85551  0.69226  Biso   1.000  H
  C202     1.0000 0.09403  0.87231  0.66697  Biso   1.000  C
  C203     1.0000 0.08662  0.79219  0.73838  Biso   1.000  C
  C204     1.0000 0.27284  0.92741  0.79359  Biso   1.000  C
  C205     1.0000 0.27890  0.85210  0.87511  Biso   1.000  C
  O25      1.0000 0.14449  0.91254  0.63710  Biso   1.000  O
  C206     1.0000 0.99639  0.87239  0.64910  Biso   1.000  C
  H219     1.0000 0.11792  0.76540  0.77037  Biso   1.000  H
  C207     1.0000 0.98804  0.78990  0.71967  Biso   1.000  C
  C208     1.0000 0.28918  0.96202  0.85467  Biso   1.000  C
  O26      1.0000 0.26692  0.95011  0.72341  Biso   1.000  O
  C209     1.0000 0.29612  0.88519  0.93820  Biso   1.000  C
  H220     1.0000 0.27372  0.81449  0.88186  Biso   1.000  H
  C210     1.0000 0.17368  0.95701  0.68450  Biso   1.000  C
  C211     1.0000 0.94349  0.83089  0.67467  Biso   1.000  C
  C212     1.0000 0.94851  0.91711  0.60767  Biso   1.000  C
  C213     1.0000 0.92738  0.74739  0.75060  Biso   1.000  C
  C214     1.0000 0.30068  0.94021  0.92681  Biso   1.000  C
  C215     1.0000 0.29551  0.01921  0.84367  Biso   1.000  C
  C216     1.0000 0.30551  0.86301  0.01731  Biso   1.000  C
  H221     1.0000 0.17143  0.99009  0.65401  Biso   1.000  H
  H222     1.0000 0.12890  0.96150  0.72090  Biso   1.000  H
  O27      1.0000 0.84590  0.82960  0.65050  Biso   1.000  O
  C217     1.0000 0.91378  0.95609  0.57831  Biso   1.000  C
  H223     1.0000 0.86863  0.74270  0.71331  Biso   1.000  H
  C218     1.0000 0.89660  0.76969  0.82117  Biso   1.000  C
  C219     1.0000 0.97524  0.69209  0.76149  Biso   1.000  C
  O28      1.0000 0.32305  0.97494  0.98627  Biso   1.000  O
  C220     1.0000 0.29971  0.06561  0.83329  Biso   1.000  C
  C221     1.0000 0.20686  0.86550  0.04043  Biso   1.000  C
  H224     1.0000 0.34668  0.88859  0.05020  Biso   1.000  H
  C222     1.0000 0.35378  0.80759  0.02703  Biso   1.000  C
  C223     1.0000 0.78643  0.84901  0.70119  Biso   1.000  C
  I13      1.0000 0.86061  0.02113  0.52247  Biso   1.000  I
  C224     1.0000 0.81620  0.80129  0.81548  Biso   1.000  C
  C225     1.0000 0.95053  0.76279  0.89270  Biso   1.000  C
  H225     1.0000 0.03534  0.69590  0.79661  Biso   1.000  H
  H226     1.0000 0.99163  0.67990  0.71308  Biso   1.000  H
  C226     1.0000 0.91398  0.64890  0.79147  Biso   1.000  C
  C227     1.0000 0.24658  0.99082  0.02351  Biso   1.000  C
  I14      1.0000 0.30502  0.14473  0.81805  Biso   1.000  I
  C228     1.0000 0.17476  0.91302  0.06739  Biso   1.000  C
  C229     1.0000 0.14376  0.82210  0.03038  Biso   1.000  C
  H227     1.0000 0.31549  0.78140  0.99420  Biso   1.000  H
  H228     1.0000 0.35549  0.79560  0.07929  Biso   1.000  H
  C230     1.0000 0.45455  0.80851  0.00838  Biso   1.000  C
  H229     1.0000 0.82080  0.87729  0.73268  Biso   1.000  H
  H230     1.0000 0.72888  0.86550  0.67238  Biso   1.000  H
  O29      1.0000 0.75842  0.80835  0.74770  Biso   1.000  O
  C231     1.0000 0.78762  0.82511  0.87879  Biso   1.000  C
  H231     1.0000 0.00755  0.74242  0.89711  Biso   1.000  H
  C232     1.0000 0.92353  0.78481  0.95657  Biso   1.000  C
  H232     1.0000 0.95074  0.61501  0.79728  Biso   1.000  H
  H233     1.0000 0.90150  0.65981  0.84161  Biso   1.000  H
  C233     1.0000 0.82018  0.63839  0.74268  Biso   1.000  C
  H234     1.0000 0.18711  0.99110  0.98727  Biso   1.000  H
  O30      1.0000 0.23525  0.95629  0.08331  Biso   1.000  O
  H235     1.0000 0.25829  0.02771  0.04283  Biso   1.000  H
  C234     1.0000 0.08141  0.91871  0.08258  Biso   1.000  C
  C235     1.0000 0.05116  0.82511  0.04690  Biso   1.000  C
  H236     1.0000 0.16480  0.78930  0.01173  Biso   1.000  H
  H237     1.0000 0.45282  0.82122  0.95640  Biso   1.000  H
  H238     1.0000 0.49286  0.83450  0.04171  Biso   1.000  H
  C236     1.0000 0.50336  0.75389  0.01653  Biso   1.000  C
  C237     1.0000 0.84152  0.81649  0.94836  Biso   1.000  C
  C238     1.0000 0.70495  0.85952  0.87081  Biso   1.000  C
  C239     1.0000 0.98156  0.77831  0.03412  Biso   1.000  C
  H239     1.0000 0.83183  0.63262  0.69081  Biso   1.000  H
  H240     1.0000 0.77960  0.67060  0.74301  Biso   1.000  H
  C240     1.0000 0.76643  0.58959  0.76746  Biso   1.000  C
  C241     1.0000 0.02127  0.87440  0.07292  Biso   1.000  C
  C242     1.0000 0.04867  0.97012  0.10402  Biso   1.000  C
  H241     1.0000 0.45911  0.72670  0.99107  Biso   1.000  H
  C243     1.0000 0.59572  0.75072  0.98515  Biso   1.000  C
  H242     1.0000 0.51596  0.74451  0.07018  Biso   1.000  H
  O31      1.0000 0.80956  0.83959  0.01022  Biso   1.000  O
  C244     1.0000 0.63882  0.88872  0.86551  Biso   1.000  C
  H243     1.0000 0.93620  0.78268  0.07080  Biso   1.000  H
  C245     1.0000 0.02935  0.72349  0.04981  Biso   1.000  C
  H244     1.0000 0.75354  0.59560  0.81911  Biso   1.000  H
  H245     1.0000 0.70444  0.58630  0.73458  Biso   1.000  H
  C246     1.0000 0.82160  0.53782  0.76478  Biso   1.000  C
  O32      1.0000 0.93186  0.87953  0.09402  Biso   1.000  O
  C247     1.0000 0.02149  0.01372  0.11960  Biso   1.000  C
  H246     1.0000 0.58538  0.76319  0.93267  Biso   1.000  H
  C248     1.0000 0.63621  0.69029  0.98839  Biso   1.000  C
  H247     1.0000 0.64318  0.77450  0.01413  Biso   1.000  H
  C249     1.0000 0.85520  0.88799  0.03629  Biso   1.000  C
  I15      1.0000 0.52355  0.93535  0.85691  Biso   1.000  I
  C250     1.0000 0.95851  0.67802  0.04852  Biso   1.000  C
  H248     1.0000 0.07140  0.71651  0.01201  Biso   1.000  H
  H249     1.0000 0.06965  0.72449  0.09938  Biso   1.000  H
  H250     1.0000 0.87777  0.53870  0.80437  Biso   1.000  H
  H251     1.0000 0.84490  0.53549  0.71610  Biso   1.000  H
  C251     1.0000 0.76289  0.48741  0.77539  Biso   1.000  C
  I16      1.0000 0.97897  0.08714  0.14171  Biso   1.000  I
  H252     1.0000 0.58404  0.66530  0.96935  Biso   1.000  H
  C252     1.0000 0.71361  0.68451  0.94356  Biso   1.000  C
  H253     1.0000 0.65977  0.68062  0.04093  Biso   1.000  H
  H254     1.0000 0.87871  0.90632  0.99420  Biso   1.000  H
  H255     1.0000 0.80819  0.91181  0.05478  Biso   1.000  H
  H256     1.0000 0.92511  0.67360  0.99677  Biso   1.000  H
  H257     1.0000 0.91039  0.68780  0.08029  Biso   1.000  H
  C253     1.0000 0.00272  0.62472  0.07521  Biso   1.000  C
  H258     1.0000 0.74783  0.48661  0.82637  Biso   1.000  H
  H259     1.0000 0.79961  0.45541  0.76668  Biso   1.000  H
  H260     1.0000 0.70368  0.48801  0.73977  Biso   1.000  H
  H261     1.0000 0.76283  0.71130  0.95936  Biso   1.000  H
  H262     1.0000 0.68850  0.68969  0.89069  Biso   1.000  H
  H263     1.0000 0.74124  0.64850  0.95087  Biso   1.000  H
  C254     1.0000 0.93281  0.57840  0.07108  Biso   1.000  C
  H264     1.0000 0.03391  0.62881  0.12752  Biso   1.000  H
  H265     1.0000 0.05271  0.61570  0.04473  Biso   1.000  H
  H266     1.0000 0.90437  0.57271  0.01843  Biso   1.000  H
  H267     1.0000 0.88079  0.58811  0.09938  Biso   1.000  H
  C255     1.0000 0.97831  0.52639  0.10229  Biso   1.000  C
  C256     1.0000 0.90840  0.48011  0.09782  Biso   1.000  C
  H268     1.0000 0.00636  0.53208  0.15510  Biso   1.000  H
  H269     1.0000 0.03051  0.51688  0.07420  Biso   1.000  H
  H270     1.0000 0.86947  0.48352  0.13791  Biso   1.000  H
  H271     1.0000 0.94341  0.44610  0.10329  Biso   1.000  H
  H272     1.0000 0.86707  0.48079  0.04942  Biso   1.000  H
