data_image0
_cell_length_a       15.129
_cell_length_b       17.599
_cell_length_c       17.847
_cell_angle_alpha    83.34
_cell_angle_beta     88.74
_cell_angle_gamma    65.64

_symmetry_space_group_name_H-M    "P 1"
_symmetry_int_tables_number       1

loop_
  _symmetry_equiv_pos_as_xyz
  'x, y, z'

loop_
  _atom_site_label
  _atom_site_occupancy
  _atom_site_fract_x
  _atom_site_fract_y
  _atom_site_fract_z
  _atom_site_thermal_displace_type
  _atom_site_B_iso_or_equiv
  _atom_site_type_symbol
  C1       1.0000 0.50091  0.55635  0.58896  Biso   1.000  C
  C2       1.0000 0.41319  0.54995  0.59065  Biso   1.000  C
  C3       1.0000 0.58736  0.48226  0.59647  Biso   1.000  C
  C4       1.0000 0.50553  0.63691  0.57959  Biso   1.000  C
  C5       1.0000 0.40740  0.47175  0.60149  Biso   1.000  C
  O1       1.0000 0.32900  0.62405  0.57728  Biso   1.000  O
  C6       1.0000 0.58479  0.40334  0.60617  Biso   1.000  C
  O2       1.0000 0.67451  0.49014  0.58727  Biso   1.000  O
  C7       1.0000 0.50902  0.70362  0.57169  Biso   1.000  C
  C8       1.0000 0.30911  0.46832  0.60629  Biso   1.000  C
  C9       1.0000 0.49419  0.40026  0.61108  Biso   1.000  C
  C10      1.0000 0.27742  0.65775  0.64020  Biso   1.000  C
  C11      1.0000 0.68047  0.32475  0.61616  Biso   1.000  C
  C12      1.0000 0.72791  0.48197  0.65460  Biso   1.000  C
  I1       1.0000 0.51517  0.81494  0.55132  Biso   1.000  I
  C13      1.0000 0.30427  0.39177  0.57536  Biso   1.000  C
  C14      1.0000 0.27812  0.47653  0.68857  Biso   1.000  C
  H1       1.0000 0.26340  0.51855  0.57559  Biso   1.000  H
  H2       1.0000 0.49176  0.34816  0.62130  Biso   1.000  H
  O3       1.0000 0.20530  0.62786  0.66080  Biso   1.000  O
  H3       1.0000 0.32258  0.64385  0.68259  Biso   1.000  H
  H4       1.0000 0.24672  0.71847  0.62948  Biso   1.000  H
  C15      1.0000 0.70978  0.30904  0.69918  Biso   1.000  C
  H5       1.0000 0.72949  0.33844  0.58828  Biso   1.000  H
  C16      1.0000 0.67542  0.25024  0.58349  Biso   1.000  C
  H6       1.0000 0.68282  0.50117  0.69478  Biso   1.000  H
  H7       1.0000 0.76223  0.51803  0.64686  Biso   1.000  H
  O4       1.0000 0.79541  0.39915  0.67740  Biso   1.000  O
  C17      1.0000 0.20060  0.39924  0.57068  Biso   1.000  C
  H8       1.0000 0.34337  0.34116  0.60798  Biso   1.000  H
  H9       1.0000 0.33154  0.38681  0.52547  Biso   1.000  H
  C18      1.0000 0.23368  0.55655  0.71250  Biso   1.000  C
  C19      1.0000 0.29869  0.40784  0.74309  Biso   1.000  C
  C20      1.0000 0.76290  0.34923  0.72627  Biso   1.000  C
  C21      1.0000 0.68192  0.25834  0.75166  Biso   1.000  C
  H10      1.0000 0.64547  0.26897  0.53326  Biso   1.000  H
  H11      1.0000 0.63451  0.22996  0.61458  Biso   1.000  H
  C22      1.0000 0.77449  0.17862  0.57886  Biso   1.000  C
  C23      1.0000 0.19020  0.32712  0.53981  Biso   1.000  C
  H12      1.0000 0.16192  0.45071  0.53907  Biso   1.000  H
  H13      1.0000 0.17419  0.40391  0.62090  Biso   1.000  H
  C24      1.0000 0.21263  0.56675  0.78767  Biso   1.000  C
  C25      1.0000 0.27652  0.41415  0.81848  Biso   1.000  C
  H14      1.0000 0.32920  0.35443  0.72796  Biso   1.000  H
  C26      1.0000 0.78567  0.34098  0.80375  Biso   1.000  C
  C27      1.0000 0.70657  0.24498  0.82808  Biso   1.000  C
  H15      1.0000 0.64498  0.23224  0.73468  Biso   1.000  H
  H16      1.0000 0.81340  0.20051  0.54686  Biso   1.000  H
  H17      1.0000 0.80436  0.16407  0.62909  Biso   1.000  H
  C28      1.0000 0.76941  0.12185  0.52259  Biso   1.000  C
  H18      1.0000 0.82172  0.20101  0.56306  Biso   1.000  H
  H19      1.0000 0.79502  0.14665  0.62830  Biso   1.000  H
  C29      1.0000 0.78396  0.09515  0.54980  Biso   1.000  C
  C30      1.0000 0.08102  0.34244  0.53377  Biso   1.000  C
  H20      1.0000 0.21814  0.32061  0.49031  Biso   1.000  H
  H21      1.0000 0.22547  0.27566  0.57271  Biso   1.000  H
  C31      1.0000 0.23112  0.49574  0.84038  Biso   1.000  C
  C32      1.0000 0.17617  0.64885  0.81188  Biso   1.000  C
  C33      1.0000 0.30051  0.33878  0.87735  Biso   1.000  C
  C34      1.0000 0.75861  0.28755  0.85268  Biso   1.000  C
  C35      1.0000 0.83320  0.38927  0.83039  Biso   1.000  C
  C36      1.0000 0.67241  0.19186  0.88525  Biso   1.000  C
  H22      1.0000 0.72666  0.09585  0.54156  Biso   1.000  H
  H23      1.0000 0.74089  0.15602  0.47541  Biso   1.000  H
  C37      1.0000 0.86741  0.05305  0.50679  Biso   1.000  C
  H24      1.0000 0.73037  0.08133  0.56537  Biso   1.000  H
  C38      1.0000 0.78298  0.11554  0.46537  Biso   1.000  C
  H25      1.0000 0.84469  0.04874  0.56797  Biso   1.000  H
  C39      1.0000 0.06390  0.27195  0.50758  Biso   1.000  C
  H26      1.0000 0.04722  0.39285  0.49929  Biso   1.000  H
  H27      1.0000 0.05280  0.35273  0.58298  Biso   1.000  H
  O5       1.0000 0.20291  0.50785  0.91386  Biso   1.000  O
  C40      1.0000 0.15359  0.71783  0.82960  Biso   1.000  C
  C41      1.0000 0.39970  0.31956  0.91279  Biso   1.000  C
  H28      1.0000 0.25293  0.35605  0.91708  Biso   1.000  H
  C42      1.0000 0.29260  0.26336  0.84738  Biso   1.000  C
  O6       1.0000 0.78839  0.27498  0.92836  Biso   1.000  O
  C43      1.0000 0.86478  0.43456  0.85178  Biso   1.000  C
  C44      1.0000 0.57712  0.24938  0.91617  Biso   1.000  C
  H29      1.0000 0.71997  0.17008  0.92735  Biso   1.000  H
  C45      1.0000 0.66853  0.11554  0.85398  Biso   1.000  C
  H30      1.0000 0.89918  0.02377  0.55476  Biso   1.000  H
  H31      1.0000 0.90706  0.07946  0.48230  Biso   1.000  H
  C46      1.0000 0.86484  0.98831  0.45809  Biso   1.000  C
  H32      1.0000 0.72186  0.16243  0.45069  Biso   1.000  H
  H33      1.0000 0.83389  0.13514  0.45380  Biso   1.000  H
  C47      1.0000 0.79700  0.04702  0.41497  Biso   1.000  C
  H34      1.0000 0.09410  0.25941  0.45939  Biso   1.000  H
  H35      1.0000 0.09353  0.22202  0.54359  Biso   1.000  H
  C48      1.0000 0.95498  0.29456  0.49917  Biso   1.000  C
  C49      1.0000 0.27510  0.49846  0.96759  Biso   1.000  C
  I2       1.0000 0.12563  0.83205  0.86250  Biso   1.000  I
  C50      1.0000 0.40530  0.36196  0.97255  Biso   1.000  C
  C51      1.0000 0.48682  0.26528  0.88468  Biso   1.000  C
  H36      1.0000 0.31257  0.21668  0.88717  Biso   1.000  H
  H37      1.0000 0.33676  0.24627  0.80629  Biso   1.000  H
  C52      1.0000 0.19091  0.28214  0.81967  Biso   1.000  C
  C53      1.0000 0.71851  0.32147  0.97887  Biso   1.000  C
  I3       1.0000 0.90062  0.52348  0.88830  Biso   1.000  I
  C54      1.0000 0.57882  0.29285  0.97639  Biso   1.000  C
  H38      1.0000 0.62378  0.13523  0.81070  Biso   1.000  H
  H39      1.0000 0.64300  0.08679  0.89219  Biso   1.000  H
  C55      1.0000 0.76719  0.05268  0.83005  Biso   1.000  C
  H40      1.0000 0.86050  0.01162  0.40572  Biso   1.000  H
  H41      1.0000 0.86346  0.00596  0.41898  Biso   1.000  H
  H42      1.0000 0.92617  0.93942  0.46559  Biso   1.000  H
  C56      1.0000 0.78298  0.95805  0.47101  Biso   1.000  C
  H43      1.0000 0.75550  0.01883  0.43168  Biso   1.000  H
  C57      1.0000 0.77099  0.08400  0.33099  Biso   1.000  C
  H44      1.0000 0.92223  0.32111  0.54189  Biso   1.000  H
  H45      1.0000 0.92942  0.33210  0.45391  Biso   1.000  H
  H46      1.0000 0.94518  0.24432  0.49658  Biso   1.000  H
  H47      1.0000 0.32399  0.51377  0.94259  Biso   1.000  H
  H48      1.0000 0.24591  0.53647  0.00517  Biso   1.000  H
  O7       1.0000 0.32055  0.41469  0.00438  Biso   1.000  O
  C58      1.0000 0.49336  0.35110  0.00461  Biso   1.000  C
  H49      1.0000 0.48452  0.23857  0.84326  Biso   1.000  H
  H50      1.0000 0.17148  0.32787  0.77898  Biso   1.000  H
  H51      1.0000 0.14630  0.30044  0.86047  Biso   1.000  H
  C59      1.0000 0.18331  0.20702  0.79207  Biso   1.000  C
  O8       1.0000 0.66531  0.27816  0.01245  Biso   1.000  O
  H52      1.0000 0.67401  0.37394  0.95156  Biso   1.000  H
  H53      1.0000 0.75131  0.33474  0.01810  Biso   1.000  H
  H54      1.0000 0.81290  0.03446  0.87255  Biso   1.000  H
  H55      1.0000 0.79158  0.08047  0.79010  Biso   1.000  H
  C60      1.0000 0.76167  0.97587  0.80257  Biso   1.000  C
  H56      1.0000 0.75440  0.97203  0.51921  Biso   1.000  H
  H57      1.0000 0.73346  0.98235  0.43207  Biso   1.000  H
  H58      1.0000 0.81331  0.89852  0.47169  Biso   1.000  H
  H59      1.0000 0.77178  0.04003  0.30379  Biso   1.000  H
  H60      1.0000 0.70879  0.13143  0.32270  Biso   1.000  H
  H61      1.0000 0.82099  0.10143  0.31310  Biso   1.000  H
  C61      1.0000 0.49721  0.39886  0.06347  Biso   1.000  C
  H62      1.0000 0.22598  0.19063  0.74997  Biso   1.000  H
  H63      1.0000 0.20649  0.16068  0.83220  Biso   1.000  H
  C62      1.0000 0.08218  0.22104  0.76735  Biso   1.000  C
  H64      1.0000 0.71431  0.99524  0.76120  Biso   1.000  H
  H65      1.0000 0.73716  0.94898  0.84315  Biso   1.000  H
  C63      1.0000 0.85441  0.91016  0.77650  Biso   1.000  C
  C64      1.0000 0.49895  0.44090  0.11076  Biso   1.000  C
  H66      1.0000 0.03968  0.23444  0.80996  Biso   1.000  H
  H67      1.0000 0.05744  0.26865  0.72858  Biso   1.000  H
  C65      1.0000 0.08023  0.14384  0.73665  Biso   1.000  C
  H68      1.0000 0.84172  0.86364  0.76306  Biso   1.000  H
  H69      1.0000 0.90209  0.88887  0.81769  Biso   1.000  H
  C66      1.0000 0.89332  0.94173  0.71340  Biso   1.000  C
  I4       1.0000 0.50075  0.51022  0.19130  Biso   1.000  I
  H70      1.0000 0.10773  0.09575  0.77486  Biso   1.000  H
  H71      1.0000 0.12083  0.13184  0.69297  Biso   1.000  H
  C67      1.0000 0.97800  0.15506  0.71430  Biso   1.000  C
  H72      1.0000 0.84069  0.97674  0.67790  Biso   1.000  H
  H73      1.0000 0.92219  0.97706  0.73039  Biso   1.000  H
  C68      1.0000 0.97511  0.86854  0.66966  Biso   1.000  C
  H74      1.0000 0.93653  0.16962  0.75657  Biso   1.000  H
  H75      1.0000 0.95267  0.19905  0.67311  Biso   1.000  H
  H76      1.0000 0.98077  0.10353  0.69907  Biso   1.000  H
  H77      1.0000 0.94840  0.83116  0.65550  Biso   1.000  H
  H78      1.0000 0.99399  0.89386  0.62531  Biso   1.000  H
  H79      1.0000 0.03084  0.83755  0.70257  Biso   1.000  H
  C69      1.0000 0.49908  0.44375  0.41096  Biso   1.000  C
  C70      1.0000 0.41257  0.51782  0.40351  Biso   1.000  C
  C71      1.0000 0.58680  0.45014  0.40927  Biso   1.000  C
  C72      1.0000 0.49449  0.36311  0.42039  Biso   1.000  C
  C73      1.0000 0.41520  0.59675  0.39381  Biso   1.000  C
  O9       1.0000 0.32549  0.50995  0.41271  Biso   1.000  O
  C74      1.0000 0.59260  0.52834  0.39849  Biso   1.000  C
  O10      1.0000 0.67099  0.37604  0.42270  Biso   1.000  O
  C75      1.0000 0.49100  0.29640  0.42829  Biso   1.000  C
  C76      1.0000 0.31952  0.67534  0.38376  Biso   1.000  C
  C77      1.0000 0.50580  0.59982  0.38890  Biso   1.000  C
  C78      1.0000 0.27209  0.51812  0.34539  Biso   1.000  C
  C79      1.0000 0.69091  0.53171  0.39369  Biso   1.000  C
  C80      1.0000 0.72257  0.34234  0.35978  Biso   1.000  C
  I5       1.0000 0.48483  0.18515  0.44866  Biso   1.000  I
  C81      1.0000 0.29021  0.69105  0.30080  Biso   1.000  C
  H80      1.0000 0.27051  0.66165  0.41170  Biso   1.000  H
  C82      1.0000 0.32457  0.74985  0.41649  Biso   1.000  C
  H81      1.0000 0.50816  0.65193  0.37868  Biso   1.000  H
  O11      1.0000 0.20459  0.60094  0.32259  Biso   1.000  O
  H82      1.0000 0.31718  0.49892  0.30520  Biso   1.000  H
  H83      1.0000 0.23780  0.48199  0.35312  Biso   1.000  H
  C83      1.0000 0.72191  0.52349  0.31141  Biso   1.000  C
  H84      1.0000 0.73659  0.48154  0.42440  Biso   1.000  H
  C84      1.0000 0.69572  0.60832  0.42456  Biso   1.000  C
  H85      1.0000 0.67741  0.35624  0.31739  Biso   1.000  H
  H86      1.0000 0.75328  0.28162  0.37050  Biso   1.000  H
  O12      1.0000 0.79469  0.37223  0.33918  Biso   1.000  O
  C85      1.0000 0.23712  0.65080  0.27371  Biso   1.000  C
  C86      1.0000 0.31810  0.74169  0.24832  Biso   1.000  C
  H87      1.0000 0.35452  0.73113  0.46667  Biso   1.000  H
  H88      1.0000 0.36548  0.77013  0.38540  Biso   1.000  H
  C87      1.0000 0.22553  0.82142  0.42107  Biso   1.000  C
  C88      1.0000 0.76631  0.44354  0.28748  Biso   1.000  C
  C89      1.0000 0.70131  0.59224  0.25689  Biso   1.000  C
  H89      1.0000 0.65662  0.65892  0.39200  Biso   1.000  H
  H90      1.0000 0.66848  0.61321  0.47451  Biso   1.000  H
  C90      1.0000 0.79939  0.60084  0.42931  Biso   1.000  C
  C91      1.0000 0.21432  0.65912  0.19617  Biso   1.000  C
  C92      1.0000 0.29342  0.75510  0.17190  Biso   1.000  C
  H91      1.0000 0.35498  0.76779  0.26530  Biso   1.000  H
  H92      1.0000 0.18662  0.79952  0.45306  Biso   1.000  H
  H93      1.0000 0.19557  0.83602  0.37089  Biso   1.000  H
  C93      1.0000 0.23058  0.87824  0.47739  Biso   1.000  C
  H94      1.0000 0.17830  0.79902  0.43687  Biso   1.000  H
  H95      1.0000 0.20497  0.85344  0.37168  Biso   1.000  H
  C94      1.0000 0.21597  0.90494  0.45019  Biso   1.000  C
  C95      1.0000 0.78737  0.43334  0.21231  Biso   1.000  C
  C96      1.0000 0.72347  0.58594  0.18150  Biso   1.000  C
  H96      1.0000 0.67082  0.64559  0.27202  Biso   1.000  H
  H97      1.0000 0.83810  0.54931  0.46091  Biso   1.000  H
  H98      1.0000 0.82577  0.59612  0.37908  Biso   1.000  H
  C97      1.0000 0.80982  0.67291  0.46018  Biso   1.000  C
  C98      1.0000 0.16680  0.61082  0.16959  Biso   1.000  C
  C99      1.0000 0.24138  0.71253  0.14730  Biso   1.000  C
  C100     1.0000 0.32761  0.80817  0.11468  Biso   1.000  C
  H99      1.0000 0.27326  0.90424  0.45837  Biso   1.000  H
  H100     1.0000 0.25913  0.84401  0.52457  Biso   1.000  H
  C101     1.0000 0.13259  0.94703  0.49319  Biso   1.000  C
  H101     1.0000 0.26959  0.91870  0.43461  Biso   1.000  H
  C102     1.0000 0.21701  0.88456  0.53456  Biso   1.000  C
  H102     1.0000 0.15530  0.95135  0.43201  Biso   1.000  H
  C103     1.0000 0.76891  0.50428  0.15960  Biso   1.000  C
  C104     1.0000 0.82375  0.35123  0.18810  Biso   1.000  C
  C105     1.0000 0.69948  0.66131  0.12258  Biso   1.000  C
  H103     1.0000 0.78188  0.67942  0.50967  Biso   1.000  H
  H104     1.0000 0.77452  0.72442  0.42727  Biso   1.000  H
  C106     1.0000 0.91897  0.65765  0.46621  Biso   1.000  C
  C107     1.0000 0.13522  0.56552  0.14820  Biso   1.000  C
  O13      1.0000 0.21160  0.72510  0.07162  Biso   1.000  O
  H105     1.0000 0.28002  0.83002  0.07258  Biso   1.000  H
  C108     1.0000 0.42288  0.75071  0.08381  Biso   1.000  C
  C109     1.0000 0.33150  0.88448  0.14600  Biso   1.000  C
  H106     1.0000 0.10081  0.97633  0.44516  Biso   1.000  H
  H107     1.0000 0.09293  0.92063  0.51768  Biso   1.000  H
  C110     1.0000 0.13519  0.01172  0.54189  Biso   1.000  C
  H108     1.0000 0.27806  0.83766  0.54929  Biso   1.000  H
  H109     1.0000 0.16610  0.86495  0.54618  Biso   1.000  H
  C111     1.0000 0.20302  0.95301  0.58495  Biso   1.000  C
  O14      1.0000 0.79711  0.49217  0.08612  Biso   1.000  O
  C112     1.0000 0.84637  0.28219  0.17038  Biso   1.000  C
  C113     1.0000 0.60029  0.68053  0.08719  Biso   1.000  C
  H110     1.0000 0.74710  0.64398  0.08290  Biso   1.000  H
  C114     1.0000 0.70739  0.73673  0.15260  Biso   1.000  C
  H111     1.0000 0.95278  0.60724  0.50070  Biso   1.000  H
  H112     1.0000 0.94723  0.64730  0.41700  Biso   1.000  H
  C115     1.0000 0.93609  0.72814  0.49240  Biso   1.000  C
  I6       1.0000 0.09938  0.47661  0.11169  Biso   1.000  I
  C116     1.0000 0.28148  0.67862  0.02111  Biso   1.000  C
  C117     1.0000 0.42120  0.70718  0.02359  Biso   1.000  C
  C118     1.0000 0.51317  0.73480  0.11530  Biso   1.000  C
  H113     1.0000 0.37617  0.86479  0.18928  Biso   1.000  H
  H114     1.0000 0.35700  0.91330  0.10779  Biso   1.000  H
  C119     1.0000 0.23280  0.94742  0.16987  Biso   1.000  C
  H115     1.0000 0.13953  0.98841  0.59427  Biso   1.000  H
  H116     1.0000 0.13653  0.99413  0.58100  Biso   1.000  H
  H117     1.0000 0.07379  0.06060  0.53439  Biso   1.000  H
  C120     1.0000 0.21702  0.04203  0.52897  Biso   1.000  C
  H118     1.0000 0.24450  0.98126  0.56831  Biso   1.000  H
  C121     1.0000 0.22903  0.91602  0.66899  Biso   1.000  C
  C122     1.0000 0.72490  0.50163  0.03239  Biso   1.000  C
  I7       1.0000 0.87439  0.16798  0.13748  Biso   1.000  I
  C123     1.0000 0.59469  0.63813  0.02737  Biso   1.000  C
  H119     1.0000 0.68742  0.78341  0.11281  Biso   1.000  H
  H120     1.0000 0.66316  0.75382  0.19369  Biso   1.000  H
  C124     1.0000 0.80911  0.71789  0.18031  Biso   1.000  C
  H121     1.0000 0.90592  0.74062  0.54060  Biso   1.000  H
  H122     1.0000 0.90649  0.77800  0.45639  Biso   1.000  H
  C125     1.0000 0.04502  0.70552  0.50081  Biso   1.000  C
  H123     1.0000 0.32601  0.62609  0.04842  Biso   1.000  H
  H124     1.0000 0.24871  0.66528  0.98188  Biso   1.000  H
  O15      1.0000 0.33471  0.72188  0.98747  Biso   1.000  O
  C126     1.0000 0.50663  0.64899  0.99537  Biso   1.000  C
  H125     1.0000 0.51548  0.76152  0.15672  Biso   1.000  H
  H126     1.0000 0.18709  0.96563  0.12738  Biso   1.000  H
  H127     1.0000 0.20842  0.91961  0.20988  Biso   1.000  H
  C127     1.0000 0.23826  0.02422  0.19741  Biso   1.000  C
  H128     1.0000 0.24562  0.02800  0.48077  Biso   1.000  H
  H129     1.0000 0.26653  0.01774  0.56791  Biso   1.000  H
  H130     1.0000 0.18672  0.10150  0.52829  Biso   1.000  H
  H131     1.0000 0.22822  0.96006  0.69619  Biso   1.000  H
  H132     1.0000 0.29120  0.86866  0.67728  Biso   1.000  H
  H133     1.0000 0.17900  0.89865  0.68688  Biso   1.000  H
  O16      1.0000 0.67944  0.58540  0.99560  Biso   1.000  O
  H134     1.0000 0.67600  0.48632  0.05739  Biso   1.000  H
  H135     1.0000 0.75412  0.46356  0.99481  Biso   1.000  H
  H136     1.0000 0.82852  0.67222  0.22100  Biso   1.000  H
  H137     1.0000 0.85372  0.69958  0.13951  Biso   1.000  H
  C128     1.0000 0.81671  0.79300  0.20791  Biso   1.000  C
  H138     1.0000 0.07779  0.67892  0.45809  Biso   1.000  H
  H139     1.0000 0.07061  0.66792  0.54607  Biso   1.000  H
  H140     1.0000 0.05484  0.75571  0.50340  Biso   1.000  H
  C129     1.0000 0.50281  0.60116  0.93651  Biso   1.000  C
  H141     1.0000 0.28571  0.00478  0.23878  Biso   1.000  H
  H142     1.0000 0.26277  0.05111  0.15678  Biso   1.000  H
  C130     1.0000 0.14558  0.08993  0.22348  Biso   1.000  C
  H143     1.0000 0.77397  0.80939  0.25001  Biso   1.000  H
  H144     1.0000 0.79350  0.83941  0.16778  Biso   1.000  H
  C131     1.0000 0.91778  0.77899  0.23257  Biso   1.000  C
  C132     1.0000 0.50104  0.55919  0.88922  Biso   1.000  C
  H145     1.0000 0.15830  0.13639  0.23692  Biso   1.000  H
  H146     1.0000 0.09790  0.11121  0.18229  Biso   1.000  H
  C133     1.0000 0.10671  0.05829  0.28658  Biso   1.000  C
  H147     1.0000 0.96028  0.76559  0.19002  Biso   1.000  H
  H148     1.0000 0.94256  0.73144  0.27140  Biso   1.000  H
  C134     1.0000 0.91979  0.85619  0.26327  Biso   1.000  C
  I8       1.0000 0.49924  0.48988  0.80863  Biso   1.000  I
  H149     1.0000 0.15933  0.02328  0.32208  Biso   1.000  H
  H150     1.0000 0.07780  0.02303  0.26959  Biso   1.000  H
  C135     1.0000 0.02491  0.13148  0.33032  Biso   1.000  C
  H151     1.0000 0.89226  0.90434  0.22512  Biso   1.000  H
  H152     1.0000 0.87919  0.86819  0.30701  Biso   1.000  H
  C136     1.0000 0.02200  0.84503  0.28568  Biso   1.000  C
  H153     1.0000 0.96919  0.16248  0.29742  Biso   1.000  H
  H154     1.0000 0.05159  0.16893  0.34448  Biso   1.000  H
  H155     1.0000 0.00600  0.10623  0.37468  Biso   1.000  H
  H156     1.0000 0.06349  0.83040  0.24341  Biso   1.000  H
  H157     1.0000 0.04732  0.80104  0.32687  Biso   1.000  H
  H158     1.0000 0.01918  0.89649  0.30091  Biso   1.000  H
