data_image0
_cell_length_a       11.72
_cell_length_b       16.629
_cell_length_c       6.181
_cell_angle_alpha    90
_cell_angle_beta     90
_cell_angle_gamma    90

_symmetry_space_group_name_H-M    "P 1"
_symmetry_int_tables_number       1

loop_
  _symmetry_equiv_pos_as_xyz
  'x, y, z'

loop_
  _atom_site_label
  _atom_site_occupancy
  _atom_site_fract_x
  _atom_site_fract_y
  _atom_site_fract_z
  _atom_site_thermal_displace_type
  _atom_site_B_iso_or_equiv
  _atom_site_type_symbol
  N1       1.0000 0.55358  0.39148  0.43100  Biso   1.000  N
  C1       1.0000 0.44616  0.40063  0.31613  Biso   1.000  C
  C2       1.0000 0.56749  0.31854  0.55266  Biso   1.000  C
  C3       1.0000 0.65188  0.42703  0.34913  Biso   1.000  C
  H1       1.0000 0.44590  0.45102  0.24025  Biso   1.000  H
  H2       1.0000 0.38422  0.39960  0.41773  Biso   1.000  H
  H3       1.0000 0.43737  0.35739  0.21453  Biso   1.000  H
  N2       1.0000 0.55290  0.24998  0.44313  Biso   1.000  N
  C4       1.0000 0.59266  0.32143  0.76913  Biso   1.000  C
  N3       1.0000 0.75000  0.39593  0.41870  Biso   1.000  N
  C5       1.0000 0.64753  0.49155  0.20288  Biso   1.000  C
  C6       1.0000 0.56749  0.18149  0.55266  Biso   1.000  C
  H4       1.0000 0.60179  0.37038  0.83935  Biso   1.000  H
  C7       1.0000 0.60401  0.24998  0.88060  Biso   1.000  C
  C8       1.0000 0.84812  0.42703  0.34913  Biso   1.000  C
  H5       1.0000 0.57841  0.51248  0.15531  Biso   1.000  H
  C9       1.0000 0.75000  0.52252  0.13283  Biso   1.000  C
  N4       1.0000 0.55358  0.10855  0.43100  Biso   1.000  N
  C10      1.0000 0.59266  0.17860  0.76913  Biso   1.000  C
  H6       1.0000 0.61911  0.24998  0.02847  Biso   1.000  H
  N5       1.0000 0.94633  0.39148  0.43100  Biso   1.000  N
  C11      1.0000 0.85247  0.49155  0.20288  Biso   1.000  C
  H7       1.0000 0.75000  0.56528  0.03575  Biso   1.000  H
  C12      1.0000 0.65188  0.07300  0.34913  Biso   1.000  C
  C13      1.0000 0.44616  0.09934  0.31613  Biso   1.000  C
  H8       1.0000 0.60179  0.12959  0.83935  Biso   1.000  H
  C14      1.0000 0.93251  0.31854  0.55266  Biso   1.000  C
  C15      1.0000 0.05384  0.40063  0.31613  Biso   1.000  C
  H9       1.0000 0.92159  0.51248  0.15531  Biso   1.000  H
  N6       1.0000 0.75000  0.10410  0.41870  Biso   1.000  N
  C16      1.0000 0.64753  0.00842  0.20288  Biso   1.000  C
  H10      1.0000 0.44590  0.04901  0.24025  Biso   1.000  H
  H11      1.0000 0.38422  0.10043  0.41773  Biso   1.000  H
  H12      1.0000 0.43737  0.14258  0.21453  Biso   1.000  H
  N7       1.0000 0.94710  0.24998  0.44313  Biso   1.000  N
  C17      1.0000 0.90734  0.32143  0.76913  Biso   1.000  C
  H13      1.0000 0.05410  0.45102  0.24025  Biso   1.000  H
  H14      1.0000 0.11578  0.39960  0.41773  Biso   1.000  H
  H15      1.0000 0.06263  0.35739  0.21453  Biso   1.000  H
  C18      1.0000 0.84812  0.07300  0.34913  Biso   1.000  C
  H16      1.0000 0.57841  0.98749  0.15531  Biso   1.000  H
  C19      1.0000 0.75000  0.97751  0.13283  Biso   1.000  C
  C20      1.0000 0.93251  0.18149  0.55266  Biso   1.000  C
  H17      1.0000 0.89821  0.37038  0.83935  Biso   1.000  H
  C21      1.0000 0.89599  0.24998  0.88060  Biso   1.000  C
  N8       1.0000 0.94633  0.10855  0.43100  Biso   1.000  N
  C22      1.0000 0.85247  0.00842  0.20288  Biso   1.000  C
  H18      1.0000 0.75000  0.93469  0.03575  Biso   1.000  H
  C23      1.0000 0.90734  0.17860  0.76913  Biso   1.000  C
  H19      1.0000 0.88089  0.24998  0.02847  Biso   1.000  H
  C24      1.0000 0.05384  0.09934  0.31613  Biso   1.000  C
  H20      1.0000 0.92159  0.98749  0.15531  Biso   1.000  H
  H21      1.0000 0.89821  0.12959  0.83935  Biso   1.000  H
  H22      1.0000 0.05410  0.04901  0.24025  Biso   1.000  H
  H23      1.0000 0.11578  0.10043  0.41773  Biso   1.000  H
  H24      1.0000 0.06263  0.14258  0.21453  Biso   1.000  H
  N9       1.0000 0.44642  0.60858  0.56900  Biso   1.000  N
  C25      1.0000 0.34812  0.57304  0.65087  Biso   1.000  C
  C26      1.0000 0.43251  0.68152  0.44734  Biso   1.000  C
  C27      1.0000 0.55384  0.59937  0.68387  Biso   1.000  C
  C28      1.0000 0.35247  0.50845  0.79712  Biso   1.000  C
  N10      1.0000 0.25000  0.60413  0.58130  Biso   1.000  N
  N11      1.0000 0.44710  0.75002  0.55671  Biso   1.000  N
  C29      1.0000 0.40734  0.67863  0.23087  Biso   1.000  C
  H25      1.0000 0.55410  0.54898  0.75975  Biso   1.000  H
  H26      1.0000 0.61578  0.60040  0.58211  Biso   1.000  H
  H27      1.0000 0.56263  0.64261  0.78531  Biso   1.000  H
  C30      1.0000 0.25000  0.47754  0.86717  Biso   1.000  C
  H28      1.0000 0.42159  0.48752  0.84452  Biso   1.000  H
  C31      1.0000 0.15188  0.57304  0.65087  Biso   1.000  C
  C32      1.0000 0.43251  0.81851  0.44734  Biso   1.000  C
  H29      1.0000 0.39821  0.62962  0.16065  Biso   1.000  H
  C33      1.0000 0.39599  0.75002  0.11924  Biso   1.000  C
  C34      1.0000 0.14753  0.50845  0.79712  Biso   1.000  C
  H30      1.0000 0.25000  0.43472  0.96425  Biso   1.000  H
  N12      1.0000 0.05358  0.60858  0.56900  Biso   1.000  N
  N13      1.0000 0.44642  0.89145  0.56900  Biso   1.000  N
  C35      1.0000 0.40734  0.82140  0.23087  Biso   1.000  C
  H31      1.0000 0.38089  0.75002  0.97153  Biso   1.000  H
  H32      1.0000 0.07841  0.48752  0.84452  Biso   1.000  H
  C36      1.0000 0.06749  0.68152  0.44734  Biso   1.000  C
  C37      1.0000 0.94616  0.59937  0.68387  Biso   1.000  C
  C38      1.0000 0.34812  0.92700  0.65087  Biso   1.000  C
  C39      1.0000 0.55384  0.90066  0.68387  Biso   1.000  C
  H33      1.0000 0.39821  0.87041  0.16065  Biso   1.000  H
  N14      1.0000 0.05290  0.75002  0.55671  Biso   1.000  N
  C40      1.0000 0.09266  0.67863  0.23087  Biso   1.000  C
  H34      1.0000 0.94590  0.54898  0.75975  Biso   1.000  H
  H35      1.0000 0.88422  0.60040  0.58211  Biso   1.000  H
  H36      1.0000 0.93737  0.64261  0.78531  Biso   1.000  H
  N15      1.0000 0.25000  0.89590  0.58130  Biso   1.000  N
  C41      1.0000 0.35247  0.99158  0.79712  Biso   1.000  C
  H37      1.0000 0.55410  0.95099  0.75975  Biso   1.000  H
  H38      1.0000 0.61578  0.89963  0.58211  Biso   1.000  H
  H39      1.0000 0.56263  0.85742  0.78531  Biso   1.000  H
  C42      1.0000 0.06749  0.81851  0.44734  Biso   1.000  C
  H40      1.0000 0.10179  0.62962  0.16065  Biso   1.000  H
  C43      1.0000 0.10401  0.75002  0.11924  Biso   1.000  C
  C44      1.0000 0.15188  0.92700  0.65087  Biso   1.000  C
  C45      1.0000 0.25000  0.02249  0.86717  Biso   1.000  C
  H41      1.0000 0.42159  0.01251  0.84452  Biso   1.000  H
  N16      1.0000 0.05358  0.89145  0.56900  Biso   1.000  N
  C46      1.0000 0.09266  0.82140  0.23087  Biso   1.000  C
  H42      1.0000 0.11911  0.75002  0.97153  Biso   1.000  H
  C47      1.0000 0.14753  0.99158  0.79712  Biso   1.000  C
  H43      1.0000 0.25000  0.06531  0.96425  Biso   1.000  H
  C48      1.0000 0.94616  0.90066  0.68387  Biso   1.000  C
  H44      1.0000 0.10179  0.87041  0.16065  Biso   1.000  H
  H45      1.0000 0.07841  0.01251  0.84452  Biso   1.000  H
  H46      1.0000 0.94590  0.95099  0.75975  Biso   1.000  H
  H47      1.0000 0.88422  0.89963  0.58211  Biso   1.000  H
  H48      1.0000 0.93737  0.85742  0.78531  Biso   1.000  H
