data_image0
_cell_length_a       12.979
_cell_length_b       24.289
_cell_length_c       26.134
_cell_angle_alpha    90
_cell_angle_beta     101.16
_cell_angle_gamma    90

_symmetry_space_group_name_H-M    "P 1"
_symmetry_int_tables_number       1

loop_
  _symmetry_equiv_pos_as_xyz
  'x, y, z'

loop_
  _atom_site_label
  _atom_site_occupancy
  _atom_site_fract_x
  _atom_site_fract_y
  _atom_site_fract_z
  _atom_site_thermal_displace_type
  _atom_site_B_iso_or_equiv
  _atom_site_type_symbol
  C1       1.0000 0.40837  0.44485  0.51603  Biso   1.000  C
  C2       1.0000 0.34447  0.40813  0.48354  Biso   1.000  C
  C3       1.0000 0.36593  0.47824  0.54989  Biso   1.000  C
  H1       1.0000 0.47947  0.44712  0.51521  Biso   1.000  H
  C4       1.0000 0.38208  0.37260  0.44482  Biso   1.000  C
  C5       1.0000 0.23811  0.40479  0.48483  Biso   1.000  C
  C6       1.0000 0.25949  0.47491  0.55117  Biso   1.000  C
  O1       1.0000 0.42909  0.51529  0.58284  Biso   1.000  O
  O2       1.0000 0.32697  0.35061  0.40999  Biso   1.000  O
  O3       1.0000 0.48658  0.36947  0.45636  Biso   1.000  O
  C7       1.0000 0.19558  0.43818  0.51865  Biso   1.000  C
  H2       1.0000 0.19543  0.38021  0.46311  Biso   1.000  H
  O4       1.0000 0.22050  0.50657  0.58616  Biso   1.000  O
  C8       1.0000 0.48259  0.49450  0.62859  Biso   1.000  C
  C9       1.0000 0.52822  0.33859  0.41592  Biso   1.000  C
  O5       1.0000 0.08963  0.43460  0.52021  Biso   1.000  O
  C10      1.0000 0.12429  0.52872  0.56248  Biso   1.000  C
  C11      1.0000 0.17930  0.57240  0.57118  Biso   1.000  C
  N1       1.0000 0.54759  0.53008  0.65621  Biso   1.000  N
  N2       1.0000 0.46497  0.44250  0.63893  Biso   1.000  N
  H3       1.0000 0.60337  0.33719  0.42508  Biso   1.000  H
  H4       1.0000 0.50039  0.30191  0.41350  Biso   1.000  H
  H5       1.0000 0.50772  0.35679  0.38288  Biso   1.000  H
  C12      1.0000 0.06341  0.39759  0.55414  Biso   1.000  C
  H6       1.0000 0.12067  0.53588  0.52571  Biso   1.000  H
  H7       1.0000 0.06583  0.50550  0.56709  Biso   1.000  H
  C13      1.0000 0.13021  0.58002  0.59349  Biso   1.000  C
  H8       1.0000 0.13539  0.57211  0.53659  Biso   1.000  H
  C14      1.0000 0.22407  0.60879  0.60718  Biso   1.000  C
  C15      1.0000 0.11907  0.60089  0.60761  Biso   1.000  C
  H9       1.0000 0.24060  0.59451  0.56931  Biso   1.000  H
  C16      1.0000 0.60570  0.50743  0.70090  Biso   1.000  C
  C17      1.0000 0.52592  0.42620  0.68304  Biso   1.000  C
  N3       1.0000 0.14151  0.36741  0.58156  Biso   1.000  N
  N4       1.0000 0.96330  0.39652  0.55488  Biso   1.000  N
  C18      1.0000 0.03933  0.60031  0.60741  Biso   1.000  C
  C19      1.0000 0.01570  0.58508  0.60628  Biso   1.000  C
  H10      1.0000 0.28491  0.59521  0.59802  Biso   1.000  H
  C20      1.0000 0.22698  0.65791  0.63479  Biso   1.000  C
  C21      1.0000 0.16340  0.64288  0.64068  Biso   1.000  C
  N5       1.0000 0.59691  0.45436  0.71592  Biso   1.000  N
  N6       1.0000 0.67643  0.53893  0.73156  Biso   1.000  N
  O6       1.0000 0.51701  0.37350  0.69794  Biso   1.000  O
  C22      1.0000 0.10459  0.33052  0.61057  Biso   1.000  C
  C23      1.0000 0.93828  0.35778  0.58795  Biso   1.000  C
  C24      1.0000 0.04219  0.64939  0.63491  Biso   1.000  C
  H11      1.0000 0.97649  0.58100  0.59821  Biso   1.000  H
  C25      1.0000 0.95660  0.61131  0.63811  Biso   1.000  C
  H12      1.0000 0.98601  0.55692  0.58409  Biso   1.000  H
  H13      1.0000 0.28974  0.67722  0.64400  Biso   1.000  H
  C26      1.0000 0.13602  0.67821  0.64872  Biso   1.000  C
  C27      1.0000 0.10438  0.66919  0.67251  Biso   1.000  C
  H14      1.0000 0.23264  0.65351  0.64162  Biso   1.000  H
  C28      1.0000 0.74761  0.51579  0.77758  Biso   1.000  C
  C29      1.0000 0.69207  0.59871  0.72029  Biso   1.000  C
  C30      1.0000 0.44876  0.33962  0.66256  Biso   1.000  C
  O7       1.0000 0.17523  0.29520  0.63784  Biso   1.000  O
  N7       1.0000 0.00727  0.32290  0.61650  Biso   1.000  N
  N8       1.0000 0.83659  0.35275  0.59213  Biso   1.000  N
  C31      1.0000 0.00100  0.65338  0.67118  Biso   1.000  C
  H15      1.0000 0.98139  0.66302  0.64419  Biso   1.000  H
  H16      1.0000 0.88737  0.60081  0.63721  Biso   1.000  H
  H17      1.0000 0.13801  0.71110  0.66709  Biso   1.000  H
  H18      1.0000 0.13414  0.69731  0.69470  Biso   1.000  H
  H19      1.0000 0.77488  0.54551  0.80110  Biso   1.000  H
  H20      1.0000 0.70798  0.49142  0.79591  Biso   1.000  H
  C32      1.0000 0.83790  0.48450  0.76354  Biso   1.000  C
  H21      1.0000 0.64496  0.60809  0.68838  Biso   1.000  H
  H22      1.0000 0.67240  0.62040  0.74751  Biso   1.000  H
  C33      1.0000 0.80589  0.61571  0.71401  Biso   1.000  C
  C34      1.0000 0.59522  0.62851  0.73530  Biso   1.000  C
  H23      1.0000 0.75673  0.61209  0.74068  Biso   1.000  H
  H24      1.0000 0.69319  0.60389  0.68401  Biso   1.000  H
  C35      1.0000 0.34388  0.33628  0.66728  Biso   1.000  C
  C36      1.0000 0.48759  0.31125  0.62539  Biso   1.000  C
  C37      1.0000 0.27990  0.30104  0.63261  Biso   1.000  C
  C38      1.0000 0.75289  0.38589  0.56022  Biso   1.000  C
  C39      1.0000 0.80692  0.31199  0.62711  Biso   1.000  C
  H25      1.0000 0.96147  0.67100  0.69252  Biso   1.000  H
  H26      1.0000 0.81046  0.45510  0.73959  Biso   1.000  H
  H27      1.0000 0.87806  0.50900  0.74560  Biso   1.000  H
  C40      1.0000 0.91037  0.45992  0.81030  Biso   1.000  C
  H28      1.0000 0.82174  0.59760  0.68331  Biso   1.000  H
  H29      1.0000 0.85571  0.60229  0.74400  Biso   1.000  H
  C41      1.0000 0.82208  0.67821  0.70890  Biso   1.000  C
  C42      1.0000 0.60537  0.68920  0.72161  Biso   1.000  C
  H30      1.0000 0.59557  0.62432  0.77220  Biso   1.000  H
  H31      1.0000 0.53032  0.61328  0.71568  Biso   1.000  H
  O8       1.0000 0.30204  0.36494  0.70246  Biso   1.000  O
  C43      1.0000 0.42124  0.27729  0.59037  Biso   1.000  C
  H32      1.0000 0.55796  0.31450  0.62329  Biso   1.000  H
  C44      1.0000 0.31618  0.27263  0.59462  Biso   1.000  C
  H33      1.0000 0.77901  0.40051  0.53058  Biso   1.000  H
  H34      1.0000 0.69411  0.36189  0.54681  Biso   1.000  H
  C45      1.0000 0.71362  0.43341  0.58897  Biso   1.000  C
  H35      1.0000 0.73292  0.30471  0.61791  Biso   1.000  H
  H36      1.0000 0.84409  0.27832  0.62442  Biso   1.000  H
  C46      1.0000 0.83534  0.33472  0.68401  Biso   1.000  C
  C47      1.0000 0.78643  0.32208  0.68089  Biso   1.000  C
  H37      1.0000 0.74428  0.29499  0.60812  Biso   1.000  H
  H38      1.0000 0.86084  0.28441  0.63101  Biso   1.000  H
  H39      1.0000 0.96652  0.44069  0.79899  Biso   1.000  H
  H40      1.0000 0.93883  0.48878  0.83390  Biso   1.000  H
  H41      1.0000 0.87169  0.43468  0.82770  Biso   1.000  H
  H42      1.0000 0.89334  0.68521  0.70550  Biso   1.000  H
  H43      1.0000 0.77510  0.69171  0.67851  Biso   1.000  H
  H44      1.0000 0.80812  0.69649  0.73932  Biso   1.000  H
  H45      1.0000 0.54580  0.70921  0.72871  Biso   1.000  H
  H46      1.0000 0.66836  0.70398  0.74228  Biso   1.000  H
  H47      1.0000 0.60817  0.69249  0.68530  Biso   1.000  H
  H48      1.0000 0.34618  0.38359  0.72161  Biso   1.000  H
  C48      1.0000 0.46121  0.24670  0.54942  Biso   1.000  C
  H49      1.0000 0.27092  0.25020  0.57161  Biso   1.000  H
  H50      1.0000 0.68599  0.41871  0.61810  Biso   1.000  H
  H51      1.0000 0.65613  0.45119  0.56560  Biso   1.000  H
  C49      1.0000 0.79603  0.47602  0.60925  Biso   1.000  C
  H52      1.0000 0.79110  0.36609  0.68772  Biso   1.000  H
  H53      1.0000 0.90791  0.34678  0.69131  Biso   1.000  H
  C50      1.0000 0.81898  0.28951  0.72270  Biso   1.000  C
  C51      1.0000 0.88918  0.33649  0.71658  Biso   1.000  C
  H54      1.0000 0.73690  0.35222  0.68011  Biso   1.000  H
  H55      1.0000 0.75652  0.28951  0.69349  Biso   1.000  H
  O9       1.0000 0.40888  0.21598  0.51814  Biso   1.000  O
  O10      1.0000 0.56348  0.25629  0.55106  Biso   1.000  O
  H56      1.0000 0.76558  0.50438  0.62719  Biso   1.000  H
  H57      1.0000 0.85291  0.45889  0.63280  Biso   1.000  H
  H58      1.0000 0.82189  0.49191  0.58050  Biso   1.000  H
  H59      1.0000 0.83547  0.30380  0.75749  Biso   1.000  H
  H60      1.0000 0.74722  0.27762  0.71510  Biso   1.000  H
  H61      1.0000 0.86420  0.25888  0.71951  Biso   1.000  H
  H62      1.0000 0.87702  0.34291  0.75121  Biso   1.000  H
  H63      1.0000 0.93768  0.30652  0.71728  Biso   1.000  H
  H64      1.0000 0.91798  0.36901  0.70410  Biso   1.000  H
  C52      1.0000 0.60981  0.22471  0.51514  Biso   1.000  C
  H65      1.0000 0.68250  0.23451  0.51861  Biso   1.000  H
  H66      1.0000 0.60428  0.18622  0.52251  Biso   1.000  H
  H67      1.0000 0.57369  0.23208  0.48019  Biso   1.000  H
  O11      1.0000 0.90892  0.71596  0.51814  Biso   1.000  O
  C53      1.0000 0.96117  0.74672  0.54942  Biso   1.000  C
  C54      1.0000 0.92120  0.77731  0.59037  Biso   1.000  C
  O12      1.0000 0.06352  0.75631  0.55106  Biso   1.000  O
  C55      1.0000 0.81622  0.77265  0.59462  Biso   1.000  C
  C56      1.0000 0.98762  0.81127  0.62539  Biso   1.000  C
  C57      1.0000 0.10984  0.72469  0.51514  Biso   1.000  C
  C58      1.0000 0.77987  0.80102  0.63261  Biso   1.000  C
  H68      1.0000 0.77089  0.75022  0.57161  Biso   1.000  H
  C59      1.0000 0.94879  0.83960  0.66256  Biso   1.000  C
  H69      1.0000 0.05800  0.81448  0.62329  Biso   1.000  H
  H70      1.0000 0.18247  0.73449  0.51861  Biso   1.000  H
  H71      1.0000 0.10432  0.68620  0.52251  Biso   1.000  H
  H72      1.0000 0.07373  0.73210  0.48019  Biso   1.000  H
  O13      1.0000 0.67519  0.79522  0.63784  Biso   1.000  O
  C60      1.0000 0.84392  0.83630  0.66728  Biso   1.000  C
  O14      1.0000 0.01705  0.87348  0.69794  Biso   1.000  O
  C61      1.0000 0.60462  0.83054  0.61057  Biso   1.000  C
  O15      1.0000 0.80208  0.86496  0.70246  Biso   1.000  O
  C62      1.0000 0.02589  0.92622  0.68304  Biso   1.000  C
  N9       1.0000 0.50731  0.82288  0.61650  Biso   1.000  N
  N10      1.0000 0.64147  0.86743  0.58156  Biso   1.000  N
  H73      1.0000 0.84622  0.88361  0.72161  Biso   1.000  H
  N11      1.0000 0.96501  0.94248  0.63893  Biso   1.000  N
  N12      1.0000 0.09687  0.95434  0.71592  Biso   1.000  N
  C63      1.0000 0.43832  0.85775  0.58795  Biso   1.000  C
  C64      1.0000 0.56337  0.89761  0.55414  Biso   1.000  C
  C65      1.0000 0.98263  0.99448  0.62859  Biso   1.000  C
  C66      1.0000 0.10573  0.00741  0.70090  Biso   1.000  C
  N13      1.0000 0.46326  0.89650  0.55488  Biso   1.000  N
  N14      1.0000 0.33663  0.85273  0.59213  Biso   1.000  N
  O16      1.0000 0.58959  0.93458  0.52021  Biso   1.000  O
  O17      1.0000 0.92913  0.01532  0.58284  Biso   1.000  O
  N15      1.0000 0.04763  0.03010  0.65621  Biso   1.000  N
  N16      1.0000 0.17639  0.03895  0.73156  Biso   1.000  N
  C67      1.0000 0.25293  0.88592  0.56022  Biso   1.000  C
  C68      1.0000 0.30689  0.81201  0.62711  Biso   1.000  C
  C69      1.0000 0.69562  0.93820  0.51865  Biso   1.000  C
  C70      1.0000 0.86589  0.97822  0.54989  Biso   1.000  C
  C71      1.0000 0.24757  0.01577  0.77758  Biso   1.000  C
  C72      1.0000 0.19211  0.09869  0.72029  Biso   1.000  C
  H74      1.0000 0.27897  0.90049  0.53058  Biso   1.000  H
  H75      1.0000 0.19407  0.86191  0.54681  Biso   1.000  H
  C73      1.0000 0.21359  0.93339  0.58897  Biso   1.000  C
  H76      1.0000 0.23288  0.80469  0.61791  Biso   1.000  H
  H77      1.0000 0.34413  0.77829  0.62442  Biso   1.000  H
  C74      1.0000 0.33530  0.83470  0.68401  Biso   1.000  C
  C75      1.0000 0.28639  0.82210  0.68089  Biso   1.000  C
  H78      1.0000 0.24432  0.79501  0.60812  Biso   1.000  H
  H79      1.0000 0.36080  0.78439  0.63101  Biso   1.000  H
  C76      1.0000 0.75953  0.97493  0.55117  Biso   1.000  C
  C77      1.0000 0.73807  0.90481  0.48483  Biso   1.000  C
  C78      1.0000 0.90833  0.94483  0.51603  Biso   1.000  C
  H80      1.0000 0.20802  0.99140  0.79591  Biso   1.000  H
  C79      1.0000 0.33786  0.98452  0.76354  Biso   1.000  C
  H81      1.0000 0.27492  0.04549  0.80110  Biso   1.000  H
  H82      1.0000 0.14500  0.10811  0.68838  Biso   1.000  H
  H83      1.0000 0.17244  0.12038  0.74751  Biso   1.000  H
  C80      1.0000 0.30593  0.11569  0.71401  Biso   1.000  C
  C81      1.0000 0.09518  0.12849  0.73530  Biso   1.000  C
  H84      1.0000 0.25669  0.11211  0.74068  Biso   1.000  H
  H85      1.0000 0.19323  0.10392  0.68401  Biso   1.000  H
  H86      1.0000 0.18603  0.91869  0.61810  Biso   1.000  H
  H87      1.0000 0.15609  0.95121  0.56560  Biso   1.000  H
  C82      1.0000 0.29599  0.97600  0.60925  Biso   1.000  C
  H88      1.0000 0.29113  0.86611  0.68772  Biso   1.000  H
  H89      1.0000 0.40787  0.84680  0.69131  Biso   1.000  H
  C83      1.0000 0.31902  0.78949  0.72270  Biso   1.000  C
  C84      1.0000 0.38922  0.83651  0.71658  Biso   1.000  C
  H90      1.0000 0.23693  0.85220  0.68011  Biso   1.000  H
  H91      1.0000 0.25648  0.78949  0.69349  Biso   1.000  H
  O18      1.0000 0.72054  0.00659  0.58616  Biso   1.000  O
  H92      1.0000 0.69539  0.88019  0.46311  Biso   1.000  H
  C85      1.0000 0.84451  0.90815  0.48354  Biso   1.000  C
  H93      1.0000 0.97951  0.94710  0.51521  Biso   1.000  H
  H94      1.0000 0.31050  0.95508  0.73959  Biso   1.000  H
  C86      1.0000 0.41041  0.95990  0.81030  Biso   1.000  C
  H95      1.0000 0.37810  0.00902  0.74560  Biso   1.000  H
  H96      1.0000 0.32170  0.09762  0.68331  Biso   1.000  H
  H97      1.0000 0.35568  0.10231  0.74400  Biso   1.000  H
  C87      1.0000 0.32212  0.17819  0.70890  Biso   1.000  C
  C88      1.0000 0.10541  0.18918  0.72161  Biso   1.000  C
  H98      1.0000 0.09561  0.12429  0.77220  Biso   1.000  H
  H99      1.0000 0.03029  0.11330  0.71568  Biso   1.000  H
  H100     1.0000 0.35287  0.95891  0.63280  Biso   1.000  H
  H101     1.0000 0.32193  0.99189  0.58050  Biso   1.000  H
  H102     1.0000 0.26562  0.00441  0.62719  Biso   1.000  H
  H103     1.0000 0.33551  0.80378  0.75749  Biso   1.000  H
  H104     1.0000 0.24718  0.77759  0.71510  Biso   1.000  H
  H105     1.0000 0.36424  0.75890  0.71951  Biso   1.000  H
  H106     1.0000 0.37698  0.84289  0.75121  Biso   1.000  H
  H107     1.0000 0.43772  0.80650  0.71728  Biso   1.000  H
  H108     1.0000 0.41802  0.86899  0.70410  Biso   1.000  H
  C89      1.0000 0.62433  0.02870  0.56248  Biso   1.000  C
  C90      1.0000 0.67926  0.07242  0.57118  Biso   1.000  C
  C91      1.0000 0.88212  0.87262  0.44482  Biso   1.000  C
  H109     1.0000 0.46648  0.94071  0.79899  Biso   1.000  H
  H110     1.0000 0.43879  0.98880  0.83390  Biso   1.000  H
  H111     1.0000 0.37173  0.93470  0.82770  Biso   1.000  H
  H112     1.0000 0.39330  0.18519  0.70550  Biso   1.000  H
  H113     1.0000 0.27514  0.19169  0.67851  Biso   1.000  H
  H114     1.0000 0.30809  0.19651  0.73932  Biso   1.000  H
  H115     1.0000 0.04584  0.20919  0.72871  Biso   1.000  H
  H116     1.0000 0.16840  0.20400  0.74228  Biso   1.000  H
  H117     1.0000 0.10821  0.19252  0.68530  Biso   1.000  H
  H118     1.0000 0.62071  0.03590  0.52571  Biso   1.000  H
  H119     1.0000 0.56579  0.00552  0.56709  Biso   1.000  H
  C92      1.0000 0.63017  0.08000  0.59349  Biso   1.000  C
  H120     1.0000 0.63542  0.07209  0.53659  Biso   1.000  H
  C93      1.0000 0.72411  0.10881  0.60718  Biso   1.000  C
  C94      1.0000 0.61911  0.10091  0.60761  Biso   1.000  C
  H121     1.0000 0.74063  0.09449  0.56931  Biso   1.000  H
  O19      1.0000 0.82701  0.85059  0.40999  Biso   1.000  O
  O20      1.0000 0.98662  0.86945  0.45636  Biso   1.000  O
  C95      1.0000 0.53929  0.10029  0.60741  Biso   1.000  C
  C96      1.0000 0.51566  0.08510  0.60628  Biso   1.000  C
  H122     1.0000 0.78488  0.09519  0.59802  Biso   1.000  H
  C97      1.0000 0.72702  0.15789  0.63479  Biso   1.000  C
  C98      1.0000 0.66336  0.14290  0.64068  Biso   1.000  C
  C99      1.0000 0.02818  0.83861  0.41592  Biso   1.000  C
  C100     1.0000 0.54222  0.14941  0.63491  Biso   1.000  C
  H123     1.0000 0.47653  0.08098  0.59821  Biso   1.000  H
  C101     1.0000 0.45664  0.11128  0.63811  Biso   1.000  C
  H124     1.0000 0.48597  0.05690  0.58409  Biso   1.000  H
  H125     1.0000 0.78970  0.17720  0.64400  Biso   1.000  H
  C102     1.0000 0.63598  0.17819  0.64872  Biso   1.000  C
  C103     1.0000 0.60441  0.16921  0.67251  Biso   1.000  C
  H126     1.0000 0.73260  0.15349  0.64162  Biso   1.000  H
  H127     1.0000 0.10341  0.83721  0.42508  Biso   1.000  H
  H128     1.0000 0.00043  0.80189  0.41350  Biso   1.000  H
  H129     1.0000 0.00768  0.85681  0.38288  Biso   1.000  H
  H130     1.0000 0.48143  0.16300  0.64419  Biso   1.000  H
  C104     1.0000 0.50096  0.15340  0.67118  Biso   1.000  C
  H131     1.0000 0.38741  0.10079  0.63721  Biso   1.000  H
  H132     1.0000 0.63797  0.21108  0.66709  Biso   1.000  H
  H133     1.0000 0.63410  0.19729  0.69470  Biso   1.000  H
  H134     1.0000 0.46151  0.17098  0.69252  Biso   1.000  H
