data_image0
_cell_length_a       11.957
_cell_length_b       12.44
_cell_length_c       18.322
_cell_angle_alpha    71.01
_cell_angle_beta     86.01
_cell_angle_gamma    80.51

_symmetry_space_group_name_H-M    "P 1"
_symmetry_int_tables_number       1

loop_
  _symmetry_equiv_pos_as_xyz
  'x, y, z'

loop_
  _atom_site_label
  _atom_site_occupancy
  _atom_site_fract_x
  _atom_site_fract_y
  _atom_site_fract_z
  _atom_site_thermal_displace_type
  _atom_site_B_iso_or_equiv
  _atom_site_type_symbol
  O1       1.0000 0.59621  0.53369  0.41767  Biso   1.000  O
  C1       1.0000 0.61031  0.62859  0.40647  Biso   1.000  C
  O2       1.0000 0.59385  0.71085  0.33679  Biso   1.000  O
  C2       1.0000 0.64080  0.67440  0.46732  Biso   1.000  C
  C3       1.0000 0.57635  0.67020  0.27450  Biso   1.000  C
  C4       1.0000 0.68576  0.77518  0.44821  Biso   1.000  C
  C5       1.0000 0.62503  0.61015  0.54438  Biso   1.000  C
  C6       1.0000 0.46452  0.66440  0.25961  Biso   1.000  C
  C7       1.0000 0.67073  0.64152  0.23317  Biso   1.000  C
  H1       1.0000 0.69271  0.82106  0.39712  Biso   1.000  H
  C8       1.0000 0.72163  0.80566  0.51061  Biso   1.000  C
  C9       1.0000 0.65402  0.64130  0.60281  Biso   1.000  C
  H2       1.0000 0.59299  0.54329  0.55558  Biso   1.000  H
  C10      1.0000 0.45441  0.61841  0.20101  Biso   1.000  C
  C11      1.0000 0.36606  0.70665  0.30019  Biso   1.000  C
  C12      1.0000 0.65082  0.60056  0.17290  Biso   1.000  C
  C13      1.0000 0.78500  0.66584  0.24321  Biso   1.000  C
  H3       1.0000 0.75870  0.86903  0.50109  Biso   1.000  H
  C14      1.0000 0.70006  0.73938  0.58508  Biso   1.000  C
  H4       1.0000 0.64301  0.59727  0.65378  Biso   1.000  H
  C15      1.0000 0.55019  0.58656  0.15708  Biso   1.000  C
  H5       1.0000 0.38293  0.60800  0.18999  Biso   1.000  H
  H6       1.0000 0.39193  0.72195  0.34430  Biso   1.000  H
  H7       1.0000 0.31855  0.64687  0.31947  Biso   1.000  H
  C16      1.0000 0.29514  0.81482  0.25008  Biso   1.000  C
  H8       1.0000 0.71226  0.58234  0.14282  Biso   1.000  H
  C17      1.0000 0.82364  0.76234  0.17342  Biso   1.000  C
  H9       1.0000 0.83934  0.59612  0.25049  Biso   1.000  H
  H10      1.0000 0.78439  0.68804  0.28928  Biso   1.000  H
  N1       1.0000 0.73585  0.78110  0.65130  Biso   1.000  N
  H11      1.0000 0.54115  0.55632  0.11800  Biso   1.000  H
  C18      1.0000 0.18982  0.81294  0.22197  Biso   1.000  C
  C19      1.0000 0.33795  0.92012  0.22659  Biso   1.000  C
  C20      1.0000 0.89932  0.73569  0.11990  Biso   1.000  C
  C21      1.0000 0.77415  0.87717  0.16262  Biso   1.000  C
  O3       1.0000 0.70900  0.70797  0.71959  Biso   1.000  O
  O4       1.0000 0.76291  0.86396  0.63369  Biso   1.000  O
  H12      1.0000 0.16039  0.74417  0.23600  Biso   1.000  H
  C22      1.0000 0.13013  0.90979  0.17492  Biso   1.000  C
  O5       1.0000 0.44269  0.92531  0.25407  Biso   1.000  O
  C23      1.0000 0.28235  0.02051  0.17792  Biso   1.000  C
  C24      1.0000 0.92733  0.82709  0.05450  Biso   1.000  C
  H13      1.0000 0.93140  0.65989  0.12608  Biso   1.000  H
  O6       1.0000 0.70247  0.89616  0.21920  Biso   1.000  O
  C25      1.0000 0.80119  0.96430  0.09831  Biso   1.000  C
  H14      1.0000 0.05997  0.90713  0.15720  Biso   1.000  H
  C26      1.0000 0.17174  0.01017  0.15339  Biso   1.000  C
  H15      1.0000 0.47509  0.86325  0.27439  Biso   1.000  H
  C27      1.0000 0.32836  0.13245  0.15298  Biso   1.000  C
  C28      1.0000 0.87568  0.93529  0.04480  Biso   1.000  C
  H16      1.0000 0.98125  0.81210  0.01847  Biso   1.000  H
  H17      1.0000 0.66713  0.96155  0.20390  Biso   1.000  H
  C29      1.0000 0.74756  0.08971  0.08498  Biso   1.000  C
  H18      1.0000 0.12829  0.07557  0.12158  Biso   1.000  H
  H19      1.0000 0.35623  0.14452  0.19772  Biso   1.000  H
  H20      1.0000 0.26771  0.19484  0.13128  Biso   1.000  H
  C30      1.0000 0.42344  0.13485  0.09358  Biso   1.000  C
  H21      1.0000 0.89114  0.99307  0.99988  Biso   1.000  H
  H22      1.0000 0.75137  0.10777  0.13237  Biso   1.000  H
  H23      1.0000 0.79156  0.13942  0.04572  Biso   1.000  H
  C31      1.0000 0.62602  0.11495  0.06033  Biso   1.000  C
  C32      1.0000 0.40145  0.14441  0.01772  Biso   1.000  C
  C33      1.0000 0.53842  0.12453  0.11032  Biso   1.000  C
  C34      1.0000 0.60040  0.12430  0.98511  Biso   1.000  C
  C35      1.0000 0.48721  0.14233  0.96432  Biso   1.000  C
  H24      1.0000 0.32680  0.15239  0.00300  Biso   1.000  H
  O7       1.0000 0.56267  0.11892  0.18762  Biso   1.000  O
  H25      1.0000 0.65831  0.11857  0.94931  Biso   1.000  H
  H26      1.0000 0.46973  0.15294  0.91352  Biso   1.000  H
  C36      1.0000 0.57643  0.21923  0.19761  Biso   1.000  C
  O8       1.0000 0.57934  0.30657  0.14588  Biso   1.000  O
  C37      1.0000 0.59167  0.20447  0.28079  Biso   1.000  C
  C38      1.0000 0.62394  0.29281  0.29881  Biso   1.000  C
  C39      1.0000 0.57233  0.10652  0.33581  Biso   1.000  C
  H27      1.0000 0.63471  0.36018  0.25961  Biso   1.000  H
  C40      1.0000 0.64067  0.28338  0.37437  Biso   1.000  C
  C41      1.0000 0.58647  0.09776  0.41340  Biso   1.000  C
  H28      1.0000 0.55044  0.04665  0.32288  Biso   1.000  H
  H29      1.0000 0.66400  0.34287  0.38690  Biso   1.000  H
  C42      1.0000 0.62216  0.18529  0.42968  Biso   1.000  C
  H30      1.0000 0.57145  0.03242  0.45312  Biso   1.000  H
  N2       1.0000 0.63157  0.17646  0.51171  Biso   1.000  N
  O9       1.0000 0.60394  0.09802  0.56049  Biso   1.000  O
  O10      1.0000 0.66633  0.25328  0.52568  Biso   1.000  O
  O11      1.0000 0.40361  0.46644  0.58231  Biso   1.000  O
  C43      1.0000 0.38950  0.37155  0.59351  Biso   1.000  C
  C44      1.0000 0.35903  0.32565  0.53267  Biso   1.000  C
  O12      1.0000 0.40605  0.28929  0.66319  Biso   1.000  O
  C45      1.0000 0.31405  0.22496  0.55177  Biso   1.000  C
  C46      1.0000 0.37488  0.38991  0.45560  Biso   1.000  C
  C47      1.0000 0.42356  0.32986  0.72548  Biso   1.000  C
  C48      1.0000 0.27827  0.19448  0.48937  Biso   1.000  C
  H31      1.0000 0.30711  0.17908  0.60286  Biso   1.000  H
  C49      1.0000 0.34588  0.35883  0.39718  Biso   1.000  C
  H32      1.0000 0.40683  0.45685  0.44440  Biso   1.000  H
  C50      1.0000 0.32910  0.35857  0.76676  Biso   1.000  C
  C51      1.0000 0.53531  0.33565  0.74037  Biso   1.000  C
  C52      1.0000 0.29976  0.26076  0.41490  Biso   1.000  C
  H33      1.0000 0.24113  0.13102  0.49889  Biso   1.000  H
  H34      1.0000 0.35681  0.40287  0.34620  Biso   1.000  H
  C53      1.0000 0.21481  0.33430  0.75677  Biso   1.000  C
  C54      1.0000 0.34900  0.39958  0.82708  Biso   1.000  C
  C55      1.0000 0.54541  0.38173  0.79897  Biso   1.000  C
  C56      1.0000 0.63384  0.29349  0.69979  Biso   1.000  C
  N3       1.0000 0.26396  0.21904  0.34868  Biso   1.000  N
  C57      1.0000 0.17625  0.23780  0.82656  Biso   1.000  C
  H35      1.0000 0.16048  0.40402  0.74950  Biso   1.000  H
  H36      1.0000 0.21542  0.31210  0.71070  Biso   1.000  H
  H37      1.0000 0.28764  0.41780  0.85716  Biso   1.000  H
  C58      1.0000 0.44962  0.41358  0.84290  Biso   1.000  C
  H38      1.0000 0.61690  0.39205  0.81000  Biso   1.000  H
  H39      1.0000 0.60789  0.27819  0.65569  Biso   1.000  H
  H40      1.0000 0.68135  0.35327  0.68051  Biso   1.000  H
  C59      1.0000 0.70468  0.18532  0.74990  Biso   1.000  C
  O13      1.0000 0.29082  0.29217  0.28039  Biso   1.000  O
  O14      1.0000 0.23699  0.13618  0.36629  Biso   1.000  O
  C60      1.0000 0.10049  0.26445  0.88008  Biso   1.000  C
  C61      1.0000 0.22576  0.12289  0.83736  Biso   1.000  C
  H41      1.0000 0.45867  0.44382  0.88198  Biso   1.000  H
  C62      1.0000 0.81000  0.18723  0.77796  Biso   1.000  C
  C63      1.0000 0.66195  0.08002  0.77340  Biso   1.000  C
  C64      1.0000 0.07248  0.17305  0.94549  Biso   1.000  C
  H42      1.0000 0.06843  0.34016  0.87390  Biso   1.000  H
  O15      1.0000 0.29734  0.10397  0.78079  Biso   1.000  O
  C65      1.0000 0.19862  0.03584  0.90167  Biso   1.000  C
  H43      1.0000 0.83942  0.25597  0.76399  Biso   1.000  H
  C66      1.0000 0.86969  0.09035  0.82506  Biso   1.000  C
  O16      1.0000 0.55714  0.07477  0.74586  Biso   1.000  O
  C67      1.0000 0.71747  0.97963  0.82206  Biso   1.000  C
  C68      1.0000 0.12413  0.06485  0.95518  Biso   1.000  C
  H44      1.0000 0.01865  0.18807  0.98145  Biso   1.000  H
  H45      1.0000 0.33277  0.03859  0.79608  Biso   1.000  H
  C69      1.0000 0.25227  0.91035  0.91501  Biso   1.000  C
  H46      1.0000 0.93993  0.09301  0.84279  Biso   1.000  H
  C70      1.0000 0.82807  0.98997  0.84660  Biso   1.000  C
  H47      1.0000 0.52473  0.13689  0.72560  Biso   1.000  H
  C71      1.0000 0.67145  0.86769  0.84700  Biso   1.000  C
  H48      1.0000 0.10869  0.00699  0.00010  Biso   1.000  H
  H49      1.0000 0.24853  0.89240  0.86755  Biso   1.000  H
  H50      1.0000 0.20825  0.86072  0.95426  Biso   1.000  H
  C72      1.0000 0.37380  0.88519  0.93966  Biso   1.000  C
  H51      1.0000 0.87153  0.92457  0.87841  Biso   1.000  H
  H52      1.0000 0.64358  0.85562  0.80226  Biso   1.000  H
  H53      1.0000 0.73219  0.80529  0.86871  Biso   1.000  H
  C73      1.0000 0.57638  0.86529  0.90640  Biso   1.000  C
  C74      1.0000 0.46140  0.87561  0.88966  Biso   1.000  C
  C75      1.0000 0.39941  0.87584  0.01488  Biso   1.000  C
  C76      1.0000 0.59836  0.85573  0.98226  Biso   1.000  C
  O17      1.0000 0.43715  0.88122  0.81236  Biso   1.000  O
  C77      1.0000 0.51261  0.85781  0.03566  Biso   1.000  C
  H54      1.0000 0.34151  0.88157  0.05067  Biso   1.000  H
  H55      1.0000 0.67311  0.84767  0.99698  Biso   1.000  H
  C78      1.0000 0.42339  0.78091  0.80238  Biso   1.000  C
  H56      1.0000 0.53010  0.84712  0.08646  Biso   1.000  H
  O18      1.0000 0.42048  0.69357  0.85410  Biso   1.000  O
  C79      1.0000 0.40823  0.79567  0.71919  Biso   1.000  C
  C80      1.0000 0.37589  0.70725  0.70118  Biso   1.000  C
  C81      1.0000 0.42750  0.89354  0.66417  Biso   1.000  C
  H57      1.0000 0.36511  0.63996  0.74037  Biso   1.000  H
  C82      1.0000 0.35923  0.71676  0.62561  Biso   1.000  C
  C83      1.0000 0.41343  0.90238  0.58658  Biso   1.000  C
  H58      1.0000 0.44937  0.95349  0.67710  Biso   1.000  H
  H59      1.0000 0.33582  0.65726  0.61308  Biso   1.000  H
  C84      1.0000 0.37774  0.81484  0.57031  Biso   1.000  C
  H60      1.0000 0.42838  0.96763  0.54687  Biso   1.000  H
  N4       1.0000 0.36833  0.82368  0.48827  Biso   1.000  N
  O19      1.0000 0.39596  0.90212  0.43949  Biso   1.000  O
  O20      1.0000 0.33349  0.74686  0.47430  Biso   1.000  O
