data_image0
_cell_length_a       12.274
_cell_length_b       11.024
_cell_length_c       20.582
_cell_angle_alpha    90
_cell_angle_beta     106.99
_cell_angle_gamma    90

_symmetry_space_group_name_H-M    "P 1"
_symmetry_int_tables_number       1

loop_
  _symmetry_equiv_pos_as_xyz
  'x, y, z'

loop_
  _atom_site_label
  _atom_site_occupancy
  _atom_site_fract_x
  _atom_site_fract_y
  _atom_site_fract_z
  _atom_site_thermal_displace_type
  _atom_site_B_iso_or_equiv
  _atom_site_type_symbol
  C1       1.0000 0.69464  0.53547  0.48202  Biso   1.000  C
  C2       1.0000 0.72819  0.41500  0.47252  Biso   1.000  C
  C3       1.0000 0.77442  0.60767  0.52429  Biso   1.000  C
  H1       1.0000 0.61998  0.56404  0.46002  Biso   1.000  H
  C4       1.0000 0.83336  0.37001  0.50458  Biso   1.000  C
  H2       1.0000 0.67502  0.36402  0.44199  Biso   1.000  H
  O1       1.0000 0.75963  0.72487  0.54151  Biso   1.000  O
  C5       1.0000 0.88052  0.56422  0.55909  Biso   1.000  C
  C6       1.0000 0.91378  0.44748  0.54832  Biso   1.000  C
  H3       1.0000 0.85197  0.28901  0.49701  Biso   1.000  H
  C7       1.0000 0.64712  0.77703  0.50859  Biso   1.000  C
  O2       1.0000 0.95497  0.64242  0.60329  Biso   1.000  O
  H4       1.0000 0.98901  0.41999  0.57001  Biso   1.000  H
  C8       1.0000 0.65309  0.90666  0.52643  Biso   1.000  C
  H5       1.0000 0.62901  0.76696  0.46099  Biso   1.000  H
  H6       1.0000 0.59104  0.73803  0.52500  Biso   1.000  H
  C9       1.0000 0.06112  0.60033  0.64551  Biso   1.000  C
  O3       1.0000 0.65490  0.94839  0.59730  Biso   1.000  O
  H7       1.0000 0.58896  0.94802  0.49798  Biso   1.000  H
  H8       1.0000 0.72100  0.94104  0.52002  Biso   1.000  H
  C10      1.0000 0.04874  0.53501  0.70520  Biso   1.000  C
  H9       1.0000 0.09400  0.54699  0.62000  Biso   1.000  H
  H10      1.0000 0.11001  0.66800  0.65999  Biso   1.000  H
  C11      1.0000 0.66570  0.03030  0.62798  Biso   1.000  C
  O4       1.0000 0.03659  0.60577  0.75839  Biso   1.000  O
  C12      1.0000 0.06141  0.41936  0.72908  Biso   1.000  C
  C13      1.0000 0.66650  0.04118  0.69530  Biso   1.000  C
  C14      1.0000 0.66981  0.13416  0.58749  Biso   1.000  C
  C15      1.0000 0.03808  0.53356  0.81382  Biso   1.000  C
  C16      1.0000 0.05662  0.41754  0.79711  Biso   1.000  C
  H11      1.0000 0.07201  0.34996  0.70398  Biso   1.000  H
  O5       1.0000 0.65633  0.92988  0.72491  Biso   1.000  O
  C17      1.0000 0.67678  0.15140  0.72659  Biso   1.000  C
  C18      1.0000 0.68231  0.24701  0.62331  Biso   1.000  C
  H12      1.0000 0.66503  0.12899  0.53999  Biso   1.000  H
  C19      1.0000 0.02883  0.59697  0.87458  Biso   1.000  C
  H13      1.0000 0.06500  0.34897  0.82601  Biso   1.000  H
  C20      1.0000 0.63781  0.93641  0.78872  Biso   1.000  C
  C21      1.0000 0.68458  0.25508  0.68879  Biso   1.000  C
  H14      1.0000 0.67900  0.15802  0.77302  Biso   1.000  H
  H15      1.0000 0.69003  0.31903  0.59999  Biso   1.000  H
  O6       1.0000 0.92049  0.64813  0.86798  Biso   1.000  O
  H16      1.0000 0.08298  0.66101  0.88500  Biso   1.000  H
  H17      1.0000 0.04497  0.54100  0.91101  Biso   1.000  H
  C22      1.0000 0.61312  0.81368  0.81148  Biso   1.000  C
  H18      1.0000 0.70399  0.96798  0.82002  Biso   1.000  H
  H19      1.0000 0.57496  0.98803  0.78598  Biso   1.000  H
  H20      1.0000 0.69097  0.33200  0.70998  Biso   1.000  H
  C23      1.0000 0.82910  0.57520  0.86752  Biso   1.000  C
  O7       1.0000 0.72237  0.75336  0.83409  Biso   1.000  O
  H21      1.0000 0.56298  0.77104  0.77501  Biso   1.000  H
  H22      1.0000 0.58001  0.82003  0.84801  Biso   1.000  H
  C24      1.0000 0.72608  0.63380  0.85131  Biso   1.000  C
  C25      1.0000 0.83447  0.45210  0.88230  Biso   1.000  C
  C26      1.0000 0.63138  0.56967  0.85009  Biso   1.000  C
  C27      1.0000 0.73690  0.38516  0.87920  Biso   1.000  C
  H23      1.0000 0.90701  0.41301  0.89500  Biso   1.000  H
  C28      1.0000 0.63783  0.44503  0.86508  Biso   1.000  C
  H24      1.0000 0.56004  0.60903  0.83902  Biso   1.000  H
  H25      1.0000 0.74095  0.29998  0.88698  Biso   1.000  H
  H26      1.0000 0.57097  0.40203  0.86498  Biso   1.000  H
  C29      1.0000 0.30538  0.46453  0.51799  Biso   1.000  C
  C30      1.0000 0.22560  0.39233  0.47572  Biso   1.000  C
  C31      1.0000 0.27183  0.58500  0.52749  Biso   1.000  C
  H27      1.0000 0.37996  0.43596  0.53999  Biso   1.000  H
  O8       1.0000 0.24039  0.27513  0.45850  Biso   1.000  O
  C32      1.0000 0.11950  0.43578  0.44092  Biso   1.000  C
  C33      1.0000 0.16656  0.62999  0.49538  Biso   1.000  C
  H28      1.0000 0.32500  0.63598  0.55802  Biso   1.000  H
  C34      1.0000 0.35290  0.22297  0.49142  Biso   1.000  C
  O9       1.0000 0.04505  0.35758  0.39672  Biso   1.000  O
  C35      1.0000 0.08616  0.55252  0.45169  Biso   1.000  C
  H29      1.0000 0.14797  0.71099  0.50300  Biso   1.000  H
  C36      1.0000 0.34693  0.09334  0.47359  Biso   1.000  C
  H30      1.0000 0.37101  0.23304  0.53902  Biso   1.000  H
  H31      1.0000 0.40898  0.26197  0.47501  Biso   1.000  H
  C37      1.0000 0.93890  0.39967  0.35451  Biso   1.000  C
  H32      1.0000 0.01101  0.58001  0.43000  Biso   1.000  H
  O10      1.0000 0.34512  0.05161  0.40272  Biso   1.000  O
  H33      1.0000 0.41103  0.05198  0.50199  Biso   1.000  H
  H34      1.0000 0.27902  0.05896  0.47999  Biso   1.000  H
  C38      1.0000 0.95128  0.46499  0.29481  Biso   1.000  C
  H35      1.0000 0.90602  0.45301  0.38001  Biso   1.000  H
  H36      1.0000 0.88998  0.33200  0.33998  Biso   1.000  H
  C39      1.0000 0.33430  0.96970  0.37198  Biso   1.000  C
  O11      1.0000 0.96343  0.39423  0.24162  Biso   1.000  O
  C40      1.0000 0.93858  0.58064  0.27088  Biso   1.000  C
  C41      1.0000 0.33352  0.95882  0.30472  Biso   1.000  C
  C42      1.0000 0.33021  0.86584  0.41252  Biso   1.000  C
  C43      1.0000 0.96194  0.46644  0.18619  Biso   1.000  C
  C44      1.0000 0.94340  0.58246  0.20291  Biso   1.000  C
  H37      1.0000 0.92798  0.65004  0.29598  Biso   1.000  H
  O12      1.0000 0.34369  0.07012  0.27510  Biso   1.000  O
  C45      1.0000 0.32324  0.84860  0.27342  Biso   1.000  C
  C46      1.0000 0.31771  0.75299  0.37671  Biso   1.000  C
  H38      1.0000 0.33499  0.87101  0.46002  Biso   1.000  H
  C47      1.0000 0.97116  0.40303  0.12538  Biso   1.000  C
  H39      1.0000 0.93502  0.65103  0.17400  Biso   1.000  H
  C48      1.0000 0.36221  0.06359  0.21129  Biso   1.000  C
  C49      1.0000 0.31544  0.74492  0.31122  Biso   1.000  C
  H40      1.0000 0.32102  0.84198  0.22699  Biso   1.000  H
  H41      1.0000 0.30997  0.68097  0.39998  Biso   1.000  H
  O13      1.0000 0.07950  0.35187  0.13199  Biso   1.000  O
  H42      1.0000 0.91704  0.33899  0.11502  Biso   1.000  H
  H43      1.0000 0.95497  0.45900  0.08901  Biso   1.000  H
  C50      1.0000 0.38688  0.18632  0.18848  Biso   1.000  C
  H44      1.0000 0.29603  0.03202  0.18000  Biso   1.000  H
  H45      1.0000 0.42496  0.01197  0.21398  Biso   1.000  H
  H46      1.0000 0.30903  0.66800  0.28999  Biso   1.000  H
  C51      1.0000 0.17092  0.42480  0.13250  Biso   1.000  C
  O14      1.0000 0.27765  0.24664  0.16592  Biso   1.000  O
  H47      1.0000 0.43704  0.22896  0.22501  Biso   1.000  H
  H48      1.0000 0.42001  0.17997  0.15200  Biso   1.000  H
  C52      1.0000 0.27394  0.36620  0.14870  Biso   1.000  C
  C53      1.0000 0.16547  0.54790  0.11771  Biso   1.000  C
  C54      1.0000 0.36864  0.43033  0.14992  Biso   1.000  C
  C55      1.0000 0.26312  0.61484  0.12081  Biso   1.000  C
  H49      1.0000 0.09301  0.58699  0.10501  Biso   1.000  H
  C56      1.0000 0.36216  0.55497  0.13488  Biso   1.000  C
  H50      1.0000 0.43998  0.39097  0.16100  Biso   1.000  H
  H51      1.0000 0.25896  0.70002  0.11299  Biso   1.000  H
  H52      1.0000 0.42902  0.59797  0.13498  Biso   1.000  H
  C57      1.0000 0.61311  0.68632  0.31148  Biso   1.000  C
  C58      1.0000 0.63780  0.56359  0.28872  Biso   1.000  C
  O15      1.0000 0.72236  0.74664  0.33408  Biso   1.000  O
  H53      1.0000 0.56297  0.72896  0.27500  Biso   1.000  H
  H54      1.0000 0.58000  0.67997  0.34800  Biso   1.000  H
  O16      1.0000 0.65632  0.57012  0.22491  Biso   1.000  O
  H55      1.0000 0.70398  0.53202  0.32001  Biso   1.000  H
  H56      1.0000 0.57505  0.51197  0.28602  Biso   1.000  H
  C59      1.0000 0.72607  0.86620  0.35131  Biso   1.000  C
  C60      1.0000 0.66649  0.45882  0.19529  Biso   1.000  C
  C61      1.0000 0.82909  0.92480  0.36751  Biso   1.000  C
  C62      1.0000 0.63137  0.93033  0.35009  Biso   1.000  C
  C63      1.0000 0.67677  0.34860  0.22658  Biso   1.000  C
  C64      1.0000 0.66571  0.46970  0.12802  Biso   1.000  C
  O17      1.0000 0.92051  0.85187  0.36802  Biso   1.000  O
  C65      1.0000 0.83446  0.04790  0.38230  Biso   1.000  C
  H57      1.0000 0.56003  0.89097  0.33901  Biso   1.000  H
  C66      1.0000 0.63785  0.05497  0.36512  Biso   1.000  C
  C67      1.0000 0.68457  0.24492  0.18879  Biso   1.000  C
  H58      1.0000 0.67899  0.34198  0.27302  Biso   1.000  H
  O18      1.0000 0.65489  0.55161  0.09729  Biso   1.000  O
  C68      1.0000 0.66980  0.36584  0.08748  Biso   1.000  C
  C69      1.0000 0.02885  0.90303  0.37462  Biso   1.000  C
  C70      1.0000 0.73689  0.11484  0.37920  Biso   1.000  C
  H59      1.0000 0.90700  0.08699  0.39500  Biso   1.000  H
  H60      1.0000 0.57099  0.09797  0.36502  Biso   1.000  H
  C71      1.0000 0.68230  0.25299  0.12330  Biso   1.000  C
  H61      1.0000 0.69098  0.16800  0.21002  Biso   1.000  H
  C72      1.0000 0.65308  0.59334  0.02642  Biso   1.000  C
  H62      1.0000 0.66502  0.37101  0.03998  Biso   1.000  H
  C73      1.0000 0.03807  0.96644  0.31381  Biso   1.000  C
  H63      1.0000 0.08297  0.83899  0.38499  Biso   1.000  H
  H64      1.0000 0.04504  0.95900  0.41100  Biso   1.000  H
  H65      1.0000 0.74105  0.20002  0.38702  Biso   1.000  H
  H66      1.0000 0.69002  0.18097  0.09998  Biso   1.000  H
  C74      1.0000 0.64711  0.72297  0.00859  Biso   1.000  C
  H67      1.0000 0.72099  0.55896  0.02002  Biso   1.000  H
  H68      1.0000 0.58895  0.55198  0.99797  Biso   1.000  H
  O19      1.0000 0.03658  0.89423  0.25839  Biso   1.000  O
  C75      1.0000 0.05661  0.08246  0.29710  Biso   1.000  C
  O20      1.0000 0.75962  0.77513  0.04151  Biso   1.000  O
  H69      1.0000 0.59103  0.76197  0.02500  Biso   1.000  H
  H70      1.0000 0.62900  0.73304  0.96098  Biso   1.000  H
  C76      1.0000 0.04873  0.96499  0.20520  Biso   1.000  C
  C77      1.0000 0.06143  0.08064  0.22912  Biso   1.000  C
  H71      1.0000 0.06499  0.15103  0.32601  Biso   1.000  H
  C78      1.0000 0.77441  0.89233  0.02428  Biso   1.000  C
  C79      1.0000 0.06111  0.89967  0.14550  Biso   1.000  C
  H72      1.0000 0.07200  0.15004  0.20398  Biso   1.000  H
  C80      1.0000 0.88051  0.93578  0.05908  Biso   1.000  C
  C81      1.0000 0.69460  0.96453  0.98196  Biso   1.000  C
  O21      1.0000 0.95496  0.85758  0.10328  Biso   1.000  O
  H73      1.0000 0.09399  0.95301  0.12000  Biso   1.000  H
  H74      1.0000 0.11000  0.83200  0.15998  Biso   1.000  H
  C82      1.0000 0.91377  0.05252  0.04831  Biso   1.000  C
  H75      1.0000 0.61995  0.93596  0.95997  Biso   1.000  H
  C83      1.0000 0.72816  0.08500  0.97246  Biso   1.000  C
  C84      1.0000 0.83337  0.12999  0.00462  Biso   1.000  C
  H76      1.0000 0.98900  0.08001  0.07001  Biso   1.000  H
  H77      1.0000 0.67501  0.13598  0.94198  Biso   1.000  H
  H78      1.0000 0.85196  0.21099  0.99700  Biso   1.000  H
  C85      1.0000 0.38689  0.31368  0.68849  Biso   1.000  C
  O22      1.0000 0.27756  0.25336  0.66588  Biso   1.000  O
  C86      1.0000 0.36222  0.43641  0.71130  Biso   1.000  C
  H79      1.0000 0.43697  0.27104  0.72502  Biso   1.000  H
  H80      1.0000 0.42002  0.32003  0.65201  Biso   1.000  H
  C87      1.0000 0.27387  0.13380  0.64871  Biso   1.000  C
  O23      1.0000 0.34370  0.42988  0.77511  Biso   1.000  O
  H81      1.0000 0.29596  0.46798  0.68000  Biso   1.000  H
  H82      1.0000 0.42497  0.48803  0.71399  Biso   1.000  H
  C88      1.0000 0.36862  0.06967  0.64988  Biso   1.000  C
  C89      1.0000 0.17093  0.07520  0.63250  Biso   1.000  C
  C90      1.0000 0.33351  0.54118  0.80468  Biso   1.000  C
  H83      1.0000 0.43999  0.10903  0.66100  Biso   1.000  H
  C91      1.0000 0.36217  0.94503  0.63489  Biso   1.000  C
  O24      1.0000 0.07951  0.14813  0.63199  Biso   1.000  O
  C92      1.0000 0.16548  0.95210  0.61772  Biso   1.000  C
  C93      1.0000 0.33431  0.53030  0.87199  Biso   1.000  C
  C94      1.0000 0.32322  0.65140  0.77338  Biso   1.000  C
  C95      1.0000 0.26313  0.88516  0.62082  Biso   1.000  C
  H84      1.0000 0.42903  0.90203  0.63499  Biso   1.000  H
  C96      1.0000 0.97117  0.09697  0.62539  Biso   1.000  C
  H85      1.0000 0.09302  0.91301  0.60502  Biso   1.000  H
  O25      1.0000 0.34511  0.44839  0.90268  Biso   1.000  O
  C97      1.0000 0.33019  0.63416  0.91248  Biso   1.000  C
  C98      1.0000 0.31543  0.75508  0.81118  Biso   1.000  C
  H86      1.0000 0.32103  0.65802  0.72700  Biso   1.000  H
  H87      1.0000 0.25897  0.79998  0.61299  Biso   1.000  H
  C99      1.0000 0.96186  0.03356  0.68620  Biso   1.000  C
  H88      1.0000 0.91702  0.16101  0.61498  Biso   1.000  H
  H89      1.0000 0.95498  0.04100  0.58901  Biso   1.000  H
  C100     1.0000 0.34686  0.40666  0.97360  Biso   1.000  C
  C101     1.0000 0.31772  0.74701  0.87671  Biso   1.000  C
  H90      1.0000 0.33497  0.62899  0.95998  Biso   1.000  H
  H91      1.0000 0.30896  0.83200  0.78999  Biso   1.000  H
  C102     1.0000 0.94341  0.91754  0.70292  Biso   1.000  C
  O26      1.0000 0.96342  0.10577  0.74158  Biso   1.000  O
  C103     1.0000 0.35288  0.27703  0.99138  Biso   1.000  C
  H92      1.0000 0.27903  0.44104  0.98000  Biso   1.000  H
  H93      1.0000 0.41104  0.44802  0.00200  Biso   1.000  H
  H94      1.0000 0.30998  0.81903  0.89998  Biso   1.000  H
  C104     1.0000 0.93859  0.91936  0.77089  Biso   1.000  C
  H95      1.0000 0.93503  0.84897  0.67401  Biso   1.000  H
  C105     1.0000 0.95129  0.03501  0.79482  Biso   1.000  C
  O27      1.0000 0.24040  0.22487  0.95851  Biso   1.000  O
  H96      1.0000 0.40899  0.23803  0.97502  Biso   1.000  H
  H97      1.0000 0.37102  0.26696  0.03903  Biso   1.000  H
  H98      1.0000 0.92799  0.84996  0.79599  Biso   1.000  H
  C106     1.0000 0.93891  0.10033  0.85451  Biso   1.000  C
  C107     1.0000 0.22559  0.10767  0.97568  Biso   1.000  C
  O28      1.0000 0.04496  0.14242  0.89668  Biso   1.000  O
  H99      1.0000 0.90603  0.04699  0.88002  Biso   1.000  H
  H100     1.0000 0.88999  0.16800  0.83998  Biso   1.000  H
  C108     1.0000 0.11949  0.06422  0.94088  Biso   1.000  C
  C109     1.0000 0.30539  0.03547  0.01800  Biso   1.000  C
  C110     1.0000 0.08617  0.94748  0.95170  Biso   1.000  C
  C111     1.0000 0.27184  0.91500  0.02750  Biso   1.000  C
  H101     1.0000 0.38005  0.06404  0.04000  Biso   1.000  H
  C112     1.0000 0.16657  0.87001  0.99539  Biso   1.000  C
  H102     1.0000 0.01102  0.91999  0.93001  Biso   1.000  H
  H103     1.0000 0.32501  0.86402  0.05803  Biso   1.000  H
  H104     1.0000 0.14806  0.78901  0.00301  Biso   1.000  H
