data_image0
_cell_length_a       9.455
_cell_length_b       16.502
_cell_length_c       28.782
_cell_angle_alpha    90
_cell_angle_beta     96.27
_cell_angle_gamma    90

_symmetry_space_group_name_H-M    "P 1"
_symmetry_int_tables_number       1

loop_
  _symmetry_equiv_pos_as_xyz
  'x, y, z'

loop_
  _atom_site_label
  _atom_site_occupancy
  _atom_site_fract_x
  _atom_site_fract_y
  _atom_site_fract_z
  _atom_site_thermal_displace_type
  _atom_site_B_iso_or_equiv
  _atom_site_type_symbol
  C1       1.0000 0.59674  0.45498  0.42220  Biso   1.000  C
  C2       1.0000 0.59740  0.38710  0.39430  Biso   1.000  C
  C3       1.0000 0.62155  0.53151  0.40521  Biso   1.000  C
  H1       1.0000 0.57916  0.44940  0.45428  Biso   1.000  H
  C4       1.0000 0.56585  0.30421  0.41328  Biso   1.000  C
  C5       1.0000 0.62424  0.39589  0.34841  Biso   1.000  C
  C6       1.0000 0.64659  0.53939  0.35932  Biso   1.000  C
  C7       1.0000 0.61756  0.60568  0.43551  Biso   1.000  C
  C8       1.0000 0.42600  0.26900  0.39060  Biso   1.000  C
  H2       1.0000 0.56023  0.30851  0.44632  Biso   1.000  H
  H3       1.0000 0.64333  0.26851  0.40871  Biso   1.000  H
  C9       1.0000 0.64655  0.47140  0.33090  Biso   1.000  C
  H4       1.0000 0.62569  0.34911  0.32859  Biso   1.000  H
  H5       1.0000 0.66411  0.59193  0.34680  Biso   1.000  H
  C10      1.0000 0.46528  0.63059  0.44289  Biso   1.000  C
  H6       1.0000 0.67234  0.59581  0.46508  Biso   1.000  H
  H7       1.0000 0.66065  0.65010  0.42069  Biso   1.000  H
  C11      1.0000 0.29640  0.31863  0.39811  Biso   1.000  C
  H8       1.0000 0.41420  0.21500  0.40189  Biso   1.000  H
  H9       1.0000 0.43163  0.26603  0.35760  Biso   1.000  H
  O1       1.0000 0.64808  0.45867  0.28141  Biso   1.000  O
  O2       1.0000 0.68987  0.50103  0.28910  Biso   1.000  O
  C12      1.0000 0.36901  0.64053  0.39829  Biso   1.000  C
  H10      1.0000 0.42663  0.58908  0.46121  Biso   1.000  H
  H11      1.0000 0.46648  0.68028  0.46019  Biso   1.000  H
  C13      1.0000 0.23265  0.36971  0.36351  Biso   1.000  C
  C14      1.0000 0.23679  0.31372  0.43960  Biso   1.000  C
  C15      1.0000 0.64446  0.53430  0.25621  Biso   1.000  C
  C16      1.0000 0.68616  0.43880  0.25502  Biso   1.000  C
  C17      1.0000 0.24546  0.59472  0.39029  Biso   1.000  C
  C18      1.0000 0.39979  0.69331  0.36330  Biso   1.000  C
  C19      1.0000 0.10815  0.41171  0.36921  Biso   1.000  C
  H12      1.0000 0.27552  0.37589  0.33499  Biso   1.000  H
  C20      1.0000 0.11253  0.35468  0.44600  Biso   1.000  C
  H13      1.0000 0.28254  0.28130  0.46460  Biso   1.000  H
  H14      1.0000 0.64945  0.52472  0.22349  Biso   1.000  H
  H15      1.0000 0.55595  0.56030  0.26040  Biso   1.000  H
  H16      1.0000 0.72206  0.56848  0.26819  Biso   1.000  H
  H17      1.0000 0.71830  0.46243  0.22761  Biso   1.000  H
  H18      1.0000 0.74822  0.39498  0.26578  Biso   1.000  H
  C21      1.0000 0.15538  0.60132  0.34998  Biso   1.000  C
  H19      1.0000 0.22404  0.55721  0.41398  Biso   1.000  H
  C22      1.0000 0.31286  0.69822  0.32199  Biso   1.000  C
  H20      1.0000 0.48292  0.72700  0.36809  Biso   1.000  H
  C23      1.0000 0.03617  0.46267  0.33052  Biso   1.000  C
  C24      1.0000 0.04784  0.40353  0.41080  Biso   1.000  C
  O3       1.0000 0.06119  0.34250  0.48819  Biso   1.000  O
  C25      1.0000 0.01925  0.55339  0.34229  Biso   1.000  C
  C26      1.0000 0.18990  0.65319  0.31510  Biso   1.000  C
  O4       1.0000 0.34279  0.73597  0.28092  Biso   1.000  O
  O5       1.0000 0.38113  0.76760  0.30081  Biso   1.000  O
  H21      1.0000 0.09368  0.46079  0.30500  Biso   1.000  H
  H22      1.0000 0.94524  0.43970  0.31979  Biso   1.000  H
  H23      1.0000 0.96162  0.43171  0.41521  Biso   1.000  H
  C27      1.0000 0.92745  0.37420  0.49469  Biso   1.000  C
  H24      1.0000 0.97408  0.55508  0.37061  Biso   1.000  H
  H25      1.0000 0.95709  0.57932  0.31821  Biso   1.000  H
  H26      1.0000 0.12920  0.65792  0.28620  Biso   1.000  H
  C28      1.0000 0.27763  0.72343  0.23541  Biso   1.000  C
  C29      1.0000 0.31343  0.77621  0.25561  Biso   1.000  C
  H27      1.0000 0.32287  0.72870  0.23691  Biso   1.000  H
  H28      1.0000 0.90514  0.36141  0.52559  Biso   1.000  H
  H29      1.0000 0.92573  0.43189  0.49050  Biso   1.000  H
  H30      1.0000 0.85828  0.34959  0.47211  Biso   1.000  H
  H31      1.0000 0.31480  0.76009  0.21391  Biso   1.000  H
  H32      1.0000 0.29898  0.66871  0.22709  Biso   1.000  H
  H33      1.0000 0.17644  0.73009  0.23391  Biso   1.000  H
  H34      1.0000 0.35675  0.82148  0.24180  Biso   1.000  H
  H35      1.0000 0.21441  0.78730  0.25711  Biso   1.000  H
  C30      1.0000 0.40331  0.54502  0.57781  Biso   1.000  C
  C31      1.0000 0.37850  0.46849  0.59480  Biso   1.000  C
  C32      1.0000 0.40264  0.61290  0.60570  Biso   1.000  C
  H36      1.0000 0.42076  0.55060  0.54569  Biso   1.000  H
  C33      1.0000 0.38249  0.39432  0.56449  Biso   1.000  C
  C34      1.0000 0.35335  0.46061  0.64069  Biso   1.000  C
  C35      1.0000 0.37580  0.60411  0.65159  Biso   1.000  C
  C36      1.0000 0.43408  0.69579  0.58669  Biso   1.000  C
  C37      1.0000 0.53466  0.36941  0.55712  Biso   1.000  C
  H37      1.0000 0.32770  0.40419  0.53489  Biso   1.000  H
  H38      1.0000 0.33940  0.34990  0.57931  Biso   1.000  H
  C38      1.0000 0.35339  0.52860  0.66911  Biso   1.000  C
  H39      1.0000 0.33594  0.40807  0.65320  Biso   1.000  H
  H40      1.0000 0.37435  0.65089  0.67141  Biso   1.000  H
  C39      1.0000 0.57405  0.73100  0.60941  Biso   1.000  C
  H41      1.0000 0.43982  0.69149  0.55369  Biso   1.000  H
  H42      1.0000 0.35671  0.73149  0.59130  Biso   1.000  H
  C40      1.0000 0.63103  0.35947  0.60172  Biso   1.000  C
  H43      1.0000 0.57342  0.41092  0.53880  Biso   1.000  H
  H44      1.0000 0.53346  0.31972  0.53981  Biso   1.000  H
  O6       1.0000 0.35186  0.54133  0.71860  Biso   1.000  O
  O7       1.0000 0.31007  0.49897  0.71091  Biso   1.000  O
  C41      1.0000 0.70365  0.68137  0.60189  Biso   1.000  C
  H45      1.0000 0.58584  0.78500  0.59812  Biso   1.000  H
  H46      1.0000 0.56841  0.73397  0.64240  Biso   1.000  H
  C42      1.0000 0.60015  0.30669  0.63670  Biso   1.000  C
  C43      1.0000 0.75447  0.40528  0.60969  Biso   1.000  C
  C44      1.0000 0.35548  0.46570  0.74380  Biso   1.000  C
  C45      1.0000 0.31378  0.56120  0.74499  Biso   1.000  C
  C46      1.0000 0.76740  0.63029  0.63649  Biso   1.000  C
  C47      1.0000 0.76315  0.68628  0.56040  Biso   1.000  C
  C48      1.0000 0.68706  0.30178  0.67798  Biso   1.000  C
  H47      1.0000 0.51712  0.27300  0.63192  Biso   1.000  H
  C49      1.0000 0.84454  0.39868  0.64999  Biso   1.000  C
  H48      1.0000 0.77599  0.44279  0.58599  Biso   1.000  H
  H49      1.0000 0.35060  0.47528  0.77652  Biso   1.000  H
  H50      1.0000 0.44398  0.43970  0.73961  Biso   1.000  H
  H51      1.0000 0.27788  0.43152  0.73181  Biso   1.000  H
  H52      1.0000 0.28175  0.53757  0.77239  Biso   1.000  H
  H53      1.0000 0.25181  0.60502  0.73419  Biso   1.000  H
  C50      1.0000 0.89179  0.58829  0.63080  Biso   1.000  C
  H54      1.0000 0.72453  0.62411  0.66502  Biso   1.000  H
  C51      1.0000 0.88752  0.64532  0.55401  Biso   1.000  C
  H55      1.0000 0.71750  0.71870  0.53541  Biso   1.000  H
  C52      1.0000 0.81015  0.34681  0.68490  Biso   1.000  C
  O8       1.0000 0.65715  0.26403  0.71909  Biso   1.000  O
  O9       1.0000 0.61892  0.23240  0.69920  Biso   1.000  O
  C53      1.0000 0.98069  0.44661  0.65771  Biso   1.000  C
  C54      1.0000 0.96377  0.53733  0.66949  Biso   1.000  C
  C55      1.0000 0.95220  0.59647  0.58920  Biso   1.000  C
  O10      1.0000 0.93885  0.65750  0.51182  Biso   1.000  O
  H56      1.0000 0.87084  0.34208  0.71381  Biso   1.000  H
  C56      1.0000 0.72241  0.27657  0.76460  Biso   1.000  C
  C57      1.0000 0.68661  0.22379  0.74439  Biso   1.000  C
  H57      1.0000 0.67707  0.27130  0.76309  Biso   1.000  H
  H58      1.0000 0.02585  0.44492  0.62940  Biso   1.000  H
  H59      1.0000 0.04285  0.42068  0.68179  Biso   1.000  H
  H60      1.0000 0.90626  0.53921  0.69501  Biso   1.000  H
  H61      1.0000 0.05480  0.56030  0.68019  Biso   1.000  H
  H62      1.0000 0.03842  0.56829  0.58480  Biso   1.000  H
  C58      1.0000 0.07260  0.62580  0.50532  Biso   1.000  C
  H63      1.0000 0.68525  0.23991  0.78609  Biso   1.000  H
  H64      1.0000 0.70096  0.33129  0.77292  Biso   1.000  H
  H65      1.0000 0.82360  0.26991  0.76610  Biso   1.000  H
  H66      1.0000 0.64319  0.17852  0.75820  Biso   1.000  H
  H67      1.0000 0.78564  0.21270  0.74289  Biso   1.000  H
  H68      1.0000 0.09479  0.63859  0.47442  Biso   1.000  H
  H69      1.0000 0.07431  0.56811  0.50951  Biso   1.000  H
  H70      1.0000 0.14166  0.65041  0.52790  Biso   1.000  H
  C59      1.0000 0.64453  0.46570  0.75621  Biso   1.000  C
  O11      1.0000 0.64815  0.54133  0.78141  Biso   1.000  O
  O12      1.0000 0.68995  0.49897  0.78910  Biso   1.000  O
  C60      1.0000 0.68622  0.56120  0.75499  Biso   1.000  C
  H71      1.0000 0.64942  0.47528  0.72349  Biso   1.000  H
  H72      1.0000 0.55603  0.43970  0.76040  Biso   1.000  H
  H73      1.0000 0.72213  0.43152  0.76820  Biso   1.000  H
  C61      1.0000 0.64663  0.52860  0.83090  Biso   1.000  C
  H74      1.0000 0.71826  0.53757  0.72762  Biso   1.000  H
  H75      1.0000 0.74819  0.60502  0.76579  Biso   1.000  H
  C62      1.0000 0.64654  0.46061  0.85928  Biso   1.000  C
  C63      1.0000 0.62421  0.60411  0.84841  Biso   1.000  C
  C64      1.0000 0.62152  0.46849  0.90521  Biso   1.000  C
  H76      1.0000 0.66408  0.40807  0.84681  Biso   1.000  H
  C65      1.0000 0.59737  0.61290  0.89431  Biso   1.000  C
  H77      1.0000 0.62566  0.65089  0.82860  Biso   1.000  H
  C66      1.0000 0.61751  0.39432  0.93548  Biso   1.000  C
  C67      1.0000 0.59670  0.54502  0.92220  Biso   1.000  C
  C68      1.0000 0.56593  0.69579  0.91329  Biso   1.000  C
  C69      1.0000 0.46535  0.36941  0.94289  Biso   1.000  C
  H78      1.0000 0.67231  0.40419  0.96509  Biso   1.000  H
  H79      1.0000 0.66061  0.34990  0.92070  Biso   1.000  H
  H80      1.0000 0.57924  0.55060  0.95429  Biso   1.000  H
  C70      1.0000 0.42597  0.73100  0.89060  Biso   1.000  C
  H81      1.0000 0.56018  0.69149  0.94628  Biso   1.000  H
  H82      1.0000 0.64330  0.73149  0.90871  Biso   1.000  H
  C71      1.0000 0.36898  0.35947  0.89829  Biso   1.000  C
  H83      1.0000 0.42659  0.41092  0.96121  Biso   1.000  H
  H84      1.0000 0.46645  0.31972  0.96019  Biso   1.000  H
  C72      1.0000 0.29635  0.68137  0.89808  Biso   1.000  C
  H85      1.0000 0.41417  0.78500  0.90189  Biso   1.000  H
  H86      1.0000 0.43160  0.73397  0.85761  Biso   1.000  H
  C73      1.0000 0.39976  0.30669  0.86330  Biso   1.000  C
  C74      1.0000 0.24553  0.40528  0.89029  Biso   1.000  C
  C75      1.0000 0.23261  0.63029  0.86351  Biso   1.000  C
  C76      1.0000 0.23676  0.68628  0.93961  Biso   1.000  C
  C77      1.0000 0.31294  0.30178  0.82199  Biso   1.000  C
  H87      1.0000 0.48289  0.27300  0.86809  Biso   1.000  H
  C78      1.0000 0.15535  0.39868  0.84999  Biso   1.000  C
  H88      1.0000 0.22401  0.44279  0.91399  Biso   1.000  H
  C79      1.0000 0.10823  0.58829  0.86921  Biso   1.000  C
  H89      1.0000 0.27548  0.62411  0.83499  Biso   1.000  H
  C80      1.0000 0.11250  0.64532  0.94600  Biso   1.000  C
  H90      1.0000 0.28251  0.71870  0.96460  Biso   1.000  H
  O13      1.0000 0.34274  0.26403  0.78089  Biso   1.000  O
  O14      1.0000 0.38110  0.23240  0.80081  Biso   1.000  O
  C81      1.0000 0.18987  0.34681  0.81510  Biso   1.000  C
  C82      1.0000 0.01932  0.44661  0.84230  Biso   1.000  C
  C83      1.0000 0.03623  0.53733  0.83048  Biso   1.000  C
  C84      1.0000 0.04781  0.59647  0.91081  Biso   1.000  C
  O15      1.0000 0.06116  0.65750  0.98819  Biso   1.000  O
  C85      1.0000 0.27760  0.27657  0.73541  Biso   1.000  C
  C86      1.0000 0.31340  0.22379  0.75561  Biso   1.000  C
  H91      1.0000 0.32294  0.27130  0.73691  Biso   1.000  H
  H92      1.0000 0.12917  0.34208  0.78620  Biso   1.000  H
  H93      1.0000 0.97405  0.44492  0.87061  Biso   1.000  H
  H94      1.0000 0.95706  0.42068  0.81822  Biso   1.000  H
  H95      1.0000 0.09375  0.53921  0.80500  Biso   1.000  H
  H96      1.0000 0.94521  0.56030  0.81979  Biso   1.000  H
  H97      1.0000 0.96159  0.56829  0.91521  Biso   1.000  H
  C87      1.0000 0.92742  0.62580  0.99469  Biso   1.000  C
  H98      1.0000 0.31477  0.23991  0.71392  Biso   1.000  H
  H99      1.0000 0.29895  0.33129  0.72709  Biso   1.000  H
  H100     1.0000 0.17641  0.26991  0.73391  Biso   1.000  H
  H101     1.0000 0.35683  0.17852  0.74181  Biso   1.000  H
  H102     1.0000 0.21438  0.21270  0.75712  Biso   1.000  H
  H103     1.0000 0.92570  0.56811  0.99050  Biso   1.000  H
  H104     1.0000 0.85835  0.65041  0.97211  Biso   1.000  H
  H105     1.0000 0.90522  0.63859  0.02559  Biso   1.000  H
  C88      1.0000 0.35551  0.53430  0.24380  Biso   1.000  C
  C89      1.0000 0.31381  0.43880  0.24499  Biso   1.000  C
  O16      1.0000 0.31010  0.50103  0.21091  Biso   1.000  O
  O17      1.0000 0.35189  0.45867  0.21860  Biso   1.000  O
  H106     1.0000 0.35063  0.52472  0.27651  Biso   1.000  H
  H107     1.0000 0.44402  0.56030  0.23960  Biso   1.000  H
  H108     1.0000 0.27791  0.56848  0.23181  Biso   1.000  H
  H109     1.0000 0.28167  0.46243  0.27239  Biso   1.000  H
  H110     1.0000 0.25184  0.39498  0.23419  Biso   1.000  H
  C90      1.0000 0.35342  0.47140  0.16910  Biso   1.000  C
  C91      1.0000 0.35338  0.53939  0.14069  Biso   1.000  C
  C92      1.0000 0.37583  0.39589  0.15159  Biso   1.000  C
  C93      1.0000 0.37853  0.53151  0.09479  Biso   1.000  C
  H111     1.0000 0.33586  0.59193  0.15320  Biso   1.000  H
  C94      1.0000 0.40256  0.38710  0.10570  Biso   1.000  C
  H112     1.0000 0.37428  0.34911  0.17141  Biso   1.000  H
  C95      1.0000 0.38252  0.60568  0.06449  Biso   1.000  C
  C96      1.0000 0.40334  0.45498  0.07781  Biso   1.000  C
  C97      1.0000 0.43411  0.30421  0.08668  Biso   1.000  C
  C98      1.0000 0.53469  0.63059  0.05711  Biso   1.000  C
  H113     1.0000 0.32773  0.59581  0.03488  Biso   1.000  H
  H114     1.0000 0.33943  0.65010  0.07931  Biso   1.000  H
  H115     1.0000 0.42079  0.44940  0.04568  Biso   1.000  H
  C99      1.0000 0.57397  0.26900  0.10940  Biso   1.000  C
  H116     1.0000 0.43985  0.30851  0.05369  Biso   1.000  H
  H117     1.0000 0.35674  0.26851  0.09130  Biso   1.000  H
  C100     1.0000 0.63096  0.64053  0.10171  Biso   1.000  C
  H118     1.0000 0.57345  0.58908  0.03880  Biso   1.000  H
  H119     1.0000 0.53349  0.68028  0.03981  Biso   1.000  H
  C101     1.0000 0.70357  0.31863  0.10189  Biso   1.000  C
  H120     1.0000 0.58577  0.21500  0.09811  Biso   1.000  H
  H121     1.0000 0.56844  0.26603  0.14240  Biso   1.000  H
  C102     1.0000 0.60018  0.69331  0.13670  Biso   1.000  C
  C103     1.0000 0.75450  0.59472  0.10968  Biso   1.000  C
  C104     1.0000 0.76318  0.31372  0.06040  Biso   1.000  C
  C105     1.0000 0.76743  0.36971  0.13649  Biso   1.000  C
  C106     1.0000 0.68710  0.69822  0.17802  Biso   1.000  C
  H122     1.0000 0.51715  0.72700  0.13191  Biso   1.000  H
  C107     1.0000 0.84458  0.60132  0.14998  Biso   1.000  C
  H123     1.0000 0.77602  0.55721  0.08598  Biso   1.000  H
  C108     1.0000 0.88755  0.35468  0.05400  Biso   1.000  C
  H124     1.0000 0.71754  0.28130  0.03541  Biso   1.000  H
  C109     1.0000 0.89182  0.41171  0.13079  Biso   1.000  C
  H125     1.0000 0.72445  0.37589  0.16501  Biso   1.000  H
  C110     1.0000 0.81007  0.65319  0.18490  Biso   1.000  C
  O18      1.0000 0.65718  0.73597  0.21909  Biso   1.000  O
  O19      1.0000 0.61895  0.76760  0.19920  Biso   1.000  O
  C111     1.0000 0.98072  0.55339  0.15771  Biso   1.000  C
  C112     1.0000 0.95224  0.40353  0.08920  Biso   1.000  C
  O20      1.0000 0.93878  0.34250  0.01181  Biso   1.000  O
  C113     1.0000 0.96380  0.46267  0.16949  Biso   1.000  C
  H126     1.0000 0.87076  0.65792  0.21381  Biso   1.000  H
  C114     1.0000 0.72245  0.72343  0.26459  Biso   1.000  C
  C115     1.0000 0.68664  0.77621  0.24439  Biso   1.000  C
  H127     1.0000 0.67710  0.72870  0.26309  Biso   1.000  H
  H128     1.0000 0.02589  0.55508  0.12940  Biso   1.000  H
  H129     1.0000 0.04288  0.57932  0.18179  Biso   1.000  H
  H130     1.0000 0.03845  0.43171  0.08480  Biso   1.000  H
  C116     1.0000 0.07263  0.37420  0.00531  Biso   1.000  C
  H131     1.0000 0.90629  0.46079  0.19500  Biso   1.000  H
  H132     1.0000 0.05483  0.43970  0.18018  Biso   1.000  H
  H133     1.0000 0.68517  0.76009  0.28609  Biso   1.000  H
  H134     1.0000 0.70099  0.66871  0.27291  Biso   1.000  H
  H135     1.0000 0.82363  0.73009  0.26610  Biso   1.000  H
  H136     1.0000 0.64322  0.82148  0.25820  Biso   1.000  H
  H137     1.0000 0.78556  0.78730  0.24289  Biso   1.000  H
  H138     1.0000 0.09471  0.36141  0.97438  Biso   1.000  H
  H139     1.0000 0.07434  0.43189  0.00951  Biso   1.000  H
  H140     1.0000 0.14169  0.34959  0.02789  Biso   1.000  H
  C117     1.0000 0.86896  0.14053  0.39829  Biso   1.000  C
  C118     1.0000 0.74551  0.09472  0.39029  Biso   1.000  C
  C119     1.0000 0.89984  0.19331  0.36330  Biso   1.000  C
  C120     1.0000 0.96533  0.13059  0.44289  Biso   1.000  C
  C121     1.0000 0.65544  0.10132  0.34998  Biso   1.000  C
  H141     1.0000 0.72399  0.05721  0.41398  Biso   1.000  H
  C122     1.0000 0.81292  0.19822  0.32199  Biso   1.000  C
  H142     1.0000 0.98287  0.22700  0.36809  Biso   1.000  H
  H143     1.0000 0.92657  0.08908  0.46121  Biso   1.000  H
  H144     1.0000 0.96653  0.18028  0.46019  Biso   1.000  H
  C123     1.0000 0.11750  0.10568  0.43551  Biso   1.000  C
  C124     1.0000 0.68995  0.15319  0.31510  Biso   1.000  C
  C125     1.0000 0.51930  0.05339  0.34229  Biso   1.000  C
  O21      1.0000 0.84284  0.23597  0.28092  Biso   1.000  O
  O22      1.0000 0.88107  0.26760  0.30081  Biso   1.000  O
  C126     1.0000 0.12150  0.03151  0.40521  Biso   1.000  C
  H145     1.0000 0.17228  0.09581  0.46508  Biso   1.000  H
  H146     1.0000 0.16059  0.15010  0.42069  Biso   1.000  H
  H147     1.0000 0.62915  0.15792  0.28620  Biso   1.000  H
  H148     1.0000 0.47414  0.05508  0.37061  Biso   1.000  H
  H149     1.0000 0.45714  0.07932  0.31821  Biso   1.000  H
  C127     1.0000 0.53622  0.96267  0.33052  Biso   1.000  C
  C128     1.0000 0.77758  0.22343  0.23541  Biso   1.000  C
  C129     1.0000 0.81338  0.27621  0.25561  Biso   1.000  C
  H150     1.0000 0.82292  0.22870  0.23691  Biso   1.000  H
  C130     1.0000 0.09668  0.95498  0.42220  Biso   1.000  C
  C131     1.0000 0.14664  0.03939  0.35932  Biso   1.000  C
  C132     1.0000 0.60820  0.91171  0.36921  Biso   1.000  C
  H151     1.0000 0.59373  0.96079  0.30500  Biso   1.000  H
  H152     1.0000 0.44518  0.93970  0.31979  Biso   1.000  H
  H153     1.0000 0.81485  0.26009  0.21391  Biso   1.000  H
  H154     1.0000 0.79903  0.16871  0.22709  Biso   1.000  H
  H155     1.0000 0.67639  0.23009  0.23391  Biso   1.000  H
  H156     1.0000 0.85680  0.32148  0.24180  Biso   1.000  H
  H157     1.0000 0.71435  0.28730  0.25711  Biso   1.000  H
  C133     1.0000 0.09735  0.88710  0.39430  Biso   1.000  C
  H158     1.0000 0.07922  0.94940  0.45428  Biso   1.000  H
  C134     1.0000 0.14660  0.97140  0.33090  Biso   1.000  C
  H159     1.0000 0.16406  0.09193  0.34680  Biso   1.000  H
  C135     1.0000 0.54779  0.90353  0.41080  Biso   1.000  C
  C136     1.0000 0.73259  0.86971  0.36351  Biso   1.000  C
  C137     1.0000 0.06590  0.80421  0.41328  Biso   1.000  C
  C138     1.0000 0.12419  0.89589  0.34841  Biso   1.000  C
  O23      1.0000 0.14813  0.95867  0.28141  Biso   1.000  O
  O24      1.0000 0.18993  0.00103  0.28910  Biso   1.000  O
  C139     1.0000 0.61248  0.85468  0.44600  Biso   1.000  C
  H160     1.0000 0.46157  0.93171  0.41521  Biso   1.000  H
  C140     1.0000 0.79645  0.81863  0.39811  Biso   1.000  C
  H161     1.0000 0.77546  0.87589  0.33499  Biso   1.000  H
  C141     1.0000 0.92605  0.76900  0.39060  Biso   1.000  C
  H162     1.0000 0.06017  0.80851  0.44632  Biso   1.000  H
  H163     1.0000 0.14328  0.76851  0.40871  Biso   1.000  H
  H164     1.0000 0.12574  0.84911  0.32859  Biso   1.000  H
  C142     1.0000 0.14451  0.03430  0.25621  Biso   1.000  C
  C143     1.0000 0.18621  0.93880  0.25502  Biso   1.000  C
  C144     1.0000 0.73684  0.81372  0.43960  Biso   1.000  C
  O25      1.0000 0.56124  0.84250  0.48819  Biso   1.000  O
  H165     1.0000 0.91415  0.71500  0.40189  Biso   1.000  H
  H166     1.0000 0.93158  0.76603  0.35760  Biso   1.000  H
  H167     1.0000 0.14939  0.02472  0.22349  Biso   1.000  H
  H168     1.0000 0.05601  0.06030  0.26040  Biso   1.000  H
  H169     1.0000 0.22211  0.06848  0.26819  Biso   1.000  H
  H170     1.0000 0.21835  0.96243  0.22761  Biso   1.000  H
  H171     1.0000 0.24817  0.89498  0.26578  Biso   1.000  H
  H172     1.0000 0.78249  0.78130  0.46460  Biso   1.000  H
  C145     1.0000 0.42739  0.87420  0.49469  Biso   1.000  C
  H173     1.0000 0.40520  0.86141  0.52559  Biso   1.000  H
  H174     1.0000 0.42568  0.93189  0.49050  Biso   1.000  H
  H175     1.0000 0.35833  0.84959  0.47211  Biso   1.000  H
  C146     1.0000 0.13098  0.85947  0.60172  Biso   1.000  C
  C147     1.0000 0.03472  0.86941  0.55712  Biso   1.000  C
  C148     1.0000 0.10020  0.80669  0.63670  Biso   1.000  C
  C149     1.0000 0.25452  0.90528  0.60969  Biso   1.000  C
  H176     1.0000 0.07336  0.91092  0.53880  Biso   1.000  H
  H177     1.0000 0.03351  0.81972  0.53981  Biso   1.000  H
  C150     1.0000 0.88254  0.89432  0.56449  Biso   1.000  C
  C151     1.0000 0.18711  0.80178  0.67798  Biso   1.000  C
  H178     1.0000 0.01707  0.77300  0.63192  Biso   1.000  H
  C152     1.0000 0.34460  0.89868  0.64999  Biso   1.000  C
  H179     1.0000 0.27604  0.94279  0.58599  Biso   1.000  H
  C153     1.0000 0.87855  0.96849  0.59480  Biso   1.000  C
  H180     1.0000 0.82775  0.90419  0.53489  Biso   1.000  H
  H181     1.0000 0.83945  0.84990  0.57931  Biso   1.000  H
  C154     1.0000 0.31009  0.84681  0.68490  Biso   1.000  C
  O26      1.0000 0.15721  0.76403  0.71909  Biso   1.000  O
  O27      1.0000 0.11886  0.73240  0.69920  Biso   1.000  O
  C155     1.0000 0.48075  0.94661  0.65771  Biso   1.000  C
  C156     1.0000 0.85340  0.96061  0.64069  Biso   1.000  C
  C157     1.0000 0.90326  0.04502  0.57781  Biso   1.000  C
  H182     1.0000 0.37079  0.84208  0.71381  Biso   1.000  H
  C158     1.0000 0.22236  0.77657  0.76460  Biso   1.000  C
  C159     1.0000 0.18656  0.72379  0.74439  Biso   1.000  C
  H183     1.0000 0.17712  0.77130  0.76309  Biso   1.000  H
  H184     1.0000 0.52591  0.94492  0.62940  Biso   1.000  H
  H185     1.0000 0.54290  0.92068  0.68179  Biso   1.000  H
  C160     1.0000 0.46383  0.03733  0.66949  Biso   1.000  C
  H186     1.0000 0.83588  0.90807  0.65320  Biso   1.000  H
  C161     1.0000 0.85344  0.02860  0.66911  Biso   1.000  C
  C162     1.0000 0.90259  0.11290  0.60570  Biso   1.000  C
  H187     1.0000 0.92082  0.05060  0.54569  Biso   1.000  H
  H188     1.0000 0.18519  0.73991  0.78609  Biso   1.000  H
  H189     1.0000 0.20101  0.83129  0.77292  Biso   1.000  H
  H190     1.0000 0.32355  0.76991  0.76610  Biso   1.000  H
  H191     1.0000 0.14324  0.67852  0.75820  Biso   1.000  H
  H192     1.0000 0.28558  0.71270  0.74289  Biso   1.000  H
  C163     1.0000 0.39184  0.08829  0.63080  Biso   1.000  C
  H193     1.0000 0.40631  0.03921  0.69501  Biso   1.000  H
  H194     1.0000 0.55474  0.06030  0.68019  Biso   1.000  H
  O28      1.0000 0.81012  0.99897  0.71091  Biso   1.000  O
  C164     1.0000 0.87575  0.10411  0.65159  Biso   1.000  C
  O29      1.0000 0.85191  0.04133  0.71860  Biso   1.000  O
  C165     1.0000 0.93413  0.19579  0.58669  Biso   1.000  C
  C166     1.0000 0.45215  0.09647  0.58920  Biso   1.000  C
  C167     1.0000 0.26735  0.13029  0.63649  Biso   1.000  C
  C168     1.0000 0.85553  0.96570  0.74380  Biso   1.000  C
  C169     1.0000 0.81383  0.06120  0.74499  Biso   1.000  C
  H195     1.0000 0.87430  0.15089  0.67141  Biso   1.000  H
  H196     1.0000 0.93976  0.19149  0.55369  Biso   1.000  H
  H197     1.0000 0.85666  0.23149  0.59130  Biso   1.000  H
  C170     1.0000 0.07399  0.23100  0.60941  Biso   1.000  C
  C171     1.0000 0.38746  0.14532  0.55401  Biso   1.000  C
  H198     1.0000 0.53837  0.06829  0.58480  Biso   1.000  H
  C172     1.0000 0.20359  0.18137  0.60189  Biso   1.000  C
  H199     1.0000 0.22447  0.12411  0.66502  Biso   1.000  H
  H200     1.0000 0.85065  0.97528  0.77652  Biso   1.000  H
  H201     1.0000 0.94404  0.93970  0.73961  Biso   1.000  H
  H202     1.0000 0.77793  0.93152  0.73181  Biso   1.000  H
  H203     1.0000 0.78170  0.03757  0.77239  Biso   1.000  H
  H204     1.0000 0.75175  0.10502  0.73419  Biso   1.000  H
  H205     1.0000 0.08579  0.28500  0.59812  Biso   1.000  H
  H206     1.0000 0.06836  0.23397  0.64240  Biso   1.000  H
  C173     1.0000 0.26320  0.18628  0.56040  Biso   1.000  C
  O30      1.0000 0.43880  0.15750  0.51182  Biso   1.000  O
  H207     1.0000 0.21745  0.21870  0.53541  Biso   1.000  H
  C174     1.0000 0.57265  0.12580  0.50532  Biso   1.000  C
  H208     1.0000 0.59485  0.13859  0.47442  Biso   1.000  H
  H209     1.0000 0.57426  0.06811  0.50951  Biso   1.000  H
  H210     1.0000 0.64171  0.15041  0.52790  Biso   1.000  H
  C175     1.0000 0.77765  0.77657  0.73541  Biso   1.000  C
  O31      1.0000 0.84280  0.76403  0.78089  Biso   1.000  O
  H211     1.0000 0.81482  0.73991  0.71392  Biso   1.000  H
  H212     1.0000 0.79900  0.83129  0.72709  Biso   1.000  H
  H213     1.0000 0.67636  0.76991  0.73391  Biso   1.000  H
  C176     1.0000 0.81345  0.72379  0.75561  Biso   1.000  C
  C177     1.0000 0.81289  0.80178  0.82199  Biso   1.000  C
  H214     1.0000 0.82289  0.77130  0.73691  Biso   1.000  H
  O32      1.0000 0.88115  0.73240  0.80081  Biso   1.000  O
  H215     1.0000 0.85677  0.67852  0.74181  Biso   1.000  H
  H216     1.0000 0.71443  0.71270  0.75712  Biso   1.000  H
  C178     1.0000 0.68992  0.84681  0.81510  Biso   1.000  C
  C179     1.0000 0.89981  0.80669  0.86330  Biso   1.000  C
  C180     1.0000 0.65540  0.89868  0.84999  Biso   1.000  C
  H217     1.0000 0.62923  0.84208  0.78620  Biso   1.000  H
  C181     1.0000 0.86903  0.85947  0.89829  Biso   1.000  C
  H218     1.0000 0.98295  0.77300  0.86809  Biso   1.000  H
  C182     1.0000 0.51927  0.94661  0.84230  Biso   1.000  C
  C183     1.0000 0.74548  0.90528  0.89029  Biso   1.000  C
  C184     1.0000 0.96530  0.86941  0.94289  Biso   1.000  C
  H219     1.0000 0.47411  0.94492  0.87061  Biso   1.000  H
  H220     1.0000 0.45711  0.92068  0.81822  Biso   1.000  H
  C185     1.0000 0.53618  0.03733  0.83048  Biso   1.000  C
  H221     1.0000 0.72396  0.94279  0.91399  Biso   1.000  H
  H222     1.0000 0.92665  0.91092  0.96121  Biso   1.000  H
  H223     1.0000 0.96650  0.81972  0.96019  Biso   1.000  H
  C186     1.0000 0.11746  0.89432  0.93548  Biso   1.000  C
  C187     1.0000 0.60817  0.08829  0.86921  Biso   1.000  C
  H224     1.0000 0.59370  0.03921  0.80500  Biso   1.000  H
  H225     1.0000 0.44515  0.06030  0.81979  Biso   1.000  H
  C188     1.0000 0.12146  0.96849  0.90521  Biso   1.000  C
  H226     1.0000 0.17225  0.90419  0.96509  Biso   1.000  H
  H227     1.0000 0.16056  0.84990  0.92070  Biso   1.000  H
  C189     1.0000 0.54775  0.09647  0.91081  Biso   1.000  C
  C190     1.0000 0.73256  0.13029  0.86351  Biso   1.000  C
  C191     1.0000 0.14660  0.96061  0.85928  Biso   1.000  C
  C192     1.0000 0.09665  0.04502  0.92220  Biso   1.000  C
  C193     1.0000 0.61255  0.14532  0.94600  Biso   1.000  C
  H228     1.0000 0.46165  0.06829  0.91521  Biso   1.000  H
  C194     1.0000 0.79641  0.18137  0.89808  Biso   1.000  C
  H229     1.0000 0.77554  0.12411  0.83499  Biso   1.000  H
  H230     1.0000 0.16413  0.90807  0.84681  Biso   1.000  H
  C195     1.0000 0.14657  0.02860  0.83090  Biso   1.000  C
  C196     1.0000 0.09743  0.11290  0.89431  Biso   1.000  C
  H231     1.0000 0.07919  0.05060  0.95429  Biso   1.000  H
  C197     1.0000 0.73681  0.18628  0.93961  Biso   1.000  C
  O33      1.0000 0.56121  0.15750  0.98819  Biso   1.000  O
  C198     1.0000 0.92602  0.23100  0.89060  Biso   1.000  C
  O34      1.0000 0.18989  0.99897  0.78910  Biso   1.000  O
  C199     1.0000 0.12416  0.10411  0.84841  Biso   1.000  C
  O35      1.0000 0.14810  0.04133  0.78141  Biso   1.000  O
  C200     1.0000 0.06587  0.19579  0.91329  Biso   1.000  C
  H232     1.0000 0.78246  0.21870  0.96460  Biso   1.000  H
  C201     1.0000 0.42736  0.12580  0.99469  Biso   1.000  C
  H233     1.0000 0.91423  0.28500  0.90189  Biso   1.000  H
  H234     1.0000 0.93165  0.23397  0.85761  Biso   1.000  H
  C202     1.0000 0.14448  0.96570  0.75621  Biso   1.000  C
  C203     1.0000 0.18617  0.06120  0.75499  Biso   1.000  C
  H235     1.0000 0.12571  0.15089  0.82860  Biso   1.000  H
  H236     1.0000 0.06024  0.19149  0.94628  Biso   1.000  H
  H237     1.0000 0.14336  0.23149  0.90871  Biso   1.000  H
  H238     1.0000 0.42565  0.06811  0.99050  Biso   1.000  H
  H239     1.0000 0.35830  0.15041  0.97211  Biso   1.000  H
  H240     1.0000 0.40527  0.13859  0.02559  Biso   1.000  H
  H241     1.0000 0.14936  0.97528  0.72349  Biso   1.000  H
  H242     1.0000 0.05598  0.93970  0.76040  Biso   1.000  H
  H243     1.0000 0.22208  0.93152  0.76820  Biso   1.000  H
  H244     1.0000 0.21832  0.03757  0.72762  Biso   1.000  H
  H245     1.0000 0.24825  0.10502  0.76579  Biso   1.000  H
  C204     1.0000 0.22239  0.22343  0.26459  Biso   1.000  C
  O36      1.0000 0.15724  0.23597  0.21909  Biso   1.000  O
  H246     1.0000 0.18522  0.26009  0.28609  Biso   1.000  H
  H247     1.0000 0.20104  0.16871  0.27291  Biso   1.000  H
  H248     1.0000 0.32358  0.23009  0.26610  Biso   1.000  H
  C205     1.0000 0.18659  0.27621  0.24439  Biso   1.000  C
  C206     1.0000 0.18716  0.19822  0.17802  Biso   1.000  C
  H249     1.0000 0.17705  0.22870  0.26309  Biso   1.000  H
  O37      1.0000 0.11890  0.26760  0.19920  Biso   1.000  O
  H250     1.0000 0.14316  0.32148  0.25820  Biso   1.000  H
  H251     1.0000 0.28562  0.28730  0.24289  Biso   1.000  H
  C207     1.0000 0.31012  0.15319  0.18490  Biso   1.000  C
  C208     1.0000 0.10023  0.19331  0.13670  Biso   1.000  C
  C209     1.0000 0.34463  0.10132  0.14998  Biso   1.000  C
  H252     1.0000 0.37082  0.15792  0.21381  Biso   1.000  H
  C210     1.0000 0.13101  0.14053  0.10171  Biso   1.000  C
  H253     1.0000 0.01710  0.22700  0.13191  Biso   1.000  H
  C211     1.0000 0.48067  0.05339  0.15771  Biso   1.000  C
  C212     1.0000 0.25444  0.09472  0.10968  Biso   1.000  C
  C213     1.0000 0.03475  0.13059  0.05711  Biso   1.000  C
  H254     1.0000 0.52594  0.05508  0.12940  Biso   1.000  H
  H255     1.0000 0.54293  0.07932  0.18179  Biso   1.000  H
  C214     1.0000 0.46375  0.96267  0.16949  Biso   1.000  C
  H256     1.0000 0.27597  0.05721  0.08598  Biso   1.000  H
  H257     1.0000 0.07340  0.08908  0.03880  Biso   1.000  H
  H258     1.0000 0.03354  0.18028  0.03981  Biso   1.000  H
  C215     1.0000 0.88247  0.10568  0.06449  Biso   1.000  C
  C216     1.0000 0.39176  0.91171  0.13079  Biso   1.000  C
  H259     1.0000 0.40634  0.96079  0.19500  Biso   1.000  H
  H260     1.0000 0.55477  0.93970  0.18018  Biso   1.000  H
  C217     1.0000 0.87847  0.03151  0.09479  Biso   1.000  C
  H261     1.0000 0.82767  0.09581  0.03488  Biso   1.000  H
  H262     1.0000 0.83938  0.15010  0.07931  Biso   1.000  H
  C218     1.0000 0.45218  0.90353  0.08920  Biso   1.000  C
  C219     1.0000 0.26738  0.86971  0.13649  Biso   1.000  C
  C220     1.0000 0.90329  0.95498  0.07781  Biso   1.000  C
  C221     1.0000 0.85344  0.03939  0.14069  Biso   1.000  C
  C222     1.0000 0.38749  0.85468  0.05400  Biso   1.000  C
  H263     1.0000 0.53840  0.93171  0.08480  Biso   1.000  H
  C223     1.0000 0.20362  0.81863  0.10189  Biso   1.000  C
  H264     1.0000 0.22451  0.87589  0.16501  Biso   1.000  H
  C224     1.0000 0.90262  0.88710  0.10570  Biso   1.000  C
  H265     1.0000 0.92085  0.94940  0.04568  Biso   1.000  H
  C225     1.0000 0.85336  0.97140  0.16910  Biso   1.000  C
  H266     1.0000 0.83591  0.09193  0.15320  Biso   1.000  H
  C226     1.0000 0.26323  0.81372  0.06040  Biso   1.000  C
  O38      1.0000 0.43883  0.84250  0.01181  Biso   1.000  O
  C227     1.0000 0.07402  0.76900  0.10940  Biso   1.000  C
  C228     1.0000 0.87578  0.89589  0.15159  Biso   1.000  C
  C229     1.0000 0.93405  0.80421  0.08668  Biso   1.000  C
  O39      1.0000 0.85194  0.95867  0.21860  Biso   1.000  O
  O40      1.0000 0.81015  0.00103  0.21091  Biso   1.000  O
  H267     1.0000 0.21748  0.78130  0.03541  Biso   1.000  H
  C230     1.0000 0.57258  0.87420  0.00531  Biso   1.000  C
  H268     1.0000 0.08582  0.71500  0.09811  Biso   1.000  H
  H269     1.0000 0.06839  0.76603  0.14240  Biso   1.000  H
  H270     1.0000 0.87433  0.84911  0.17141  Biso   1.000  H
  H271     1.0000 0.93980  0.80851  0.05369  Biso   1.000  H
  H272     1.0000 0.85669  0.76851  0.09130  Biso   1.000  H
  C231     1.0000 0.85546  0.03430  0.24380  Biso   1.000  C
  C232     1.0000 0.81376  0.93880  0.24499  Biso   1.000  C
  H273     1.0000 0.59476  0.86141  0.97438  Biso   1.000  H
  H274     1.0000 0.57429  0.93189  0.00951  Biso   1.000  H
  H275     1.0000 0.64174  0.84959  0.02789  Biso   1.000  H
  H276     1.0000 0.85058  0.02472  0.27651  Biso   1.000  H
  H277     1.0000 0.94396  0.06030  0.23960  Biso   1.000  H
  H278     1.0000 0.77786  0.06848  0.23181  Biso   1.000  H
  H279     1.0000 0.78173  0.96243  0.27239  Biso   1.000  H
  H280     1.0000 0.75179  0.89498  0.23419  Biso   1.000  H
