data_image0
_cell_length_a       12.231
_cell_length_b       12.424
_cell_length_c       12.459
_cell_angle_alpha    74.45
_cell_angle_beta     77.25
_cell_angle_gamma    76.88

_symmetry_space_group_name_H-M    "P 1"
_symmetry_int_tables_number       1

loop_
  _symmetry_equiv_pos_as_xyz
  'x, y, z'

loop_
  _atom_site_label
  _atom_site_occupancy
  _atom_site_fract_x
  _atom_site_fract_y
  _atom_site_fract_z
  _atom_site_thermal_displace_type
  _atom_site_B_iso_or_equiv
  _atom_site_type_symbol
  C1       1.0000 0.64024  0.43117  0.42959  Biso   1.000  C
  O1       1.0000 0.60646  0.53632  0.35384  Biso   1.000  O
  H1       1.0000 0.57274  0.40578  0.48024  Biso   1.000  H
  H2       1.0000 0.69210  0.44157  0.47449  Biso   1.000  H
  H3       1.0000 0.67922  0.37410  0.38639  Biso   1.000  H
  C2       1.0000 0.52910  0.54078  0.28713  Biso   1.000  C
  C3       1.0000 0.48582  0.44699  0.28637  Biso   1.000  C
  C4       1.0000 0.49557  0.64743  0.21814  Biso   1.000  C
  C5       1.0000 0.40964  0.45842  0.21416  Biso   1.000  C
  H4       1.0000 0.50801  0.37549  0.33481  Biso   1.000  H
  C6       1.0000 0.41855  0.65471  0.14889  Biso   1.000  C
  C7       1.0000 0.54381  0.74914  0.22219  Biso   1.000  C
  O2       1.0000 0.37453  0.35965  0.21670  Biso   1.000  O
  C8       1.0000 0.37452  0.56158  0.14348  Biso   1.000  C
  H5       1.0000 0.39409  0.72667  0.10239  Biso   1.000  H
  C9       1.0000 0.48852  0.79155  0.32864  Biso   1.000  C
  H6       1.0000 0.62650  0.72168  0.22659  Biso   1.000  H
  C10      1.0000 0.53660  0.84708  0.11710  Biso   1.000  C
  H7       1.0000 0.31802  0.37998  0.16901  Biso   1.000  H
  C11      1.0000 0.29396  0.57158  0.06240  Biso   1.000  C
  C12      1.0000 0.54835  0.78934  0.41319  Biso   1.000  C
  C13      1.0000 0.37279  0.83875  0.34513  Biso   1.000  C
  H8       1.0000 0.45555  0.87306  0.10839  Biso   1.000  H
  H9       1.0000 0.56372  0.91112  0.12970  Biso   1.000  H
  C14      1.0000 0.60189  0.81936  0.01184  Biso   1.000  C
  C15      1.0000 0.63294  0.91576  0.09453  Biso   1.000  C
  H10      1.0000 0.46204  0.89824  0.12750  Biso   1.000  H
  H11      1.0000 0.54105  0.81605  0.05056  Biso   1.000  H
  H12      1.0000 0.31543  0.50020  0.03433  Biso   1.000  H
  C16      1.0000 0.16994  0.57780  0.12183  Biso   1.000  C
  C17      1.0000 0.30580  0.66995  0.95832  Biso   1.000  C
  O3       1.0000 0.66264  0.74830  0.40660  Biso   1.000  O
  C18      1.0000 0.49425  0.83057  0.50788  Biso   1.000  C
  C19      1.0000 0.31618  0.88465  0.43568  Biso   1.000  C
  H13      1.0000 0.32995  0.83930  0.29000  Biso   1.000  H
  H14      1.0000 0.68027  0.78469  0.02207  Biso   1.000  H
  H15      1.0000 0.60196  0.88877  0.95164  Biso   1.000  H
  H16      1.0000 0.56690  0.76589  0.99104  Biso   1.000  H
  H17      1.0000 0.62522  0.97763  0.02722  Biso   1.000  H
  H18      1.0000 0.70684  0.86579  0.08218  Biso   1.000  H
  H19      1.0000 0.62828  0.94749  0.15980  Biso   1.000  H
  C20      1.0000 0.10722  0.49349  0.12978  Biso   1.000  C
  C21      1.0000 0.11234  0.67057  0.16580  Biso   1.000  C
  H20      1.0000 0.27777  0.74282  0.98174  Biso   1.000  H
  H21      1.0000 0.38732  0.66698  0.92424  Biso   1.000  H
  C22      1.0000 0.23933  0.66493  0.87039  Biso   1.000  C
  H22      1.0000 0.70905  0.71100  0.35003  Biso   1.000  H
  C23      1.0000 0.37908  0.87690  0.51989  Biso   1.000  C
  H23      1.0000 0.53618  0.82719  0.56487  Biso   1.000  H
  C24      1.0000 0.19260  0.94591  0.43957  Biso   1.000  C
  O4       1.0000 0.16745  0.39704  0.09537  Biso   1.000  O
  C25      1.0000 0.99103  0.50740  0.17341  Biso   1.000  C
  H24      1.0000 0.15447  0.72664  0.16419  Biso   1.000  H
  C26      1.0000 0.99673  0.68708  0.21213  Biso   1.000  C
  H25      1.0000 0.26207  0.59013  0.85212  Biso   1.000  H
  H26      1.0000 0.25541  0.72381  0.80173  Biso   1.000  H
  H27      1.0000 0.15756  0.67762  0.90066  Biso   1.000  H
  O5       1.0000 0.31872  0.91538  0.61399  Biso   1.000  O
  C27      1.0000 0.11402  0.86418  0.44599  Biso   1.000  C
  H28      1.0000 0.16952  0.97423  0.51067  Biso   1.000  H
  C28      1.0000 0.18420  0.05012  0.33989  Biso   1.000  C
  C29      1.0000 0.10307  0.31185  0.09850  Biso   1.000  C
  H29      1.0000 0.94898  0.45089  0.17620  Biso   1.000  H
  C30      1.0000 0.93738  0.60314  0.21272  Biso   1.000  C
  C31      1.0000 0.94040  0.79066  0.25973  Biso   1.000  C
  C32      1.0000 0.38230  0.91866  0.69694  Biso   1.000  C
  C33      1.0000 0.06566  0.86472  0.35434  Biso   1.000  C
  C34      1.0000 0.08746  0.78608  0.54568  Biso   1.000  C
  H30      1.0000 0.20968  0.02485  0.26810  Biso   1.000  H
  H31      1.0000 0.10359  0.08849  0.34234  Biso   1.000  H
  C35      1.0000 0.25643  0.13421  0.34259  Biso   1.000  C
  H32      1.0000 0.06490  0.28568  0.17620  Biso   1.000  H
  H33      1.0000 0.15462  0.24757  0.07263  Biso   1.000  H
  H34      1.0000 0.04597  0.34456  0.04912  Biso   1.000  H
  O6       1.0000 0.82141  0.61703  0.25212  Biso   1.000  O
  C36      1.0000 0.99371  0.79024  0.35942  Biso   1.000  C
  H35      1.0000 0.85916  0.78259  0.29043  Biso   1.000  H
  C37      1.0000 0.93836  0.90247  0.16867  Biso   1.000  C
  H36      1.0000 0.42351  0.84225  0.72509  Biso   1.000  H
  H37      1.0000 0.32979  0.94563  0.75992  Biso   1.000  H
  H38      1.0000 0.43678  0.97025  0.66244  Biso   1.000  H
  H39      1.0000 0.08251  0.91827  0.28518  Biso   1.000  H
  C38      1.0000 0.01657  0.70985  0.55405  Biso   1.000  C
  O7       1.0000 0.12703  0.77898  0.64316  Biso   1.000  O
  H40      1.0000 0.23654  0.15371  0.41649  Biso   1.000  H
  H41      1.0000 0.24193  0.20308  0.28332  Biso   1.000  H
  H42      1.0000 0.33723  0.09982  0.32974  Biso   1.000  H
  H43      1.0000 0.79270  0.55217  0.24739  Biso   1.000  H
  C39      1.0000 0.96998  0.71241  0.46189  Biso   1.000  C
  H44      1.0000 0.01688  0.90775  0.12784  Biso   1.000  H
  H45      1.0000 0.01920  0.90839  0.13798  Biso   1.000  H
  H46      1.0000 0.91087  0.96716  0.20571  Biso   1.000  H
  C40      1.0000 0.86146  0.91116  0.08362  Biso   1.000  C
  C41      1.0000 0.89188  0.99526  0.18170  Biso   1.000  C
  H47      1.0000 0.90687  0.89031  0.10704  Biso   1.000  H
  H48      1.0000 0.00037  0.65610  0.62304  Biso   1.000  H
  H49      1.0000 0.16407  0.84273  0.62904  Biso   1.000  H
  O8       1.0000 0.89826  0.64169  0.46358  Biso   1.000  O
  H50      1.0000 0.89668  0.85670  0.03627  Biso   1.000  H
  H51      1.0000 0.85183  0.98823  0.03576  Biso   1.000  H
  H52      1.0000 0.78697  0.89396  0.12454  Biso   1.000  H
  H53      1.0000 0.85281  0.97199  0.25897  Biso   1.000  H
  H54      1.0000 0.83813  0.05003  0.13697  Biso   1.000  H
  H55      1.0000 0.95501  0.03105  0.18203  Biso   1.000  H
  C42      1.0000 0.86104  0.56858  0.56884  Biso   1.000  C
  H56      1.0000 0.92695  0.51578  0.59641  Biso   1.000  H
  H57      1.0000 0.80777  0.52569  0.55811  Biso   1.000  H
  H58      1.0000 0.82289  0.61419  0.62414  Biso   1.000  H
  C43      1.0000 0.35985  0.56879  0.57045  Biso   1.000  C
  O9       1.0000 0.39364  0.46365  0.64621  Biso   1.000  O
  H59      1.0000 0.42736  0.59418  0.51981  Biso   1.000  H
  H60      1.0000 0.30801  0.55842  0.52547  Biso   1.000  H
  H61      1.0000 0.32089  0.62588  0.61357  Biso   1.000  H
  C44      1.0000 0.47100  0.45918  0.71292  Biso   1.000  C
  C45      1.0000 0.50452  0.35253  0.78191  Biso   1.000  C
  C46      1.0000 0.51421  0.55299  0.71359  Biso   1.000  C
  C47      1.0000 0.45629  0.25082  0.77785  Biso   1.000  C
  C48      1.0000 0.58153  0.34533  0.85115  Biso   1.000  C
  H62      1.0000 0.49209  0.62447  0.66523  Biso   1.000  H
  C49      1.0000 0.59047  0.54156  0.78580  Biso   1.000  C
  C50      1.0000 0.51148  0.20849  0.67140  Biso   1.000  C
  H63      1.0000 0.37360  0.27828  0.77345  Biso   1.000  H
  C51      1.0000 0.46350  0.15288  0.88294  Biso   1.000  C
  C52      1.0000 0.62559  0.43841  0.85648  Biso   1.000  C
  H64      1.0000 0.60600  0.27329  0.89765  Biso   1.000  H
  O10      1.0000 0.62556  0.64041  0.78326  Biso   1.000  O
  C53      1.0000 0.45177  0.21064  0.58677  Biso   1.000  C
  C54      1.0000 0.62730  0.16122  0.65492  Biso   1.000  C
  H65      1.0000 0.54455  0.12690  0.89165  Biso   1.000  H
  H66      1.0000 0.43637  0.08884  0.87035  Biso   1.000  H
  C55      1.0000 0.39820  0.18060  0.98821  Biso   1.000  C
  C56      1.0000 0.36715  0.08420  0.90552  Biso   1.000  C
  H67      1.0000 0.53797  0.10172  0.87254  Biso   1.000  H
  H68      1.0000 0.45906  0.18393  0.94940  Biso   1.000  H
  C57      1.0000 0.70613  0.42838  0.93765  Biso   1.000  C
  H69      1.0000 0.68208  0.61998  0.83103  Biso   1.000  H
  C58      1.0000 0.50586  0.16941  0.49207  Biso   1.000  C
  O11      1.0000 0.33746  0.25167  0.59345  Biso   1.000  O
  C59      1.0000 0.68393  0.11533  0.56428  Biso   1.000  C
  H70      1.0000 0.67013  0.16074  0.71004  Biso   1.000  H
  H71      1.0000 0.31984  0.21530  0.97789  Biso   1.000  H
  H72      1.0000 0.39816  0.11121  0.04832  Biso   1.000  H
  H73      1.0000 0.43311  0.23418  0.00892  Biso   1.000  H
  H74      1.0000 0.37488  0.02233  0.97282  Biso   1.000  H
  H75      1.0000 0.29319  0.13419  0.91778  Biso   1.000  H
  H76      1.0000 0.37179  0.05255  0.84025  Biso   1.000  H
  H77      1.0000 0.68467  0.49976  0.96572  Biso   1.000  H
  C60      1.0000 0.83014  0.42224  0.87821  Biso   1.000  C
  C61      1.0000 0.69431  0.33003  0.04164  Biso   1.000  C
  C62      1.0000 0.62103  0.12308  0.48007  Biso   1.000  C
  H78      1.0000 0.46393  0.17279  0.43509  Biso   1.000  H
  H79      1.0000 0.29104  0.28896  0.65001  Biso   1.000  H
  C63      1.0000 0.80749  0.05416  0.56039  Biso   1.000  C
  C64      1.0000 0.88776  0.32940  0.83424  Biso   1.000  C
  C65      1.0000 0.89289  0.50649  0.87018  Biso   1.000  C
  H80      1.0000 0.72235  0.25716  0.01822  Biso   1.000  H
  H81      1.0000 0.61278  0.33298  0.07580  Biso   1.000  H
  C66      1.0000 0.76077  0.33503  0.12966  Biso   1.000  C
  O12      1.0000 0.68138  0.08458  0.38605  Biso   1.000  O
  C67      1.0000 0.88608  0.13579  0.55405  Biso   1.000  C
  H82      1.0000 0.83060  0.02575  0.48928  Biso   1.000  H
  C68      1.0000 0.81591  0.94986  0.66007  Biso   1.000  C
  C69      1.0000 0.00328  0.31288  0.78791  Biso   1.000  C
  H83      1.0000 0.84563  0.27332  0.83585  Biso   1.000  H
  C70      1.0000 0.00907  0.49256  0.82663  Biso   1.000  C
  O13      1.0000 0.83265  0.60292  0.90467  Biso   1.000  O
  H84      1.0000 0.73804  0.40985  0.14783  Biso   1.000  H
  H85      1.0000 0.74470  0.27617  0.19823  Biso   1.000  H
  H86      1.0000 0.84253  0.32234  0.09939  Biso   1.000  H
  C71      1.0000 0.61780  0.08130  0.30311  Biso   1.000  C
  C72      1.0000 0.91265  0.21390  0.45428  Biso   1.000  C
  C73      1.0000 0.93444  0.13524  0.64570  Biso   1.000  C
  H87      1.0000 0.79042  0.97511  0.73194  Biso   1.000  H
  H88      1.0000 0.89651  0.91148  0.65771  Biso   1.000  H
  C74      1.0000 0.74367  0.86575  0.65745  Biso   1.000  C
  C75      1.0000 0.05969  0.20931  0.74031  Biso   1.000  C
  C76      1.0000 0.06271  0.39682  0.78732  Biso   1.000  C
  H89      1.0000 0.05112  0.54907  0.82384  Biso   1.000  H
  C77      1.0000 0.89702  0.68811  0.90154  Biso   1.000  C
  H90      1.0000 0.57660  0.15773  0.27487  Biso   1.000  H
  H91      1.0000 0.67031  0.05433  0.24012  Biso   1.000  H
  H92      1.0000 0.56331  0.02972  0.33760  Biso   1.000  H
  O14      1.0000 0.87307  0.22098  0.35688  Biso   1.000  O
  C78      1.0000 0.98353  0.29011  0.44599  Biso   1.000  C
  H93      1.0000 0.91760  0.08172  0.71478  Biso   1.000  H
  C79      1.0000 0.00638  0.20972  0.64063  Biso   1.000  C
  H94      1.0000 0.76357  0.84627  0.58347  Biso   1.000  H
  H95      1.0000 0.75816  0.79688  0.71672  Biso   1.000  H
  H96      1.0000 0.66286  0.90014  0.67030  Biso   1.000  H
  H97      1.0000 0.14093  0.21737  0.70962  Biso   1.000  H
  C80      1.0000 0.06175  0.09751  0.83128  Biso   1.000  C
  O15      1.0000 0.17869  0.38293  0.74792  Biso   1.000  O
  H98      1.0000 0.93519  0.71428  0.82384  Biso   1.000  H
  H99      1.0000 0.84548  0.75240  0.92742  Biso   1.000  H
  H100     1.0000 0.95413  0.65541  0.95092  Biso   1.000  H
  H101     1.0000 0.83603  0.15723  0.37100  Biso   1.000  H
  H102     1.0000 0.99972  0.34387  0.37700  Biso   1.000  H
  C81      1.0000 0.03013  0.28757  0.53807  Biso   1.000  C
  H103     1.0000 0.98321  0.09221  0.87221  Biso   1.000  H
  H104     1.0000 0.98091  0.09159  0.86198  Biso   1.000  H
  H105     1.0000 0.08923  0.03280  0.79434  Biso   1.000  H
  C82      1.0000 0.13864  0.08880  0.91642  Biso   1.000  C
  C83      1.0000 0.10821  0.00470  0.81835  Biso   1.000  C
  H106     1.0000 0.09323  0.10965  0.89300  Biso   1.000  H
  H107     1.0000 0.20739  0.44779  0.75265  Biso   1.000  H
  O16      1.0000 0.10183  0.35827  0.53646  Biso   1.000  O
  H108     1.0000 0.10342  0.14336  0.96369  Biso   1.000  H
  H109     1.0000 0.14828  0.01175  0.96419  Biso   1.000  H
  H110     1.0000 0.21312  0.10600  0.87550  Biso   1.000  H
  H111     1.0000 0.16198  0.94995  0.86299  Biso   1.000  H
  H112     1.0000 0.04508  0.96891  0.81801  Biso   1.000  H
  H113     1.0000 0.14730  0.02799  0.74099  Biso   1.000  H
  C84      1.0000 0.13906  0.43138  0.43120  Biso   1.000  C
  H114     1.0000 0.07315  0.48418  0.40364  Biso   1.000  H
  H115     1.0000 0.19232  0.47428  0.44194  Biso   1.000  H
  H116     1.0000 0.17721  0.38577  0.37590  Biso   1.000  H
