data_image0
_cell_length_a       15.315
_cell_length_b       15.882
_cell_length_c       16.381
_cell_angle_alpha    74.42
_cell_angle_beta     82.45
_cell_angle_gamma    63.74

_symmetry_space_group_name_H-M    "P 1"
_symmetry_int_tables_number       1

loop_
  _symmetry_equiv_pos_as_xyz
  'x, y, z'

loop_
  _atom_site_label
  _atom_site_occupancy
  _atom_site_fract_x
  _atom_site_fract_y
  _atom_site_fract_z
  _atom_site_thermal_displace_type
  _atom_site_B_iso_or_equiv
  _atom_site_type_symbol
  C1       1.0000 0.63285  0.38882  0.46123  Biso   1.000  C
  O1       1.0000 0.70671  0.41268  0.41344  Biso   1.000  O
  H1       1.0000 0.57350  0.41985  0.42770  Biso   1.000  H
  H2       1.0000 0.61921  0.41150  0.51352  Biso   1.000  H
  H3       1.0000 0.65502  0.31850  0.47543  Biso   1.000  H
  C2       1.0000 0.73613  0.38609  0.33738  Biso   1.000  C
  C3       1.0000 0.69035  0.34617  0.30189  Biso   1.000  C
  C4       1.0000 0.81385  0.40441  0.29606  Biso   1.000  C
  C5       1.0000 0.72238  0.32501  0.22342  Biso   1.000  C
  H4       1.0000 0.63783  0.33349  0.33092  Biso   1.000  H
  C6       1.0000 0.84540  0.37829  0.21905  Biso   1.000  C
  C7       1.0000 0.85747  0.45452  0.33358  Biso   1.000  C
  O2       1.0000 0.67797  0.28988  0.18165  Biso   1.000  O
  C8       1.0000 0.80154  0.33902  0.18038  Biso   1.000  C
  H5       1.0000 0.89997  0.38779  0.19141  Biso   1.000  H
  H6       1.0000 0.80320  0.49785  0.36501  Biso   1.000  H
  C9       1.0000 0.93662  0.38703  0.39816  Biso   1.000  C
  C10      1.0000 0.89578  0.51988  0.26804  Biso   1.000  C
  C11      1.0000 0.59705  0.27281  0.22120  Biso   1.000  C
  C12      1.0000 0.83491  0.31251  0.09495  Biso   1.000  C
  C13      1.0000 0.94060  0.41473  0.47086  Biso   1.000  C
  C14      1.0000 0.01274  0.30217  0.38403  Biso   1.000  C
  H7       1.0000 0.92865  0.54404  0.29821  Biso   1.000  H
  H8       1.0000 0.94523  0.48082  0.23147  Biso   1.000  H
  C15      1.0000 0.81733  0.60565  0.21220  Biso   1.000  C
  C16      1.0000 0.56258  0.23922  0.15940  Biso   1.000  C
  H9       1.0000 0.54457  0.33284  0.23369  Biso   1.000  H
  H10      1.0000 0.61673  0.22273  0.27489  Biso   1.000  H
  C17      1.0000 0.88659  0.20320  0.10686  Biso   1.000  C
  H11      1.0000 0.77506  0.33593  0.06148  Biso   1.000  H
  C18      1.0000 0.89897  0.35981  0.04221  Biso   1.000  C
  O3       1.0000 0.86576  0.49998  0.48487  Biso   1.000  O
  C19      1.0000 0.01844  0.36272  0.52493  Biso   1.000  C
  H12      1.0000 0.01037  0.28101  0.33573  Biso   1.000  H
  C20      1.0000 0.09214  0.24685  0.43733  Biso   1.000  C
  H13      1.0000 0.78941  0.58257  0.17728  Biso   1.000  H
  H14      1.0000 0.84586  0.64712  0.17538  Biso   1.000  H
  H15      1.0000 0.76606  0.64271  0.24789  Biso   1.000  H
  H16      1.0000 0.61747  0.18240  0.14388  Biso   1.000  H
  H17      1.0000 0.51108  0.21904  0.18660  Biso   1.000  H
  N1       1.0000 0.52488  0.31485  0.08366  Biso   1.000  N
  C21      1.0000 0.97224  0.14887  0.15288  Biso   1.000  C
  C22      1.0000 0.85476  0.15303  0.06877  Biso   1.000  C
  H18      1.0000 0.95608  0.34223  0.07612  Biso   1.000  H
  C23      1.0000 0.84686  0.46965  0.01401  Biso   1.000  C
  H19      1.0000 0.92308  0.33325  0.99132  Biso   1.000  H
  C24      1.0000 0.82213  0.49432  0.56619  Biso   1.000  C
  C25      1.0000 0.09458  0.27998  0.50788  Biso   1.000  C
  H20      1.0000 0.01986  0.38351  0.57379  Biso   1.000  H
  C26      1.0000 0.17833  0.15806  0.41642  Biso   1.000  C
  C27      1.0000 0.49203  0.29573  0.01743  Biso   1.000  C
  H21      1.0000 0.56295  0.34504  0.06547  Biso   1.000  H
  H22      1.0000 0.99543  0.18194  0.17861  Biso   1.000  H
  C28      1.0000 0.02589  0.04984  0.16365  Biso   1.000  C
  C29      1.0000 0.90475  0.05376  0.07942  Biso   1.000  C
  O4       1.0000 0.77218  0.20666  0.01990  Biso   1.000  O
  H23      1.0000 0.82682  0.49705  0.06389  Biso   1.000  H
  H24      1.0000 0.78922  0.48796  0.98156  Biso   1.000  H
  H25      1.0000 0.89087  0.49446  0.97851  Biso   1.000  H
  H26      1.0000 0.86738  0.48696  0.60827  Biso   1.000  H
  H27      1.0000 0.80684  0.43754  0.58248  Biso   1.000  H
  C30      1.0000 0.73009  0.58553  0.56460  Biso   1.000  C
  O5       1.0000 0.17591  0.22640  0.55757  Biso   1.000  O
  H28      1.0000 0.21797  0.12329  0.46902  Biso   1.000  H
  C31      1.0000 0.14832  0.08625  0.39556  Biso   1.000  C
  C32      1.0000 0.24307  0.19150  0.34923  Biso   1.000  C
  C33      1.0000 0.49619  0.20534  0.02092  Biso   1.000  C
  C34      1.0000 0.45116  0.37130  0.94632  Biso   1.000  C
  C35      1.0000 0.98794  0.00248  0.12790  Biso   1.000  C
  C36      1.0000 0.12588  0.99784  0.20415  Biso   1.000  C
  H29      1.0000 0.88179  0.02068  0.05343  Biso   1.000  H
  C37      1.0000 0.74253  0.15716  0.97623  Biso   1.000  C
  H30      1.0000 0.69791  0.58173  0.62108  Biso   1.000  H
  H31      1.0000 0.74630  0.64155  0.55161  Biso   1.000  H
  N2       1.0000 0.66481  0.59894  0.50217  Biso   1.000  N
  C38      1.0000 0.18233  0.26203  0.62691  Biso   1.000  C
  C39      1.0000 0.14394  0.07936  0.31311  Biso   1.000  C
  C40      1.0000 0.13131  0.01869  0.46116  Biso   1.000  C
  H32      1.0000 0.20866  0.22095  0.29447  Biso   1.000  H
  H33      1.0000 0.25303  0.24220  0.36559  Biso   1.000  H
  C41      1.0000 0.34228  0.11091  0.33668  Biso   1.000  C
  H34      1.0000 0.52158  0.15415  0.06959  Biso   1.000  H
  C42      1.0000 0.46334  0.18973  0.95386  Biso   1.000  C
  C43      1.0000 0.41881  0.35381  0.88002  Biso   1.000  C
  N3       1.0000 0.44832  0.46174  0.94213  Biso   1.000  N
  O6       1.0000 0.03684  0.90328  0.14191  Biso   1.000  O
  H35      1.0000 0.14843  0.92746  0.20789  Biso   1.000  H
  C44      1.0000 0.12585  0.00806  0.29453  Biso   1.000  C
  C45      1.0000 0.19772  0.02941  0.14413  Biso   1.000  C
  H36      1.0000 0.72955  0.10623  0.01743  Biso   1.000  H
  H37      1.0000 0.79443  0.12809  0.93694  Biso   1.000  H
  H38      1.0000 0.68322  0.20292  0.94454  Biso   1.000  H
  C46      1.0000 0.57701  0.68124  0.48652  Biso   1.000  C
  H39      1.0000 0.69493  0.58106  0.46097  Biso   1.000  H
  H40      1.0000 0.17333  0.32924  0.60631  Biso   1.000  H
  H41      1.0000 0.24640  0.22244  0.65289  Biso   1.000  H
  H42      1.0000 0.13163  0.25870  0.66918  Biso   1.000  H
  H43      1.0000 0.15389  0.12578  0.26728  Biso   1.000  H
  C47      1.0000 0.11226  0.94639  0.44576  Biso   1.000  C
  O7       1.0000 0.13460  0.02754  0.54179  Biso   1.000  O
  H44      1.0000 0.37786  0.08259  0.39011  Biso   1.000  H
  H45      1.0000 0.37947  0.13750  0.29282  Biso   1.000  H
  H46      1.0000 0.33338  0.06091  0.31932  Biso   1.000  H
  H47      1.0000 0.46713  0.12772  0.95652  Biso   1.000  H
  C48      1.0000 0.42545  0.26356  0.88350  Biso   1.000  C
  H48      1.0000 0.39191  0.40481  0.83153  Biso   1.000  H
  H49      1.0000 0.42991  0.47902  0.99201  Biso   1.000  H
  H50      1.0000 0.41393  0.50405  0.89903  Biso   1.000  H
  C49      1.0000 0.98630  0.85398  0.12169  Biso   1.000  C
  C50      1.0000 0.11085  0.94152  0.36210  Biso   1.000  C
  C51      1.0000 0.30391  0.96855  0.16802  Biso   1.000  C
  H51      1.0000 0.18937  0.02683  0.08607  Biso   1.000  H
  H52      1.0000 0.18085  0.09751  0.14312  Biso   1.000  H
  C52      1.0000 0.53377  0.73924  0.54343  Biso   1.000  C
  C53      1.0000 0.52942  0.70355  0.41033  Biso   1.000  C
  H53      1.0000 0.10039  0.90107  0.49140  Biso   1.000  H
  C54      1.0000 0.15148  0.94591  0.61195  Biso   1.000  C
  H54      1.0000 0.40374  0.25228  0.83736  Biso   1.000  H
  H55      1.0000 0.99172  0.85776  0.06009  Biso   1.000  H
  H56      1.0000 0.91650  0.88533  0.13690  Biso   1.000  H
  C55      1.0000 0.02922  0.75080  0.16942  Biso   1.000  C
  O8       1.0000 0.09449  0.87117  0.34207  Biso   1.000  O
  H57      1.0000 0.31342  0.97164  0.22500  Biso   1.000  H
  H58      1.0000 0.34477  0.99347  0.12721  Biso   1.000  H
  H59      1.0000 0.32218  0.90137  0.16720  Biso   1.000  H
  H60      1.0000 0.56549  0.72423  0.59490  Biso   1.000  H
  C56      1.0000 0.44468  0.81902  0.52619  Biso   1.000  C
  C57      1.0000 0.44178  0.78377  0.39379  Biso   1.000  C
  N4       1.0000 0.57650  0.64576  0.35183  Biso   1.000  N
  H61      1.0000 0.20311  0.88645  0.59763  Biso   1.000  H
  H62      1.0000 0.09128  0.93637  0.62780  Biso   1.000  H
  C58      1.0000 0.18300  0.96891  0.68332  Biso   1.000  C
  H63      1.0000 0.99033  0.71896  0.15890  Biso   1.000  H
  H64      1.0000 0.02530  0.74776  0.23090  Biso   1.000  H
  N5       1.0000 0.12889  0.69907  0.14571  Biso   1.000  N
  C59      1.0000 0.08564  0.79753  0.40938  Biso   1.000  C
  H65      1.0000 0.41520  0.85785  0.56600  Biso   1.000  H
  C60      1.0000 0.39933  0.84142  0.45102  Biso   1.000  C
  H66      1.0000 0.40978  0.79977  0.34207  Biso   1.000  H
  H67      1.0000 0.59590  0.57807  0.37997  Biso   1.000  H
  H68      1.0000 0.53495  0.65902  0.31101  Biso   1.000  H
  H69      1.0000 0.19611  0.91504  0.73440  Biso   1.000  H
  N6       1.0000 0.27082  0.98351  0.65708  Biso   1.000  N
  H70      1.0000 0.13073  0.02803  0.69739  Biso   1.000  H
  C61      1.0000 0.17472  0.59884  0.17240  Biso   1.000  C
  H71      1.0000 0.15995  0.73901  0.12702  Biso   1.000  H
  H72      1.0000 0.14401  0.76511  0.44418  Biso   1.000  H
  H73      1.0000 0.07809  0.75036  0.38618  Biso   1.000  H
  H74      1.0000 0.02829  0.82625  0.44450  Biso   1.000  H
  H75      1.0000 0.33877  0.89657  0.43841  Biso   1.000  H
  C62      1.0000 0.31165  0.01298  0.70943  Biso   1.000  C
  H76      1.0000 0.26594  0.02202  0.60701  Biso   1.000  H
  C63      1.0000 0.12584  0.54392  0.21537  Biso   1.000  C
  C64      1.0000 0.27442  0.55070  0.15307  Biso   1.000  C
  C65      1.0000 0.28383  0.01141  0.79354  Biso   1.000  C
  C66      1.0000 0.38495  0.04332  0.67559  Biso   1.000  C
  H77      1.0000 0.05861  0.57556  0.22900  Biso   1.000  H
  C67      1.0000 0.17287  0.44393  0.23882  Biso   1.000  C
  C68      1.0000 0.32013  0.45178  0.17772  Biso   1.000  C
  N7       1.0000 0.32315  0.60783  0.11047  Biso   1.000  N
  H78      1.0000 0.23380  0.99162  0.81693  Biso   1.000  H
  C69      1.0000 0.32826  0.03831  0.84399  Biso   1.000  C
  C70      1.0000 0.42952  0.06811  0.72680  Biso   1.000  C
  N8       1.0000 0.40883  0.05163  0.58913  Biso   1.000  N
  H79      1.0000 0.13803  0.40745  0.26760  Biso   1.000  H
  C71      1.0000 0.27084  0.39755  0.22000  Biso   1.000  C
  H80      1.0000 0.38756  0.41958  0.16543  Biso   1.000  H
  H81      1.0000 0.39496  0.56899  0.10401  Biso   1.000  H
  H82      1.0000 0.28994  0.66901  0.06199  Biso   1.000  H
  H83      1.0000 0.30803  0.03803  0.90148  Biso   1.000  H
  C72      1.0000 0.40114  0.06540  0.81071  Biso   1.000  C
  H84      1.0000 0.48015  0.08728  0.70442  Biso   1.000  H
  H85      1.0000 0.45198  0.08002  0.56898  Biso   1.000  H
  H86      1.0000 0.41698  0.00898  0.57703  Biso   1.000  H
  H87      1.0000 0.30383  0.32899  0.23597  Biso   1.000  H
  H88      1.0000 0.43265  0.08253  0.84557  Biso   1.000  H
  C73      1.0000 0.36704  0.61124  0.53881  Biso   1.000  C
  O9       1.0000 0.29321  0.58733  0.58653  Biso   1.000  O
  H89      1.0000 0.42632  0.58023  0.57227  Biso   1.000  H
  H90      1.0000 0.38061  0.58856  0.48652  Biso   1.000  H
  H91      1.0000 0.34480  0.68156  0.52461  Biso   1.000  H
  C74      1.0000 0.26369  0.61397  0.66266  Biso   1.000  C
  C75      1.0000 0.18598  0.59565  0.70398  Biso   1.000  C
  C76      1.0000 0.30947  0.65389  0.69815  Biso   1.000  C
  C77      1.0000 0.14235  0.54556  0.66639  Biso   1.000  C
  C78      1.0000 0.15442  0.62179  0.78093  Biso   1.000  C
  C79      1.0000 0.27751  0.67504  0.77662  Biso   1.000  C
  H92      1.0000 0.36199  0.66657  0.66912  Biso   1.000  H
  C80      1.0000 0.06326  0.61303  0.60187  Biso   1.000  C
  H93      1.0000 0.19662  0.50221  0.63502  Biso   1.000  H
  C81      1.0000 0.10404  0.48020  0.73193  Biso   1.000  C
  C82      1.0000 0.19829  0.66106  0.81959  Biso   1.000  C
  H94      1.0000 0.09995  0.61220  0.80862  Biso   1.000  H
  O10      1.0000 0.32195  0.71013  0.81832  Biso   1.000  O
  C83      1.0000 0.05932  0.58526  0.52917  Biso   1.000  C
  C84      1.0000 0.98708  0.69791  0.61594  Biso   1.000  C
  H95      1.0000 0.07124  0.45602  0.70183  Biso   1.000  H
  H96      1.0000 0.05460  0.51926  0.76850  Biso   1.000  H
  C85      1.0000 0.18249  0.39441  0.78783  Biso   1.000  C
  C86      1.0000 0.16498  0.68757  0.90503  Biso   1.000  C
  C87      1.0000 0.40284  0.72726  0.77877  Biso   1.000  C
  O11      1.0000 0.13406  0.50010  0.51510  Biso   1.000  O
  C88      1.0000 0.98138  0.63736  0.47505  Biso   1.000  C
  H97      1.0000 0.98946  0.71905  0.66430  Biso   1.000  H
  C89      1.0000 0.90775  0.75323  0.56264  Biso   1.000  C
  H98      1.0000 0.21042  0.41750  0.82269  Biso   1.000  H
  H99      1.0000 0.15403  0.35296  0.82460  Biso   1.000  H
  H100     1.0000 0.23383  0.35736  0.75209  Biso   1.000  H
  C90      1.0000 0.11323  0.79687  0.89311  Biso   1.000  C
  H101     1.0000 0.22476  0.66414  0.93849  Biso   1.000  H
  C91      1.0000 0.10091  0.64025  0.95782  Biso   1.000  C
  H102     1.0000 0.45531  0.66723  0.76628  Biso   1.000  H
  H103     1.0000 0.38309  0.77735  0.72509  Biso   1.000  H
  C92      1.0000 0.43731  0.76084  0.84063  Biso   1.000  C
  C93      1.0000 0.17770  0.50576  0.43378  Biso   1.000  C
  C94      1.0000 0.90524  0.72008  0.49216  Biso   1.000  C
  H104     1.0000 0.98003  0.61657  0.42618  Biso   1.000  H
  C95      1.0000 0.82150  0.84202  0.58355  Biso   1.000  C
  C96      1.0000 0.02761  0.85112  0.84716  Biso   1.000  C
  C97      1.0000 0.14513  0.84703  0.93127  Biso   1.000  C
  H105     1.0000 0.04381  0.65783  0.92391  Biso   1.000  H
  C98      1.0000 0.15303  0.53041  0.98603  Biso   1.000  C
  H106     1.0000 0.07674  0.66683  0.00866  Biso   1.000  H
  H107     1.0000 0.38235  0.81768  0.85610  Biso   1.000  H
  H108     1.0000 0.48880  0.78104  0.81338  Biso   1.000  H
  N9       1.0000 0.47494  0.68521  0.91637  Biso   1.000  N
  C99      1.0000 0.26973  0.41453  0.43543  Biso   1.000  C
  H109     1.0000 0.13244  0.51312  0.39170  Biso   1.000  H
  H110     1.0000 0.19305  0.56253  0.41749  Biso   1.000  H
  O12      1.0000 0.82391  0.77366  0.44247  Biso   1.000  O
  H111     1.0000 0.78186  0.87677  0.53101  Biso   1.000  H
  C100     1.0000 0.85150  0.91381  0.60447  Biso   1.000  C
  C101     1.0000 0.75675  0.80856  0.65080  Biso   1.000  C
  H112     1.0000 0.00439  0.81812  0.82143  Biso   1.000  H
  C102     1.0000 0.97393  0.95022  0.83638  Biso   1.000  C
  C103     1.0000 0.09507  0.94632  0.92056  Biso   1.000  C
  O13      1.0000 0.22771  0.79340  0.98013  Biso   1.000  O
  H113     1.0000 0.17300  0.50303  0.93608  Biso   1.000  H
  H114     1.0000 0.21067  0.51210  0.01848  Biso   1.000  H
  H115     1.0000 0.10895  0.50561  0.02146  Biso   1.000  H
  C104     1.0000 0.50779  0.70433  0.98261  Biso   1.000  C
  H116     1.0000 0.43688  0.65504  0.93450  Biso   1.000  H
  H117     1.0000 0.30191  0.41835  0.37890  Biso   1.000  H
  H118     1.0000 0.25352  0.35851  0.44843  Biso   1.000  H
  N10      1.0000 0.33508  0.40112  0.49786  Biso   1.000  N
  C105     1.0000 0.81749  0.73803  0.37313  Biso   1.000  C
  C106     1.0000 0.85592  0.92064  0.68687  Biso   1.000  C
  C107     1.0000 0.86857  0.98138  0.53881  Biso   1.000  C
  H119     1.0000 0.79117  0.77912  0.70550  Biso   1.000  H
  H120     1.0000 0.74679  0.75788  0.63439  Biso   1.000  H
  C108     1.0000 0.65755  0.88916  0.66329  Biso   1.000  C
  C109     1.0000 0.87401  0.00222  0.79588  Biso   1.000  C
  C110     1.0000 0.01188  0.99758  0.87213  Biso   1.000  C
  H121     1.0000 0.11803  0.97937  0.94661  Biso   1.000  H
  C111     1.0000 0.25729  0.84292  0.02374  Biso   1.000  C
  C112     1.0000 0.50370  0.79472  0.97912  Biso   1.000  C
  C113     1.0000 0.54876  0.62871  0.05366  Biso   1.000  C
  C114     1.0000 0.42281  0.31882  0.51352  Biso   1.000  C
  H122     1.0000 0.30496  0.41902  0.53900  Biso   1.000  H
  H123     1.0000 0.82649  0.67082  0.39373  Biso   1.000  H
  H124     1.0000 0.75342  0.77764  0.34708  Biso   1.000  H
  H125     1.0000 0.86820  0.74138  0.33079  Biso   1.000  H
  H126     1.0000 0.84596  0.87422  0.73269  Biso   1.000  H
  C115     1.0000 0.87404  0.99202  0.70544  Biso   1.000  C
  O14      1.0000 0.86523  0.97251  0.45825  Biso   1.000  O
  C116     1.0000 0.88756  0.05367  0.55427  Biso   1.000  C
  H127     1.0000 0.62196  0.91747  0.60992  Biso   1.000  H
  H128     1.0000 0.62035  0.86256  0.70721  Biso   1.000  H
  H129     1.0000 0.66651  0.93915  0.68072  Biso   1.000  H
  C117     1.0000 0.80217  0.97066  0.85584  Biso   1.000  C
  H130     1.0000 0.85145  0.07261  0.79208  Biso   1.000  H
  O15      1.0000 0.96302  0.09671  0.85812  Biso   1.000  O
  H131     1.0000 0.27027  0.89383  0.98261  Biso   1.000  H
  H132     1.0000 0.20540  0.87197  0.06310  Biso   1.000  H
  H133     1.0000 0.31661  0.79714  0.05549  Biso   1.000  H
  H134     1.0000 0.47830  0.84593  0.93038  Biso   1.000  H
  C118     1.0000 0.53655  0.81032  0.04618  Biso   1.000  C
  C119     1.0000 0.58101  0.64627  0.11995  Biso   1.000  C
  N11      1.0000 0.55150  0.53832  0.05790  Biso   1.000  N
  C120     1.0000 0.46605  0.26082  0.45660  Biso   1.000  C
  C121     1.0000 0.47047  0.29651  0.58970  Biso   1.000  C
  C122     1.0000 0.88904  0.05856  0.63787  Biso   1.000  C
  C123     1.0000 0.84834  0.05415  0.38809  Biso   1.000  C
  H135     1.0000 0.89943  0.09900  0.50857  Biso   1.000  H
  H136     1.0000 0.81045  0.97325  0.91390  Biso   1.000  H
  H137     1.0000 0.81897  0.90255  0.85692  Biso   1.000  H
  C124     1.0000 0.69591  0.03151  0.83201  Biso   1.000  C
  C125     1.0000 0.01352  0.14610  0.87828  Biso   1.000  C
  H138     1.0000 0.53269  0.87235  0.04345  Biso   1.000  H
  C126     1.0000 0.57444  0.73652  0.11647  Biso   1.000  C
  H139     1.0000 0.60791  0.59525  0.16850  Biso   1.000  H
  H140     1.0000 0.56991  0.52105  0.00796  Biso   1.000  H
  H141     1.0000 0.58595  0.49601  0.10100  Biso   1.000  H
  H142     1.0000 0.43433  0.27585  0.40507  Biso   1.000  H
  C127     1.0000 0.55514  0.18105  0.47378  Biso   1.000  C
  C128     1.0000 0.55804  0.21630  0.60618  Biso   1.000  C
  N12      1.0000 0.42333  0.35430  0.64820  Biso   1.000  N
  O16      1.0000 0.90534  0.12891  0.65790  Biso   1.000  O
  H143     1.0000 0.79678  0.11361  0.40241  Biso   1.000  H
  H144     1.0000 0.90854  0.06371  0.37218  Biso   1.000  H
  C129     1.0000 0.81685  0.03107  0.31672  Biso   1.000  C
  H145     1.0000 0.68647  0.02842  0.77503  Biso   1.000  H
  H146     1.0000 0.65506  0.00659  0.87283  Biso   1.000  H
  H147     1.0000 0.67764  0.09869  0.83283  Biso   1.000  H
  C130     1.0000 0.97061  0.24925  0.83062  Biso   1.000  C
  H148     1.0000 0.00817  0.14232  0.93989  Biso   1.000  H
  H149     1.0000 0.08333  0.11473  0.86313  Biso   1.000  H
  H150     1.0000 0.59611  0.74771  0.16267  Biso   1.000  H
  H151     1.0000 0.58462  0.14223  0.43397  Biso   1.000  H
  C131     1.0000 0.60056  0.15864  0.54901  Biso   1.000  C
  H152     1.0000 0.59004  0.20031  0.65790  Biso   1.000  H
  H153     1.0000 0.40393  0.42201  0.62000  Biso   1.000  H
  H154     1.0000 0.46494  0.34103  0.68902  Biso   1.000  H
  C132     1.0000 0.91425  0.20254  0.59059  Biso   1.000  C
  H155     1.0000 0.86910  0.97205  0.30258  Biso   1.000  H
  H156     1.0000 0.80378  0.08502  0.26563  Biso   1.000  H
  N13      1.0000 0.72903  0.01650  0.34289  Biso   1.000  N
  H157     1.0000 0.97452  0.25231  0.76907  Biso   1.000  H
  N14      1.0000 0.87103  0.30092  0.85432  Biso   1.000  N
  H158     1.0000 0.00956  0.28112  0.84107  Biso   1.000  H
  H159     1.0000 0.66105  0.10349  0.56162  Biso   1.000  H
  H160     1.0000 0.85584  0.23489  0.55579  Biso   1.000  H
  H161     1.0000 0.92173  0.24971  0.61379  Biso   1.000  H
  H162     1.0000 0.97154  0.17383  0.55548  Biso   1.000  H
  C133     1.0000 0.68824  0.98708  0.29060  Biso   1.000  C
  H163     1.0000 0.73389  0.97804  0.39303  Biso   1.000  H
  C134     1.0000 0.82510  0.40124  0.82757  Biso   1.000  C
  H164     1.0000 0.83988  0.26105  0.87302  Biso   1.000  H
  C135     1.0000 0.71599  0.98866  0.20643  Biso   1.000  C
  C136     1.0000 0.61487  0.95676  0.32439  Biso   1.000  C
  C137     1.0000 0.87398  0.45614  0.78466  Biso   1.000  C
  C138     1.0000 0.72543  0.44931  0.84691  Biso   1.000  C
  C139     1.0000 0.67163  0.96177  0.15598  Biso   1.000  C
  H165     1.0000 0.76609  0.00844  0.18311  Biso   1.000  H
  C140     1.0000 0.57030  0.93196  0.27317  Biso   1.000  C
  N15      1.0000 0.59099  0.94843  0.41090  Biso   1.000  N
  H166     1.0000 0.94121  0.42452  0.77097  Biso   1.000  H
  C141     1.0000 0.82702  0.55613  0.76121  Biso   1.000  C
  C142     1.0000 0.67973  0.54820  0.82231  Biso   1.000  C
  N16      1.0000 0.67668  0.39225  0.88950  Biso   1.000  N
  H167     1.0000 0.69179  0.96205  0.09850  Biso   1.000  H
  C143     1.0000 0.59868  0.93466  0.18932  Biso   1.000  C
  H168     1.0000 0.51967  0.91278  0.29561  Biso   1.000  H
  H169     1.0000 0.54791  0.92005  0.43100  Biso   1.000  H
  H170     1.0000 0.58285  0.99108  0.42301  Biso   1.000  H
  H171     1.0000 0.86180  0.59263  0.73238  Biso   1.000  H
  C144     1.0000 0.72898  0.60253  0.77997  Biso   1.000  C
  H172     1.0000 0.61229  0.58041  0.83461  Biso   1.000  H
  H173     1.0000 0.60489  0.43100  0.89603  Biso   1.000  H
  H174     1.0000 0.70988  0.33107  0.93799  Biso   1.000  H
  H175     1.0000 0.56723  0.91754  0.15440  Biso   1.000  H
  H176     1.0000 0.69599  0.67108  0.76400  Biso   1.000  H
