data_image0
_cell_length_a       15.219
_cell_length_b       15.853
_cell_length_c       16.546
_cell_angle_alpha    74.36
_cell_angle_beta     83.11
_cell_angle_gamma    64.09

_symmetry_space_group_name_H-M    "P 1"
_symmetry_int_tables_number       1

loop_
  _symmetry_equiv_pos_as_xyz
  'x, y, z'

loop_
  _atom_site_label
  _atom_site_occupancy
  _atom_site_fract_x
  _atom_site_fract_y
  _atom_site_fract_z
  _atom_site_thermal_displace_type
  _atom_site_B_iso_or_equiv
  _atom_site_type_symbol
  C1       1.0000 0.46198  0.68910  0.45326  Biso   1.000  C
  C2       1.0000 0.49482  0.70365  0.52098  Biso   1.000  C
  H1       1.0000 0.46650  0.62686  0.45490  Biso   1.000  H
  C3       1.0000 0.42303  0.76386  0.38416  Biso   1.000  C
  C4       1.0000 0.49078  0.79307  0.51797  Biso   1.000  C
  H2       1.0000 0.52003  0.65205  0.56925  Biso   1.000  H
  H3       1.0000 0.40022  0.75354  0.33816  Biso   1.000  H
  C5       1.0000 0.41686  0.85368  0.38146  Biso   1.000  C
  C6       1.0000 0.44972  0.86955  0.44849  Biso   1.000  C
  N1       1.0000 0.52375  0.81251  0.58425  Biso   1.000  N
  H4       1.0000 0.39018  0.90527  0.33351  Biso   1.000  H
  N2       1.0000 0.44676  0.96065  0.44448  Biso   1.000  N
  C7       1.0000 0.56217  0.73490  0.65975  Biso   1.000  C
  H5       1.0000 0.57084  0.83411  0.56699  Biso   1.000  H
  H6       1.0000 0.42888  0.97707  0.49500  Biso   1.000  H
  H7       1.0000 0.40793  0.00502  0.40801  Biso   1.000  H
  C8       1.0000 0.59704  0.76869  0.72088  Biso   1.000  C
  H8       1.0000 0.51044  0.71449  0.68630  Biso   1.000  H
  H9       1.0000 0.61709  0.67850  0.64456  Biso   1.000  H
  H10      1.0000 0.61757  0.71842  0.77416  Biso   1.000  H
  H11      1.0000 0.54442  0.82854  0.73305  Biso   1.000  H
  O1       1.0000 0.67800  0.78666  0.68128  Biso   1.000  O
  C9       1.0000 0.72225  0.82388  0.72088  Biso   1.000  C
  C10      1.0000 0.79912  0.84022  0.67757  Biso   1.000  C
  C11      1.0000 0.68986  0.84663  0.79764  Biso   1.000  C
  C12      1.0000 0.84388  0.88106  0.71379  Biso   1.000  C
  C13      1.0000 0.83085  0.81331  0.59316  Biso   1.000  C
  H12      1.0000 0.63713  0.83453  0.82657  Biso   1.000  H
  C14      1.0000 0.73690  0.88803  0.83159  Biso   1.000  C
  C15      1.0000 0.81253  0.90789  0.78998  Biso   1.000  C
  H13      1.0000 0.89784  0.89139  0.68567  Biso   1.000  H
  H14      1.0000 0.77018  0.83539  0.56065  Biso   1.000  H
  C16      1.0000 0.88453  0.70392  0.60565  Biso   1.000  C
  C17      1.0000 0.89404  0.86150  0.53906  Biso   1.000  C
  O2       1.0000 0.70766  0.91534  0.90609  Biso   1.000  O
  C18      1.0000 0.85800  0.95752  0.82638  Biso   1.000  C
  C19      1.0000 0.97011  0.65086  0.65159  Biso   1.000  C
  C20      1.0000 0.85196  0.65330  0.56805  Biso   1.000  C
  H15      1.0000 0.91719  0.83447  0.48910  Biso   1.000  H
  H16      1.0000 0.95228  0.84466  0.57188  Biso   1.000  H
  C21      1.0000 0.84088  0.97178  0.50987  Biso   1.000  C
  C22      1.0000 0.64100  0.88293  0.95793  Biso   1.000  C
  C23      1.0000 0.93564  0.89003  0.89278  Biso   1.000  C
  H17      1.0000 0.80402  0.00227  0.85588  Biso   1.000  H
  C24      1.0000 0.89943  0.02097  0.76186  Biso   1.000  C
  H18      1.0000 0.99298  0.68440  0.67707  Biso   1.000  H
  C25      1.0000 0.02471  0.55146  0.66295  Biso   1.000  C
  C26      1.0000 0.90420  0.55406  0.57885  Biso   1.000  C
  O3       1.0000 0.76877  0.70518  0.51954  Biso   1.000  O
  H19      1.0000 0.82164  0.99971  0.55889  Biso   1.000  H
  H20      1.0000 0.88448  0.99699  0.47398  Biso   1.000  H
  H21      1.0000 0.78247  0.98939  0.47805  Biso   1.000  H
  H22      1.0000 0.67046  0.81211  0.97418  Biso   1.000  H
  H23      1.0000 0.58051  0.90661  0.92699  Biso   1.000  H
  H24      1.0000 0.62656  0.90784  0.00845  Biso   1.000  H
  C27      1.0000 0.93801  0.91762  0.96527  Biso   1.000  C
  C28      1.0000 0.01160  0.80475  0.88105  Biso   1.000  C
  H25      1.0000 0.94874  0.98077  0.72709  Biso   1.000  H
  H26      1.0000 0.93289  0.04457  0.79224  Biso   1.000  H
  C29      1.0000 0.82251  0.10752  0.70450  Biso   1.000  C
  C30      1.0000 0.98751  0.50375  0.62699  Biso   1.000  C
  C31      1.0000 0.12580  0.49990  0.70406  Biso   1.000  C
  H27      1.0000 0.88208  0.52040  0.55255  Biso   1.000  H
  C32      1.0000 0.74039  0.65427  0.47598  Biso   1.000  C
  O4       1.0000 0.86389  0.00361  0.97651  Biso   1.000  O
  C33      1.0000 0.01491  0.86447  0.02107  Biso   1.000  C
  C34      1.0000 0.08997  0.74750  0.93596  Biso   1.000  C
  H28      1.0000 0.01014  0.78401  0.83266  Biso   1.000  H
  H29      1.0000 0.77270  0.14746  0.73839  Biso   1.000  H
  H30      1.0000 0.85354  0.14603  0.66665  Biso   1.000  H
  H31      1.0000 0.79182  0.08496  0.67136  Biso   1.000  H
  O5       1.0000 0.03808  0.40444  0.64080  Biso   1.000  O
  H32      1.0000 0.14872  0.42935  0.70808  Biso   1.000  H
  C35      1.0000 0.12441  0.51030  0.79387  Biso   1.000  C
  C36      1.0000 0.19807  0.53228  0.64557  Biso   1.000  C
  H33      1.0000 0.72687  0.60360  0.51665  Biso   1.000  H
  H34      1.0000 0.68137  0.69956  0.44297  Biso   1.000  H
  H35      1.0000 0.79333  0.62496  0.43839  Biso   1.000  H
  C37      1.0000 0.82667  0.00358  0.05898  Biso   1.000  C
  H36      1.0000 0.01582  0.88524  0.06958  Biso   1.000  H
  C38      1.0000 0.09112  0.78014  0.00619  Biso   1.000  C
  C39      1.0000 0.17627  0.65934  0.91695  Biso   1.000  C
  C40      1.0000 0.98771  0.35380  0.62178  Biso   1.000  C
  C41      1.0000 0.14229  0.58118  0.81295  Biso   1.000  C
  C42      1.0000 0.10947  0.44281  0.86027  Biso   1.000  C
  H37      1.0000 0.18091  0.60050  0.64437  Biso   1.000  H
  H38      1.0000 0.19036  0.52949  0.58795  Biso   1.000  H
  C43      1.0000 0.30426  0.47212  0.67105  Biso   1.000  C
  H39      1.0000 0.81243  0.94658  0.08245  Biso   1.000  H
  H40      1.0000 0.87510  0.00132  0.09557  Biso   1.000  H
  C44      1.0000 0.73429  0.09549  0.05408  Biso   1.000  C
  O6       1.0000 0.17027  0.72571  0.05879  Biso   1.000  O
  C45      1.0000 0.14645  0.58807  0.89498  Biso   1.000  C
  H41      1.0000 0.21507  0.62432  0.96985  Biso   1.000  H
  C46      1.0000 0.24246  0.69255  0.85174  Biso   1.000  C
  H42      1.0000 0.91773  0.38449  0.63665  Biso   1.000  H
  H43      1.0000 0.99260  0.35675  0.56096  Biso   1.000  H
  C47      1.0000 0.03280  0.25078  0.67086  Biso   1.000  C
  H44      1.0000 0.15217  0.62796  0.76789  Biso   1.000  H
  C48      1.0000 0.10996  0.44729  0.94318  Biso   1.000  C
  O7       1.0000 0.09259  0.37312  0.83944  Biso   1.000  O
  H45      1.0000 0.32149  0.40396  0.67456  Biso   1.000  H
  H46      1.0000 0.34588  0.49406  0.62906  Biso   1.000  H
  H47      1.0000 0.31410  0.47928  0.72584  Biso   1.000  H
  N3       1.0000 0.66527  0.10437  0.99508  Biso   1.000  N
  H48      1.0000 0.75063  0.15176  0.03619  Biso   1.000  H
  H49      1.0000 0.70382  0.09549  0.11038  Biso   1.000  H
  C49      1.0000 0.17410  0.75995  0.12958  Biso   1.000  C
  C50      1.0000 0.12909  0.51882  0.95944  Biso   1.000  C
  H50      1.0000 0.25277  0.74292  0.86843  Biso   1.000  H
  H51      1.0000 0.20887  0.72201  0.79688  Biso   1.000  H
  C51      1.0000 0.34167  0.61098  0.84176  Biso   1.000  C
  H52      1.0000 0.99463  0.21716  0.66169  Biso   1.000  H
  H53      1.0000 0.02958  0.24891  0.73136  Biso   1.000  H
  N4       1.0000 0.13313  0.20015  0.64757  Biso   1.000  N
  H54      1.0000 0.09740  0.40188  0.98787  Biso   1.000  H
  C52      1.0000 0.08568  0.29701  0.90508  Biso   1.000  C
  C53      1.0000 0.57576  0.18578  0.98008  Biso   1.000  C
  H55      1.0000 0.69594  0.08804  0.95498  Biso   1.000  H
  H56      1.0000 0.11914  0.76032  0.16730  Biso   1.000  H
  H57      1.0000 0.23565  0.71716  0.15964  Biso   1.000  H
  H58      1.0000 0.17010  0.82567  0.11025  Biso   1.000  H
  O8       1.0000 0.13203  0.52737  0.03958  Biso   1.000  O
  H59      1.0000 0.33225  0.56099  0.82444  Biso   1.000  H
  H60      1.0000 0.37999  0.63679  0.79895  Biso   1.000  H
  H61      1.0000 0.37656  0.58278  0.89536  Biso   1.000  H
  C54      1.0000 0.18024  0.09917  0.67607  Biso   1.000  C
  H62      1.0000 0.17390  0.24008  0.63898  Biso   1.000  H
  H63      1.0000 0.02768  0.32353  0.93935  Biso   1.000  H
  H64      1.0000 0.08030  0.24938  0.88086  Biso   1.000  H
  H65      1.0000 0.14420  0.26564  0.94023  Biso   1.000  H
  C55      1.0000 0.52411  0.20709  0.90678  Biso   1.000  C
  C56      1.0000 0.53337  0.24301  0.03739  Biso   1.000  C
  C57      1.0000 0.14995  0.44473  0.10900  Biso   1.000  C
  C58      1.0000 0.13191  0.04435  0.71856  Biso   1.000  C
  C59      1.0000 0.27863  0.05299  0.65517  Biso   1.000  C
  C60      1.0000 0.43470  0.28533  0.89159  Biso   1.000  C
  N5       1.0000 0.56998  0.15156  0.84766  Biso   1.000  N
  H66      1.0000 0.56684  0.22902  0.08759  Biso   1.000  H
  C61      1.0000 0.44240  0.32052  0.02107  Biso   1.000  C
  H67      1.0000 0.08983  0.43445  0.12418  Biso   1.000  H
  H68      1.0000 0.20175  0.38582  0.09475  Biso   1.000  H
  C62      1.0000 0.18207  0.46705  0.18080  Biso   1.000  C
  C63      1.0000 0.17954  0.94405  0.74165  Biso   1.000  C
  H69      1.0000 0.06482  0.07565  0.73224  Biso   1.000  H
  C64      1.0000 0.32588  0.95311  0.67927  Biso   1.000  C
  N6       1.0000 0.32810  0.10955  0.61249  Biso   1.000  N
  C65      1.0000 0.39406  0.34148  0.94776  Biso   1.000  C
  H70      1.0000 0.40079  0.30063  0.84126  Biso   1.000  H
  H71      1.0000 0.52292  0.17306  0.80699  Biso   1.000  H
  H72      1.0000 0.60190  0.09006  0.87295  Biso   1.000  H
  H73      1.0000 0.41328  0.35909  0.06036  Biso   1.000  H
  H74      1.0000 0.19564  0.41246  0.23094  Biso   1.000  H
  H75      1.0000 0.12944  0.52566  0.19485  Biso   1.000  H
  N7       1.0000 0.26968  0.48271  0.15569  Biso   1.000  N
  H76      1.0000 0.14517  0.90714  0.77077  Biso   1.000  H
  C66      1.0000 0.27686  0.89836  0.72226  Biso   1.000  C
  H77      1.0000 0.39316  0.92165  0.66615  Biso   1.000  H
  H78      1.0000 0.28690  0.16908  0.56498  Biso   1.000  H
  H79      1.0000 0.39292  0.07105  0.59699  Biso   1.000  H
  H80      1.0000 0.33228  0.39531  0.93634  Biso   1.000  H
  C67      1.0000 0.30997  0.51235  0.20734  Biso   1.000  C
  H81      1.0000 0.26296  0.51907  0.10297  Biso   1.000  H
  H82      1.0000 0.31012  0.82983  0.73808  Biso   1.000  H
  C68      1.0000 0.28034  0.51256  0.29069  Biso   1.000  C
  C69      1.0000 0.38314  0.54407  0.17395  Biso   1.000  C
  H83      1.0000 0.22984  0.49318  0.31328  Biso   1.000  H
  C70      1.0000 0.32416  0.54085  0.34065  Biso   1.000  C
  C71      1.0000 0.42722  0.57034  0.22536  Biso   1.000  C
  N8       1.0000 0.40874  0.54985  0.08948  Biso   1.000  N
  H84      1.0000 0.30332  0.54145  0.39707  Biso   1.000  H
  C72      1.0000 0.39829  0.56826  0.30789  Biso   1.000  C
  H85      1.0000 0.47774  0.59005  0.20358  Biso   1.000  H
  H86      1.0000 0.36297  0.57902  0.05898  Biso   1.000  H
  H87      1.0000 0.45396  0.57201  0.07498  Biso   1.000  H
  H88      1.0000 0.42970  0.58578  0.34247  Biso   1.000  H
  C73      1.0000 0.53781  0.31110  0.54665  Biso   1.000  C
  C74      1.0000 0.50500  0.29647  0.47900  Biso   1.000  C
  H89      1.0000 0.53331  0.37326  0.54508  Biso   1.000  H
  C75      1.0000 0.57679  0.23627  0.61575  Biso   1.000  C
  C76      1.0000 0.50903  0.20705  0.48201  Biso   1.000  C
  H90      1.0000 0.47979  0.34809  0.43067  Biso   1.000  H
  C77      1.0000 0.58295  0.14645  0.61845  Biso   1.000  C
  H91      1.0000 0.59960  0.24660  0.66176  Biso   1.000  H
  N9       1.0000 0.47606  0.18763  0.41567  Biso   1.000  N
  C78      1.0000 0.55009  0.13057  0.55149  Biso   1.000  C
  H92      1.0000 0.60964  0.09485  0.66646  Biso   1.000  H
  C79      1.0000 0.43764  0.26523  0.34017  Biso   1.000  C
  H93      1.0000 0.42897  0.16601  0.43299  Biso   1.000  H
  N10      1.0000 0.55306  0.03947  0.55550  Biso   1.000  N
  C80      1.0000 0.40278  0.23143  0.27910  Biso   1.000  C
  H94      1.0000 0.48938  0.28563  0.31368  Biso   1.000  H
  H95      1.0000 0.38272  0.32164  0.35536  Biso   1.000  H
  H96      1.0000 0.57093  0.02305  0.50498  Biso   1.000  H
  H97      1.0000 0.59189  0.99510  0.59197  Biso   1.000  H
  O9       1.0000 0.32182  0.21346  0.31870  Biso   1.000  O
  H98      1.0000 0.38225  0.28170  0.22582  Biso   1.000  H
  H99      1.0000 0.45536  0.17167  0.26686  Biso   1.000  H
  C81      1.0000 0.27756  0.17623  0.27910  Biso   1.000  C
  C82      1.0000 0.20067  0.15997  0.32241  Biso   1.000  C
  C83      1.0000 0.30995  0.15351  0.20228  Biso   1.000  C
  C84      1.0000 0.15594  0.11906  0.28619  Biso   1.000  C
  C85      1.0000 0.16896  0.18683  0.40676  Biso   1.000  C
  H100     1.0000 0.36269  0.16559  0.17341  Biso   1.000  H
  C86      1.0000 0.26292  0.11209  0.16839  Biso   1.000  C
  C87      1.0000 0.18729  0.09222  0.21000  Biso   1.000  C
  H101     1.0000 0.10198  0.10872  0.31431  Biso   1.000  H
  H102     1.0000 0.22964  0.16474  0.43927  Biso   1.000  H
  C88      1.0000 0.11528  0.29622  0.39427  Biso   1.000  C
  C89      1.0000 0.10578  0.13864  0.46086  Biso   1.000  C
  O10      1.0000 0.29216  0.08480  0.09383  Biso   1.000  O
  C90      1.0000 0.14182  0.04260  0.17360  Biso   1.000  C
  C91      1.0000 0.02971  0.34926  0.34839  Biso   1.000  C
  C92      1.0000 0.14785  0.34684  0.43186  Biso   1.000  C
  H103     1.0000 0.08263  0.16565  0.51088  Biso   1.000  H
  H104     1.0000 0.04753  0.15546  0.42810  Biso   1.000  H
  C93      1.0000 0.15894  0.02834  0.49010  Biso   1.000  C
  C94      1.0000 0.35881  0.11720  0.04199  Biso   1.000  C
  C95      1.0000 0.06417  0.11009  0.10720  Biso   1.000  C
  H105     1.0000 0.19580  0.99785  0.14410  Biso   1.000  H
  C96      1.0000 0.10039  0.97915  0.23812  Biso   1.000  C
  H106     1.0000 0.00684  0.31572  0.32291  Biso   1.000  H
  C97      1.0000 0.97511  0.44867  0.33697  Biso   1.000  C
  C98      1.0000 0.09562  0.44608  0.42107  Biso   1.000  C
  O11      1.0000 0.23105  0.29494  0.48044  Biso   1.000  O
  H107     1.0000 0.17817  0.00041  0.44109  Biso   1.000  H
  H108     1.0000 0.11533  0.00313  0.52600  Biso   1.000  H
  H109     1.0000 0.21734  0.01074  0.52186  Biso   1.000  H
  H110     1.0000 0.32935  0.18801  0.02579  Biso   1.000  H
  H111     1.0000 0.41930  0.09351  0.07299  Biso   1.000  H
  H112     1.0000 0.37326  0.09230  0.99146  Biso   1.000  H
  C99      1.0000 0.06181  0.08250  0.03471  Biso   1.000  C
  C100     1.0000 0.98818  0.19546  0.11887  Biso   1.000  C
  H113     1.0000 0.05108  0.01934  0.27289  Biso   1.000  H
  H114     1.0000 0.06693  0.95556  0.20768  Biso   1.000  H
  C101     1.0000 0.17731  0.89260  0.29548  Biso   1.000  C
  C102     1.0000 0.01230  0.49637  0.37299  Biso   1.000  C
  C103     1.0000 0.87401  0.50023  0.29586  Biso   1.000  C
  H115     1.0000 0.11774  0.47974  0.44736  Biso   1.000  H
  C104     1.0000 0.25942  0.34585  0.52400  Biso   1.000  C
  C105     1.0000 0.98490  0.13566  0.97885  Biso   1.000  C
  O12      1.0000 0.13592  0.99651  0.02347  Biso   1.000  O
  C106     1.0000 0.90985  0.25262  0.06402  Biso   1.000  C
  H116     1.0000 0.98968  0.21611  0.16732  Biso   1.000  H
  H117     1.0000 0.22711  0.85266  0.26159  Biso   1.000  H
  H118     1.0000 0.14627  0.85411  0.33326  Biso   1.000  H
  H119     1.0000 0.20799  0.91518  0.32856  Biso   1.000  H
  O13      1.0000 0.96174  0.59568  0.35918  Biso   1.000  O
  H120     1.0000 0.85110  0.57077  0.29190  Biso   1.000  H
  C107     1.0000 0.87541  0.48982  0.20611  Biso   1.000  C
  C108     1.0000 0.80174  0.46784  0.35441  Biso   1.000  C
  H121     1.0000 0.27294  0.39654  0.48326  Biso   1.000  H
  H122     1.0000 0.31844  0.30058  0.55695  Biso   1.000  H
  H123     1.0000 0.20649  0.37515  0.56159  Biso   1.000  H
  H124     1.0000 0.98399  0.11487  0.93040  Biso   1.000  H
  C109     1.0000 0.90870  0.21998  0.99379  Biso   1.000  C
  C110     1.0000 0.17314  0.99654  0.94100  Biso   1.000  C
  C111     1.0000 0.82355  0.34079  0.08297  Biso   1.000  C
  C112     1.0000 0.01207  0.64639  0.37820  Biso   1.000  C
  C113     1.0000 0.85753  0.41896  0.18697  Biso   1.000  C
  C114     1.0000 0.89035  0.55731  0.13971  Biso   1.000  C
  H125     1.0000 0.81891  0.39962  0.35561  Biso   1.000  H
  H126     1.0000 0.80945  0.47065  0.41197  Biso   1.000  H
  C115     1.0000 0.69552  0.52808  0.32887  Biso   1.000  C
  O14      1.0000 0.82955  0.27441  0.94119  Biso   1.000  O
  H127     1.0000 0.12468  0.99889  0.90435  Biso   1.000  H
  C116     1.0000 0.26552  0.90463  0.94590  Biso   1.000  C
  H128     1.0000 0.18739  0.05356  0.91747  Biso   1.000  H
  C117     1.0000 0.85336  0.41204  0.10500  Biso   1.000  C
  H129     1.0000 0.78474  0.37580  0.03013  Biso   1.000  H
  C118     1.0000 0.75732  0.30766  0.14818  Biso   1.000  C
  H130     1.0000 0.08209  0.61565  0.36326  Biso   1.000  H
  H131     1.0000 0.00722  0.64339  0.43895  Biso   1.000  H
  C119     1.0000 0.96701  0.74936  0.32906  Biso   1.000  C
  H132     1.0000 0.84765  0.37216  0.23209  Biso   1.000  H
  C120     1.0000 0.88986  0.55283  0.05680  Biso   1.000  C
  O15      1.0000 0.90723  0.62700  0.16054  Biso   1.000  O
  H133     1.0000 0.67832  0.59618  0.32536  Biso   1.000  H
  H134     1.0000 0.65393  0.50608  0.37086  Biso   1.000  H
  H135     1.0000 0.68572  0.52085  0.27408  Biso   1.000  H
  C121     1.0000 0.82571  0.24017  0.87040  Biso   1.000  C
  H136     1.0000 0.24918  0.84836  0.96379  Biso   1.000  H
  H137     1.0000 0.29600  0.90463  0.88960  Biso   1.000  H
  N11      1.0000 0.33454  0.89575  0.00490  Biso   1.000  N
  C122     1.0000 0.87079  0.48131  0.04048  Biso   1.000  C
  H138     1.0000 0.74704  0.25721  0.13149  Biso   1.000  H
  H139     1.0000 0.79095  0.27811  0.20310  Biso   1.000  H
  C123     1.0000 0.65815  0.38914  0.15822  Biso   1.000  C
  H140     1.0000 0.00518  0.78296  0.33828  Biso   1.000  H
  H141     1.0000 0.97024  0.75121  0.26862  Biso   1.000  H
  N12      1.0000 0.86668  0.79997  0.35241  Biso   1.000  N
  H142     1.0000 0.90242  0.59824  0.01211  Biso   1.000  H
  C124     1.0000 0.91413  0.70310  0.09490  Biso   1.000  C
  H143     1.0000 0.88068  0.23980  0.83268  Biso   1.000  H
  H144     1.0000 0.76417  0.28298  0.84027  Biso   1.000  H
  H145     1.0000 0.82972  0.17446  0.88967  Biso   1.000  H
  C125     1.0000 0.42405  0.81434  0.01990  Biso   1.000  C
  H146     1.0000 0.30388  0.91207  0.04500  Biso   1.000  H
  O16      1.0000 0.86778  0.47275  0.96040  Biso   1.000  O
  H147     1.0000 0.66757  0.43914  0.17548  Biso   1.000  H
  H148     1.0000 0.61983  0.36335  0.20096  Biso   1.000  H
  H149     1.0000 0.62326  0.41734  0.10462  Biso   1.000  H
  C126     1.0000 0.81958  0.90094  0.32391  Biso   1.000  C
  H150     1.0000 0.82591  0.76004  0.36100  Biso   1.000  H
  H151     1.0000 0.97213  0.67659  0.06063  Biso   1.000  H
  H152     1.0000 0.91952  0.75074  0.11912  Biso   1.000  H
  H153     1.0000 0.85558  0.73457  0.05969  Biso   1.000  H
  C127     1.0000 0.46644  0.75710  0.96259  Biso   1.000  C
  C128     1.0000 0.47567  0.79310  0.09320  Biso   1.000  C
  C129     1.0000 0.84987  0.55539  0.89098  Biso   1.000  C
  C130     1.0000 0.86791  0.95578  0.28136  Biso   1.000  C
  C131     1.0000 0.72119  0.94712  0.34481  Biso   1.000  C
  H154     1.0000 0.43295  0.77117  0.91238  Biso   1.000  H
  C132     1.0000 0.55742  0.67962  0.97885  Biso   1.000  C
  C133     1.0000 0.56512  0.71479  0.10839  Biso   1.000  C
  N13      1.0000 0.42984  0.84856  0.15232  Biso   1.000  N
  H155     1.0000 0.90999  0.56567  0.87579  Biso   1.000  H
  H156     1.0000 0.79807  0.61432  0.90517  Biso   1.000  H
  C134     1.0000 0.81774  0.53307  0.81918  Biso   1.000  C
  H157     1.0000 0.93499  0.92448  0.26768  Biso   1.000  H
  C135     1.0000 0.82027  0.05609  0.25826  Biso   1.000  C
  N14      1.0000 0.67171  0.89057  0.38749  Biso   1.000  N
  C136     1.0000 0.67394  0.04701  0.32071  Biso   1.000  C
  H158     1.0000 0.58654  0.64104  0.93956  Biso   1.000  H
  C137     1.0000 0.60575  0.65864  0.05222  Biso   1.000  C
  H159     1.0000 0.59903  0.69949  0.15872  Biso   1.000  H
  H160     1.0000 0.47690  0.82706  0.19299  Biso   1.000  H
  H161     1.0000 0.39792  0.91008  0.12697  Biso   1.000  H
  H162     1.0000 0.80417  0.58767  0.76897  Biso   1.000  H
  H163     1.0000 0.87037  0.47447  0.80506  Biso   1.000  H
  N15      1.0000 0.73013  0.51741  0.84429  Biso   1.000  N
  H164     1.0000 0.85465  0.09298  0.22921  Biso   1.000  H
  C138     1.0000 0.72296  0.10178  0.27766  Biso   1.000  C
  H165     1.0000 0.71291  0.83104  0.43500  Biso   1.000  H
  H166     1.0000 0.60689  0.92907  0.40299  Biso   1.000  H
  H167     1.0000 0.60666  0.07849  0.33377  Biso   1.000  H
  H168     1.0000 0.66750  0.60490  0.06358  Biso   1.000  H
  C139     1.0000 0.68984  0.48779  0.79257  Biso   1.000  C
  H169     1.0000 0.73682  0.48111  0.89701  Biso   1.000  H
  H170     1.0000 0.68969  0.17029  0.26190  Biso   1.000  H
  C140     1.0000 0.71947  0.48756  0.70929  Biso   1.000  C
  C141     1.0000 0.61668  0.45607  0.82596  Biso   1.000  C
  H171     1.0000 0.76995  0.50700  0.68669  Biso   1.000  H
  C142     1.0000 0.67566  0.45929  0.65927  Biso   1.000  C
  C143     1.0000 0.57259  0.42979  0.77456  Biso   1.000  C
  N16      1.0000 0.59108  0.45026  0.91050  Biso   1.000  N
  H172     1.0000 0.69650  0.45867  0.60291  Biso   1.000  H
  C144     1.0000 0.60153  0.43186  0.69209  Biso   1.000  C
  H173     1.0000 0.52208  0.41007  0.79640  Biso   1.000  H
  H174     1.0000 0.63684  0.42110  0.94100  Biso   1.000  H
  H175     1.0000 0.54585  0.42811  0.92500  Biso   1.000  H
  H176     1.0000 0.57012  0.41434  0.65751  Biso   1.000  H
