data_image0
_cell_length_a       10.426
_cell_length_b       13.589
_cell_length_c       13.739
_cell_angle_alpha    68.7
_cell_angle_beta     78.25
_cell_angle_gamma    85.16

_symmetry_space_group_name_H-M    "P 1"
_symmetry_int_tables_number       1

loop_
  _symmetry_equiv_pos_as_xyz
  'x, y, z'

loop_
  _atom_site_label
  _atom_site_occupancy
  _atom_site_fract_x
  _atom_site_fract_y
  _atom_site_fract_z
  _atom_site_thermal_displace_type
  _atom_site_B_iso_or_equiv
  _atom_site_type_symbol
  O1       1.0000 0.20809  0.31923  0.82329  Biso   1.000  O
  C1       1.0000 0.29923  0.26701  0.76883  Biso   1.000  C
  H1       1.0000 0.14699  0.25405  0.87895  Biso   1.000  H
  C2       1.0000 0.38280  0.33325  0.67977  Biso   1.000  C
  C3       1.0000 0.30949  0.15537  0.80103  Biso   1.000  C
  C4       1.0000 0.48437  0.28802  0.62180  Biso   1.000  C
  C5       1.0000 0.36604  0.45379  0.64598  Biso   1.000  C
  C6       1.0000 0.41189  0.11280  0.74139  Biso   1.000  C
  C7       1.0000 0.21587  0.08210  0.89327  Biso   1.000  C
  C8       1.0000 0.49825  0.17660  0.65401  Biso   1.000  C
  H2       1.0000 0.55298  0.32603  0.55501  Biso   1.000  H
  C9       1.0000 0.42006  0.50398  0.71293  Biso   1.000  C
  H3       1.0000 0.40503  0.49198  0.56296  Biso   1.000  H
  H4       1.0000 0.26797  0.47400  0.64502  Biso   1.000  H
  H5       1.0000 0.40900  0.02504  0.76596  Biso   1.000  H
  C10      1.0000 0.08252  0.07384  0.86639  Biso   1.000  C
  H6       1.0000 0.20604  0.10500  0.95696  Biso   1.000  H
  H7       1.0000 0.26201  0.01100  0.90702  Biso   1.000  H
  H8       1.0000 0.58505  0.14302  0.60701  Biso   1.000  H
  C11      1.0000 0.38556  0.60976  0.70593  Biso   1.000  C
  C12      1.0000 0.50628  0.44735  0.78226  Biso   1.000  C
  C13      1.0000 0.06381  0.00480  0.81606  Biso   1.000  C
  C14      1.0000 0.97612  0.13978  0.88738  Biso   1.000  C
  O2       1.0000 0.30305  0.67242  0.63922  Biso   1.000  O
  C15      1.0000 0.43219  0.65714  0.76827  Biso   1.000  C
  C16      1.0000 0.55553  0.49279  0.84317  Biso   1.000  C
  H9       1.0000 0.53102  0.36502  0.79101  Biso   1.000  H
  C17      1.0000 0.94455  0.00172  0.78457  Biso   1.000  C
  H10      1.0000 0.13000  0.95098  0.80699  Biso   1.000  H
  O3       1.0000 0.99760  0.20777  0.93923  Biso   1.000  O
  C18      1.0000 0.85705  0.14312  0.85256  Biso   1.000  C
  H11      1.0000 0.27204  0.64401  0.59199  Biso   1.000  H
  C19      1.0000 0.51816  0.59684  0.83649  Biso   1.000  C
  C20      1.0000 0.39017  0.77100  0.75849  Biso   1.000  C
  H12      1.0000 0.60602  0.44698  0.90003  Biso   1.000  H
  H13      1.0000 0.93901  0.95098  0.74203  Biso   1.000  H
  C21      1.0000 0.84300  0.07200  0.80183  Biso   1.000  C
  C22      1.0000 0.74819  0.22503  0.86257  Biso   1.000  C
  H14      1.0000 0.55403  0.63502  0.88198  Biso   1.000  H
  C23      1.0000 0.41884  0.80159  0.84961  Biso   1.000  C
  H15      1.0000 0.44199  0.82701  0.68001  Biso   1.000  H
  H16      1.0000 0.27505  0.78099  0.76199  Biso   1.000  H
  H17      1.0000 0.77105  0.07504  0.76596  Biso   1.000  H
  C24      1.0000 0.65134  0.19820  0.96785  Biso   1.000  C
  H18      1.0000 0.70302  0.23999  0.79602  Biso   1.000  H
  H19      1.0000 0.78706  0.28603  0.84500  Biso   1.000  H
  C25      1.0000 0.32740  0.77714  0.94519  Biso   1.000  C
  C26      1.0000 0.53642  0.85069  0.84063  Biso   1.000  C
  C27      1.0000 0.53367  0.14813  0.97938  Biso   1.000  C
  C28      1.0000 0.67258  0.22296  0.05476  Biso   1.000  C
  O4       1.0000 0.20826  0.73190  0.95306  Biso   1.000  O
  C29      1.0000 0.34875  0.80183  0.03210  Biso   1.000  C
  C30      1.0000 0.55987  0.87679  0.92627  Biso   1.000  C
  H20      1.0000 0.61104  0.87298  0.76501  Biso   1.000  H
  H21      1.0000 0.50900  0.11999  0.92698  Biso   1.000  H
  C31      1.0000 0.44022  0.12324  0.07369  Biso   1.000  C
  O5       1.0000 0.79182  0.26813  0.04689  Biso   1.000  O
  C32      1.0000 0.58124  0.19844  0.15034  Biso   1.000  C
  H22      1.0000 0.20700  0.67102  0.96698  Biso   1.000  H
  C33      1.0000 0.46642  0.85190  0.02057  Biso   1.000  C
  C34      1.0000 0.25179  0.77507  0.13738  Biso   1.000  C
  H23      1.0000 0.65702  0.91197  0.91402  Biso   1.000  H
  C35      1.0000 0.46365  0.14931  0.15940  Biso   1.000  C
  H24      1.0000 0.34305  0.08803  0.08601  Biso   1.000  H
  H25      1.0000 0.79299  0.32901  0.03297  Biso   1.000  H
  C36      1.0000 0.60992  0.22903  0.24146  Biso   1.000  C
  H26      1.0000 0.49108  0.88003  0.07297  Biso   1.000  H
  C37      1.0000 0.14304  0.85691  0.14740  Biso   1.000  C
  H27      1.0000 0.29705  0.76000  0.20401  Biso   1.000  H
  H28      1.0000 0.21302  0.71408  0.15495  Biso   1.000  H
  H29      1.0000 0.38904  0.12705  0.23494  Biso   1.000  H
  C38      1.0000 0.56779  0.34296  0.23168  Biso   1.000  C
  H30      1.0000 0.55799  0.17301  0.31994  Biso   1.000  H
  H31      1.0000 0.72504  0.21904  0.23796  Biso   1.000  H
  C39      1.0000 0.02397  0.86025  0.11257  Biso   1.000  C
  C40      1.0000 0.15707  0.92800  0.19821  Biso   1.000  C
  C41      1.0000 0.61451  0.39023  0.29410  Biso   1.000  C
  C42      1.0000 0.48192  0.40326  0.16346  Biso   1.000  C
  C43      1.0000 0.91756  0.92626  0.13356  Biso   1.000  C
  O6       1.0000 0.00247  0.79223  0.06080  Biso   1.000  O
  C44      1.0000 0.05553  0.99831  0.21538  Biso   1.000  C
  H32      1.0000 0.22903  0.92506  0.23399  Biso   1.000  H
  O7       1.0000 0.69703  0.32769  0.36073  Biso   1.000  O
  C45      1.0000 0.58001  0.49602  0.28710  Biso   1.000  C
  C46      1.0000 0.44456  0.50724  0.15678  Biso   1.000  C
  H33      1.0000 0.44606  0.36501  0.11798  Biso   1.000  H
  C47      1.0000 0.93627  0.99522  0.18389  Biso   1.000  C
  C48      1.0000 0.78422  0.91793  0.10668  Biso   1.000  C
  H34      1.0000 0.06096  0.04902  0.25800  Biso   1.000  H
  H35      1.0000 0.72804  0.35602  0.40796  Biso   1.000  H
  C49      1.0000 0.63404  0.54623  0.35397  Biso   1.000  C
  C50      1.0000 0.49380  0.55276  0.21769  Biso   1.000  C
  H36      1.0000 0.39404  0.55302  0.10000  Biso   1.000  H
  H37      1.0000 0.87000  0.04897  0.19296  Biso   1.000  H
  C51      1.0000 0.69058  0.84463  0.19900  Biso   1.000  C
  H38      1.0000 0.79404  0.89503  0.04299  Biso   1.000  H
  H39      1.0000 0.73806  0.98900  0.09301  Biso   1.000  H
  C52      1.0000 0.61728  0.66685  0.32018  Biso   1.000  C
  H40      1.0000 0.59506  0.50804  0.43699  Biso   1.000  H
  H41      1.0000 0.73200  0.52600  0.35501  Biso   1.000  H
  H42      1.0000 0.46906  0.63508  0.20894  Biso   1.000  H
  C53      1.0000 0.70083  0.73299  0.23120  Biso   1.000  C
  C54      1.0000 0.58819  0.88723  0.25856  Biso   1.000  C
  C55      1.0000 0.51561  0.71208  0.37815  Biso   1.000  C
  O8       1.0000 0.79199  0.68087  0.17666  Biso   1.000  O
  C56      1.0000 0.50184  0.82342  0.34594  Biso   1.000  C
  H43      1.0000 0.59108  0.97506  0.23399  Biso   1.000  H
  H44      1.0000 0.44700  0.67407  0.44494  Biso   1.000  H
  H45      1.0000 0.85299  0.74605  0.12100  Biso   1.000  H
  H46      1.0000 0.41503  0.85708  0.39294  Biso   1.000  H
