data_image0
_cell_length_a       12.783
_cell_length_b       27.232
_cell_length_c       13.362
_cell_angle_alpha    90
_cell_angle_beta     103.86
_cell_angle_gamma    90

_symmetry_space_group_name_H-M    "P 1"
_symmetry_int_tables_number       1

loop_
  _symmetry_equiv_pos_as_xyz
  'x, y, z'

loop_
  _atom_site_label
  _atom_site_occupancy
  _atom_site_fract_x
  _atom_site_fract_y
  _atom_site_fract_z
  _atom_site_thermal_displace_type
  _atom_site_B_iso_or_equiv
  _atom_site_type_symbol
  O1       1.0000 0.55070  0.44576  0.62191  Biso   1.000  O
  C1       1.0000 0.60289  0.46710  0.69691  Biso   1.000  C
  O2       1.0000 0.67424  0.44444  0.77253  Biso   1.000  O
  C2       1.0000 0.60042  0.52053  0.71487  Biso   1.000  C
  C3       1.0000 0.68576  0.39160  0.75950  Biso   1.000  C
  C4       1.0000 0.66510  0.54139  0.80290  Biso   1.000  C
  C5       1.0000 0.53700  0.55024  0.63871  Biso   1.000  C
  H1       1.0000 0.74284  0.37889  0.81624  Biso   1.000  H
  H2       1.0000 0.61762  0.37518  0.75981  Biso   1.000  H
  H3       1.0000 0.70475  0.38521  0.69383  Biso   1.000  H
  C6       1.0000 0.66863  0.59173  0.81261  Biso   1.000  C
  H4       1.0000 0.70643  0.52119  0.85578  Biso   1.000  H
  H5       1.0000 0.49127  0.53591  0.57921  Biso   1.000  H
  C7       1.0000 0.54120  0.59996  0.65020  Biso   1.000  C
  O3       1.0000 0.73258  0.61362  0.90118  Biso   1.000  O
  C8       1.0000 0.60813  0.62151  0.73692  Biso   1.000  C
  O4       1.0000 0.47636  0.63139  0.57712  Biso   1.000  O
  C9       1.0000 0.83076  0.62911  0.89494  Biso   1.000  C
  O5       1.0000 0.62610  0.67167  0.74463  Biso   1.000  O
  C10      1.0000 0.51962  0.64788  0.50120  Biso   1.000  C
  N1       1.0000 0.88532  0.65206  0.97757  Biso   1.000  N
  N2       1.0000 0.86031  0.61982  0.80737  Biso   1.000  N
  C11      1.0000 0.54654  0.70112  0.76182  Biso   1.000  C
  N3       1.0000 0.61669  0.63242  0.49804  Biso   1.000  N
  N4       1.0000 0.45597  0.67902  0.43791  Biso   1.000  N
  C12      1.0000 0.98152  0.66686  0.96809  Biso   1.000  C
  C13      1.0000 0.95902  0.63539  0.81107  Biso   1.000  C
  N5       1.0000 0.45638  0.68096  0.77068  Biso   1.000  N
  N6       1.0000 0.57539  0.74835  0.76798  Biso   1.000  N
  C14      1.0000 0.64671  0.64902  0.41610  Biso   1.000  C
  C15      1.0000 0.49834  0.69308  0.35998  Biso   1.000  C
  N7       1.0000 0.02522  0.65959  0.88738  Biso   1.000  N
  O6       1.0000 0.03691  0.69194  0.04872  Biso   1.000  O
  O7       1.0000 0.00089  0.62779  0.72898  Biso   1.000  O
  C16      1.0000 0.38986  0.71548  0.78402  Biso   1.000  C
  C17      1.0000 0.49679  0.77673  0.78432  Biso   1.000  C
  O8       1.0000 0.74360  0.63525  0.40315  Biso   1.000  O
  N8       1.0000 0.59293  0.67935  0.34318  Biso   1.000  N
  O9       1.0000 0.44500  0.72400  0.28976  Biso   1.000  O
  C18      1.0000 0.14143  0.70979  0.04533  Biso   1.000  C
  C19      1.0000 0.93401  0.60289  0.64372  Biso   1.000  C
  N9       1.0000 0.40133  0.76304  0.79327  Biso   1.000  N
  O10      1.0000 0.30167  0.69789  0.77924  Biso   1.000  O
  Cl1      1.0000 0.26638  0.69400  0.80074  Biso   1.000  Cl
  Cl2      1.0000 0.52738  0.83791  0.80275  Biso   1.000  Cl
  O11      1.0000 0.52350  0.82330  0.76444  Biso   1.000  O
  C20      1.0000 0.80668  0.60675  0.48169  Biso   1.000  C
  C21      1.0000 0.34002  0.74001  0.30101  Biso   1.000  C
  H6       1.0000 0.13463  0.73248  0.98721  Biso   1.000  H
  H7       1.0000 0.17367  0.72690  0.10969  Biso   1.000  H
  H8       1.0000 0.18742  0.68210  0.03654  Biso   1.000  H
  C22      1.0000 0.93993  0.55332  0.63578  Biso   1.000  C
  C23      1.0000 0.86869  0.63025  0.56687  Biso   1.000  C
  C24      1.0000 0.21233  0.72698  0.80452  Biso   1.000  C
  C25      1.0000 0.43890  0.85708  0.77962  Biso   1.000  C
  C26      1.0000 0.80973  0.55666  0.47229  Biso   1.000  C
  H9       1.0000 0.30874  0.76300  0.24543  Biso   1.000  H
  H10      1.0000 0.29259  0.71152  0.29747  Biso   1.000  H
  H11      1.0000 0.34803  0.75639  0.36769  Biso   1.000  H
  H12      1.0000 0.98739  0.53500  0.68820  Biso   1.000  H
  C27      1.0000 0.87641  0.52934  0.55084  Biso   1.000  C
  O12      1.0000 0.85029  0.68041  0.57712  Biso   1.000  O
  H13      1.0000 0.14921  0.70579  0.79928  Biso   1.000  H
  H14      1.0000 0.23550  0.73979  0.87490  Biso   1.000  H
  H15      1.0000 0.19354  0.75441  0.75603  Biso   1.000  H
  H16      1.0000 0.45874  0.89079  0.76667  Biso   1.000  H
  H17      1.0000 0.37041  0.84860  0.73168  Biso   1.000  H
  H18      1.0000 0.43125  0.85429  0.85062  Biso   1.000  H
  H19      1.0000 0.76707  0.54069  0.41317  Biso   1.000  H
  C28      1.0000 0.87883  0.47499  0.54768  Biso   1.000  C
  C29      1.0000 0.92560  0.71251  0.56232  Biso   1.000  C
  O13      1.0000 0.93197  0.44980  0.61528  Biso   1.000  O
  O14      1.0000 0.81164  0.45645  0.46304  Biso   1.000  O
  N10      1.0000 0.89201  0.75900  0.55909  Biso   1.000  N
  N11      1.0000 0.01936  0.69587  0.55377  Biso   1.000  N
  C30      1.0000 0.80569  0.40276  0.45680  Biso   1.000  C
  C31      1.0000 0.96611  0.78966  0.54760  Biso   1.000  C
  C32      1.0000 0.08112  0.73270  0.54359  Biso   1.000  C
  H20      1.0000 0.75527  0.39299  0.39228  Biso   1.000  H
  H21      1.0000 0.87730  0.38939  0.45849  Biso   1.000  H
  H22      1.0000 0.78054  0.38991  0.51538  Biso   1.000  H
  Cl3      1.0000 0.92364  0.84952  0.53450  Biso   1.000  Cl
  O15      1.0000 0.96004  0.83828  0.57304  Biso   1.000  O
  N12      1.0000 0.06514  0.78055  0.53758  Biso   1.000  N
  O16      1.0000 0.16619  0.71699  0.54652  Biso   1.000  O
  Cl4      1.0000 0.21390  0.71545  0.52586  Biso   1.000  Cl
  C33      1.0000 0.02074  0.87136  0.55053  Biso   1.000  C
  C34      1.0000 0.25960  0.75275  0.53280  Biso   1.000  C
  H23      1.0000 0.99990  0.90339  0.57288  Biso   1.000  H
  H24      1.0000 0.09585  0.86439  0.58553  Biso   1.000  H
  H25      1.0000 0.01331  0.87181  0.47584  Biso   1.000  H
  H26      1.0000 0.32478  0.73370  0.53411  Biso   1.000  H
  H27      1.0000 0.23721  0.77001  0.46682  Biso   1.000  H
  H28      1.0000 0.27439  0.77670  0.58907  Biso   1.000  H
  O17      1.0000 0.44929  0.55424  0.37809  Biso   1.000  O
  C35      1.0000 0.39710  0.53290  0.30309  Biso   1.000  C
  C36      1.0000 0.39965  0.47947  0.28513  Biso   1.000  C
  O18      1.0000 0.32583  0.55556  0.22747  Biso   1.000  O
  C37      1.0000 0.33489  0.45861  0.19710  Biso   1.000  C
  C38      1.0000 0.46299  0.44976  0.36129  Biso   1.000  C
  C39      1.0000 0.31423  0.60840  0.24050  Biso   1.000  C
  C40      1.0000 0.33136  0.40827  0.18739  Biso   1.000  C
  H29      1.0000 0.29364  0.47881  0.14422  Biso   1.000  H
  C41      1.0000 0.45879  0.40004  0.34980  Biso   1.000  C
  H30      1.0000 0.50872  0.46409  0.42080  Biso   1.000  H
  H31      1.0000 0.25723  0.62111  0.18377  Biso   1.000  H
  H32      1.0000 0.38237  0.62482  0.24019  Biso   1.000  H
  H33      1.0000 0.29532  0.61479  0.30618  Biso   1.000  H
  C42      1.0000 0.39193  0.37849  0.26309  Biso   1.000  C
  O19      1.0000 0.26741  0.38638  0.09882  Biso   1.000  O
  O20      1.0000 0.52371  0.36861  0.42288  Biso   1.000  O
  O21      1.0000 0.37389  0.32833  0.25538  Biso   1.000  O
  C43      1.0000 0.16931  0.37089  0.10506  Biso   1.000  C
  C44      1.0000 0.48037  0.35212  0.49881  Biso   1.000  C
  C45      1.0000 0.45352  0.29888  0.23819  Biso   1.000  C
  N13      1.0000 0.11475  0.34794  0.02243  Biso   1.000  N
  N14      1.0000 0.13968  0.38018  0.19263  Biso   1.000  N
  N15      1.0000 0.38330  0.36758  0.50197  Biso   1.000  N
  N16      1.0000 0.54402  0.32098  0.56209  Biso   1.000  N
  N17      1.0000 0.42460  0.25165  0.23202  Biso   1.000  N
  N18      1.0000 0.54362  0.31904  0.22932  Biso   1.000  N
  C46      1.0000 0.01847  0.33314  0.03191  Biso   1.000  C
  C47      1.0000 0.04105  0.36461  0.18893  Biso   1.000  C
  C48      1.0000 0.35328  0.35098  0.58391  Biso   1.000  C
  C49      1.0000 0.50173  0.30692  0.64002  Biso   1.000  C
  C50      1.0000 0.50320  0.22327  0.21568  Biso   1.000  C
  C51      1.0000 0.61021  0.28452  0.21599  Biso   1.000  C
  O22      1.0000 0.96316  0.30806  0.95128  Biso   1.000  O
  N19      1.0000 0.97477  0.34041  0.11262  Biso   1.000  N
  O23      1.0000 0.99910  0.37221  0.27103  Biso   1.000  O
  O24      1.0000 0.25647  0.36475  0.59686  Biso   1.000  O
  N20      1.0000 0.40714  0.32065  0.65683  Biso   1.000  N
  O25      1.0000 0.55499  0.27600  0.71025  Biso   1.000  O
  N21      1.0000 0.59874  0.23696  0.20674  Biso   1.000  N
  Cl5      1.0000 0.47261  0.16209  0.19726  Biso   1.000  Cl
  O26      1.0000 0.47649  0.17670  0.23557  Biso   1.000  O
  O27      1.0000 0.69832  0.30211  0.22077  Biso   1.000  O
  Cl6      1.0000 0.73362  0.30600  0.19926  Biso   1.000  Cl
  C52      1.0000 0.85863  0.29021  0.95467  Biso   1.000  C
  C53      1.0000 0.06598  0.39711  0.35628  Biso   1.000  C
  C54      1.0000 0.19331  0.39325  0.51831  Biso   1.000  C
  C55      1.0000 0.66005  0.25999  0.69899  Biso   1.000  C
  C56      1.0000 0.56109  0.14292  0.22038  Biso   1.000  C
  C57      1.0000 0.78774  0.27302  0.19548  Biso   1.000  C
  H34      1.0000 0.82632  0.27310  0.89031  Biso   1.000  H
  H35      1.0000 0.81265  0.31790  0.96346  Biso   1.000  H
  H36      1.0000 0.86536  0.26752  0.01280  Biso   1.000  H
  C58      1.0000 0.06014  0.44668  0.36422  Biso   1.000  C
  C59      1.0000 0.13130  0.36975  0.43313  Biso   1.000  C
  C60      1.0000 0.19034  0.44334  0.52771  Biso   1.000  C
  H37      1.0000 0.69133  0.23700  0.75457  Biso   1.000  H
  H38      1.0000 0.70740  0.28848  0.70254  Biso   1.000  H
  H39      1.0000 0.65203  0.24361  0.63232  Biso   1.000  H
  H40      1.0000 0.54133  0.10921  0.23333  Biso   1.000  H
  H41      1.0000 0.62958  0.15140  0.26833  Biso   1.000  H
  H42      1.0000 0.56882  0.14571  0.14939  Biso   1.000  H
  H43      1.0000 0.85078  0.29421  0.20073  Biso   1.000  H
  H44      1.0000 0.76449  0.26021  0.12511  Biso   1.000  H
  H45      1.0000 0.80653  0.24559  0.24397  Biso   1.000  H
  H46      1.0000 0.01260  0.46500  0.31180  Biso   1.000  H
  C61      1.0000 0.12358  0.47066  0.44917  Biso   1.000  C
  O28      1.0000 0.14970  0.31959  0.42288  Biso   1.000  O
  H47      1.0000 0.23292  0.45931  0.58684  Biso   1.000  H
  C62      1.0000 0.12124  0.52501  0.45233  Biso   1.000  C
  C63      1.0000 0.07439  0.28749  0.43768  Biso   1.000  C
  O29      1.0000 0.06802  0.55020  0.38472  Biso   1.000  O
  O30      1.0000 0.18845  0.54355  0.53704  Biso   1.000  O
  N22      1.0000 0.10798  0.24100  0.44092  Biso   1.000  N
  N23      1.0000 0.98063  0.30413  0.44624  Biso   1.000  N
  C64      1.0000 0.19430  0.59724  0.54321  Biso   1.000  C
  C65      1.0000 0.03388  0.21034  0.45240  Biso   1.000  C
  C66      1.0000 0.91895  0.26730  0.45641  Biso   1.000  C
  H48      1.0000 0.24472  0.60701  0.60773  Biso   1.000  H
  H49      1.0000 0.12269  0.61061  0.54151  Biso   1.000  H
  H50      1.0000 0.21953  0.61009  0.48462  Biso   1.000  H
  Cl7      1.0000 0.07635  0.15048  0.46551  Biso   1.000  Cl
  O31      1.0000 0.03995  0.16172  0.42697  Biso   1.000  O
  N24      1.0000 0.93493  0.21945  0.46242  Biso   1.000  N
  O32      1.0000 0.83388  0.28301  0.45348  Biso   1.000  O
  Cl8      1.0000 0.78610  0.28455  0.47414  Biso   1.000  Cl
  C67      1.0000 0.97925  0.12864  0.44947  Biso   1.000  C
  C68      1.0000 0.74047  0.24725  0.46720  Biso   1.000  C
  H51      1.0000 0.00009  0.09661  0.42712  Biso   1.000  H
  H52      1.0000 0.90422  0.13561  0.41448  Biso   1.000  H
  H53      1.0000 0.98668  0.12819  0.52417  Biso   1.000  H
  H54      1.0000 0.67521  0.26630  0.46589  Biso   1.000  H
  H55      1.0000 0.76278  0.22999  0.53319  Biso   1.000  H
  H56      1.0000 0.72560  0.22330  0.41093  Biso   1.000  H
  C69      1.0000 0.52074  0.62864  0.05049  Biso   1.000  C
  Cl9      1.0000 0.42365  0.65048  0.03453  Biso   1.000  Cl
  H57      1.0000 0.49991  0.59661  0.07292  Biso   1.000  H
  H58      1.0000 0.59576  0.63561  0.08549  Biso   1.000  H
  O33      1.0000 0.46004  0.66172  0.07300  Biso   1.000  O
  H59      1.0000 0.51330  0.62819  0.97580  Biso   1.000  H
  C70      1.0000 0.46613  0.71034  0.04764  Biso   1.000  C
  N25      1.0000 0.39202  0.74100  0.05912  Biso   1.000  N
  N26      1.0000 0.56508  0.71945  0.03762  Biso   1.000  N
  C71      1.0000 0.42559  0.78749  0.06228  Biso   1.000  C
  C72      1.0000 0.58114  0.76730  0.04363  Biso   1.000  C
  O34      1.0000 0.35029  0.81959  0.07708  Biso   1.000  O
  N27      1.0000 0.51938  0.80413  0.05380  Biso   1.000  N
  O35      1.0000 0.66620  0.78301  0.04656  Biso   1.000  O
  Cl10     1.0000 0.71391  0.78455  0.02590  Biso   1.000  Cl
  C73      1.0000 0.36871  0.86975  0.06691  Biso   1.000  C
  C74      1.0000 0.75953  0.74725  0.03284  Biso   1.000  C
  C75      1.0000 0.43401  0.89711  0.14368  Biso   1.000  C
  C76      1.0000 0.30670  0.89325  0.98173  Biso   1.000  C
  H60      1.0000 0.82477  0.76630  0.03407  Biso   1.000  H
  H61      1.0000 0.77441  0.72330  0.08911  Biso   1.000  H
  H62      1.0000 0.73720  0.72999  0.96678  Biso   1.000  H
  O36      1.0000 0.50088  0.87221  0.22894  Biso   1.000  O
  C77      1.0000 0.43994  0.94668  0.13582  Biso   1.000  C
  O37      1.0000 0.24359  0.86475  0.90311  Biso   1.000  O
  C78      1.0000 0.30974  0.94334  0.97233  Biso   1.000  C
  C79      1.0000 0.45903  0.86461  0.31111  Biso   1.000  C
  H63      1.0000 0.48741  0.96500  0.18824  Biso   1.000  H
  C80      1.0000 0.37641  0.97066  0.05080  Biso   1.000  C
  C81      1.0000 0.14672  0.85098  0.91613  Biso   1.000  C
  H64      1.0000 0.26717  0.95931  0.91320  Biso   1.000  H
  N28      1.0000 0.52524  0.84041  0.38742  Biso   1.000  N
  N29      1.0000 0.36032  0.88018  0.30741  Biso   1.000  N
  C82      1.0000 0.37884  0.02501  0.04771  Biso   1.000  C
  N30      1.0000 0.11676  0.86758  0.99800  Biso   1.000  N
  N31      1.0000 0.09295  0.82065  0.84321  Biso   1.000  N
  C83      1.0000 0.48153  0.83314  0.46813  Biso   1.000  C
  C84      1.0000 0.33068  0.87089  0.39490  Biso   1.000  C
  O38      1.0000 0.31163  0.04355  0.96300  Biso   1.000  O
  O39      1.0000 0.43199  0.05020  0.11532  Biso   1.000  O
  C85      1.0000 0.01963  0.85212  0.00123  Biso   1.000  C
  C86      1.0000 0.99835  0.80692  0.86002  Biso   1.000  C
  O40      1.0000 0.53690  0.80806  0.54868  Biso   1.000  O
  N32      1.0000 0.38534  0.84794  0.47761  Biso   1.000  N
  O41      1.0000 0.23259  0.88638  0.40122  Biso   1.000  O
  C87      1.0000 0.30571  0.09724  0.95683  Biso   1.000  C
  N33      1.0000 0.95605  0.82098  0.93787  Biso   1.000  N
  O42      1.0000 0.97637  0.86861  0.07716  Biso   1.000  O
  O43      1.0000 0.94502  0.77600  0.78979  Biso   1.000  O
  C88      1.0000 0.64143  0.79021  0.54529  Biso   1.000  C
  C89      1.0000 0.16862  0.90827  0.31257  Biso   1.000  C
  H65      1.0000 0.25536  0.10701  0.89231  Biso   1.000  H
  H66      1.0000 0.37732  0.11061  0.95853  Biso   1.000  H
  H67      1.0000 0.28048  0.11009  0.01542  Biso   1.000  H
  C90      1.0000 0.04122  0.90004  0.15024  Biso   1.000  C
  C91      1.0000 0.84002  0.75999  0.80097  Biso   1.000  C
  H68      1.0000 0.67368  0.77310  0.60973  Biso   1.000  H
  H69      1.0000 0.68742  0.81790  0.53650  Biso   1.000  H
  H70      1.0000 0.63462  0.76752  0.48717  Biso   1.000  H
  C92      1.0000 0.10813  0.87849  0.23688  Biso   1.000  C
  C93      1.0000 0.16512  0.95861  0.30294  Biso   1.000  C
  C94      1.0000 0.03699  0.94976  0.13867  Biso   1.000  C
  H71      1.0000 0.80873  0.73700  0.74539  Biso   1.000  H
  H72      1.0000 0.79260  0.78848  0.79750  Biso   1.000  H
  H73      1.0000 0.84805  0.74361  0.86772  Biso   1.000  H
  O44      1.0000 0.12612  0.82833  0.24466  Biso   1.000  O
  H74      1.0000 0.20644  0.97881  0.35582  Biso   1.000  H
  C95      1.0000 0.10044  0.97947  0.21491  Biso   1.000  C
  H75      1.0000 0.99127  0.96409  0.07916  Biso   1.000  H
  C96      1.0000 0.04646  0.79888  0.26178  Biso   1.000  C
  C97      1.0000 0.10288  0.03290  0.19687  Biso   1.000  C
  N34      1.0000 0.07540  0.75165  0.26802  Biso   1.000  N
  N35      1.0000 0.95639  0.81904  0.27072  Biso   1.000  N
  O45      1.0000 0.05070  0.05424  0.12187  Biso   1.000  O
  O46      1.0000 0.17423  0.05556  0.27249  Biso   1.000  O
  C98      1.0000 0.99679  0.72327  0.28428  Biso   1.000  C
  C99      1.0000 0.88977  0.78452  0.28398  Biso   1.000  C
  C100     1.0000 0.18577  0.10840  0.25954  Biso   1.000  C
  Cl11     1.0000 0.02739  0.66209  0.30278  Biso   1.000  Cl
  O47      1.0000 0.02349  0.67670  0.26440  Biso   1.000  O
  N36      1.0000 0.90134  0.73696  0.29330  Biso   1.000  N
  O48      1.0000 0.80166  0.80211  0.27920  Biso   1.000  O
  Cl12     1.0000 0.76637  0.80600  0.30070  Biso   1.000  Cl
  H76      1.0000 0.24283  0.12111  0.31620  Biso   1.000  H
  H77      1.0000 0.11762  0.12482  0.25977  Biso   1.000  H
  H78      1.0000 0.20467  0.11479  0.19379  Biso   1.000  H
  C101     1.0000 0.93892  0.64292  0.27966  Biso   1.000  C
  C102     1.0000 0.71226  0.77302  0.30456  Biso   1.000  C
  H79      1.0000 0.95867  0.60921  0.26671  Biso   1.000  H
  H80      1.0000 0.87043  0.65140  0.23171  Biso   1.000  H
  H81      1.0000 0.93117  0.64571  0.35058  Biso   1.000  H
  H82      1.0000 0.64923  0.79421  0.29932  Biso   1.000  H
  H83      1.0000 0.73552  0.76021  0.37493  Biso   1.000  H
  H84      1.0000 0.69353  0.74559  0.25599  Biso   1.000  H
  C103     1.0000 0.47925  0.37136  0.94951  Biso   1.000  C
  Cl13     1.0000 0.57634  0.34952  0.96547  Biso   1.000  Cl
  O49      1.0000 0.53995  0.33828  0.92701  Biso   1.000  O
  H85      1.0000 0.50008  0.40339  0.92708  Biso   1.000  H
  H86      1.0000 0.40423  0.36439  0.91452  Biso   1.000  H
  H87      1.0000 0.48669  0.37181  0.02421  Biso   1.000  H
  C104     1.0000 0.53394  0.28966  0.95237  Biso   1.000  C
  N37      1.0000 0.60804  0.25900  0.94088  Biso   1.000  N
  N38      1.0000 0.43491  0.28055  0.96239  Biso   1.000  N
  C105     1.0000 0.57440  0.21251  0.93772  Biso   1.000  C
  C106     1.0000 0.41893  0.23270  0.95637  Biso   1.000  C
  O50      1.0000 0.64970  0.18041  0.92292  Biso   1.000  O
  N39      1.0000 0.48061  0.19587  0.94620  Biso   1.000  N
  O51      1.0000 0.33389  0.21699  0.95352  Biso   1.000  O
  Cl14     1.0000 0.28608  0.21545  0.97410  Biso   1.000  Cl
  C107     1.0000 0.63129  0.13025  0.93310  Biso   1.000  C
  C108     1.0000 0.24046  0.25275  0.96717  Biso   1.000  C
  C109     1.0000 0.56598  0.10289  0.85632  Biso   1.000  C
  C110     1.0000 0.69329  0.10675  0.01827  Biso   1.000  C
  H88      1.0000 0.17522  0.23370  0.96593  Biso   1.000  H
  H89      1.0000 0.22559  0.27670  0.91090  Biso   1.000  H
  H90      1.0000 0.26279  0.27001  0.03323  Biso   1.000  H
  O52      1.0000 0.49911  0.12779  0.77107  Biso   1.000  O
  C111     1.0000 0.56013  0.05332  0.86418  Biso   1.000  C
  C112     1.0000 0.69025  0.05666  0.02768  Biso   1.000  C
  O53      1.0000 0.75640  0.13525  0.09690  Biso   1.000  O
  C113     1.0000 0.54104  0.13539  0.68889  Biso   1.000  C
  H91      1.0000 0.51258  0.03500  0.81177  Biso   1.000  H
  C114     1.0000 0.62358  0.02934  0.94921  Biso   1.000  C
  H92      1.0000 0.73290  0.04069  0.08680  Biso   1.000  H
  C115     1.0000 0.85327  0.14902  0.08387  Biso   1.000  C
  N40      1.0000 0.47483  0.15959  0.61258  Biso   1.000  N
  N41      1.0000 0.63975  0.11982  0.69259  Biso   1.000  N
  C116     1.0000 0.62123  0.97499  0.95229  Biso   1.000  C
  N42      1.0000 0.88331  0.13242  0.00201  Biso   1.000  N
  N43      1.0000 0.90712  0.17935  0.15679  Biso   1.000  N
  C117     1.0000 0.51854  0.16686  0.53188  Biso   1.000  C
  C118     1.0000 0.66932  0.12911  0.60511  Biso   1.000  C
  O54      1.0000 0.56800  0.94980  0.88469  Biso   1.000  O
  O55      1.0000 0.68836  0.95645  0.03700  Biso   1.000  O
  C119     1.0000 0.98044  0.14788  0.99877  Biso   1.000  C
  C120     1.0000 0.00172  0.19308  0.13999  Biso   1.000  C
  O56      1.0000 0.46309  0.19194  0.45132  Biso   1.000  O
  N44      1.0000 0.61473  0.15206  0.52239  Biso   1.000  N
  O57      1.0000 0.76740  0.11362  0.59878  Biso   1.000  O
  C121     1.0000 0.69429  0.90276  0.04317  Biso   1.000  C
  O58      1.0000 0.02370  0.13139  0.92284  Biso   1.000  O
  N45      1.0000 0.04402  0.17902  0.06213  Biso   1.000  N
  O59      1.0000 0.05497  0.22400  0.21021  Biso   1.000  O
  C122     1.0000 0.35864  0.20979  0.45472  Biso   1.000  C
  C123     1.0000 0.83145  0.09173  0.68743  Biso   1.000  C
  H93      1.0000 0.71951  0.88991  0.98459  Biso   1.000  H
  H94      1.0000 0.74471  0.89299  0.10769  Biso   1.000  H
  H95      1.0000 0.62267  0.88939  0.04147  Biso   1.000  H
  C124     1.0000 0.95877  0.09996  0.84977  Biso   1.000  C
  C125     1.0000 0.15997  0.24001  0.19903  Biso   1.000  C
  H96      1.0000 0.32631  0.22690  0.39027  Biso   1.000  H
  H97      1.0000 0.31257  0.18210  0.46350  Biso   1.000  H
  H98      1.0000 0.36545  0.23248  0.51284  Biso   1.000  H
  C126     1.0000 0.89194  0.12151  0.76313  Biso   1.000  C
  C127     1.0000 0.83488  0.04139  0.69707  Biso   1.000  C
  C128     1.0000 0.96300  0.05024  0.86133  Biso   1.000  C
  H99      1.0000 0.19134  0.26300  0.25461  Biso   1.000  H
  H100     1.0000 0.20739  0.21152  0.20250  Biso   1.000  H
  H101     1.0000 0.15202  0.25639  0.13228  Biso   1.000  H
  O60      1.0000 0.87388  0.17167  0.75534  Biso   1.000  O
  H102     1.0000 0.79363  0.02119  0.64419  Biso   1.000  H
  C129     1.0000 0.89963  0.02053  0.78510  Biso   1.000  C
  H103     1.0000 0.00872  0.03591  0.92084  Biso   1.000  H
  C130     1.0000 0.95353  0.20112  0.73823  Biso   1.000  C
  C131     1.0000 0.89711  0.96710  0.80313  Biso   1.000  C
  N46      1.0000 0.92459  0.24835  0.73198  Biso   1.000  N
  N47      1.0000 0.04360  0.18096  0.72929  Biso   1.000  N
  O61      1.0000 0.94929  0.94576  0.87813  Biso   1.000  O
  O62      1.0000 0.82584  0.94444  0.72751  Biso   1.000  O
  C132     1.0000 0.00320  0.27673  0.71572  Biso   1.000  C
  C133     1.0000 0.11022  0.21548  0.71603  Biso   1.000  C
  C134     1.0000 0.81422  0.89160  0.74046  Biso   1.000  C
  Cl15     1.0000 0.97260  0.33791  0.69722  Biso   1.000  Cl
  O63      1.0000 0.97658  0.32330  0.73561  Biso   1.000  O
  N48      1.0000 0.09873  0.26304  0.70670  Biso   1.000  N
  O64      1.0000 0.19833  0.19789  0.72081  Biso   1.000  O
  Cl16     1.0000 0.23370  0.19400  0.69930  Biso   1.000  Cl
  H104     1.0000 0.75724  0.87889  0.68381  Biso   1.000  H
  H105     1.0000 0.88245  0.87518  0.74023  Biso   1.000  H
  H106     1.0000 0.79532  0.88521  0.80622  Biso   1.000  H
  C135     1.0000 0.06115  0.35708  0.72034  Biso   1.000  C
  C136     1.0000 0.28773  0.22698  0.69545  Biso   1.000  C
  H107     1.0000 0.04132  0.39079  0.73329  Biso   1.000  H
  H108     1.0000 0.12964  0.34860  0.76829  Biso   1.000  H
  H109     1.0000 0.06882  0.35429  0.64943  Biso   1.000  H
  H110     1.0000 0.35084  0.20579  0.70069  Biso   1.000  H
  H111     1.0000 0.26447  0.23979  0.62507  Biso   1.000  H
  H112     1.0000 0.30654  0.25441  0.74401  Biso   1.000  H
