data_image0
_cell_length_a       13.809
_cell_length_b       17.516
_cell_length_c       20.801
_cell_angle_alpha    90
_cell_angle_beta     95.31
_cell_angle_gamma    90

_symmetry_space_group_name_H-M    "P 1"
_symmetry_int_tables_number       1

loop_
  _symmetry_equiv_pos_as_xyz
  'x, y, z'

loop_
  _atom_site_label
  _atom_site_occupancy
  _atom_site_fract_x
  _atom_site_fract_y
  _atom_site_fract_z
  _atom_site_thermal_displace_type
  _atom_site_B_iso_or_equiv
  _atom_site_type_symbol
  O1       1.0000 0.47323  0.27141  0.60149  Biso   1.000  O
  C1       1.0000 0.36745  0.27809  0.59068  Biso   1.000  C
  C2       1.0000 0.50406  0.22499  0.64862  Biso   1.000  C
  H1       1.0000 0.35046  0.31371  0.55510  Biso   1.000  H
  H2       1.0000 0.33927  0.22791  0.57972  Biso   1.000  H
  H3       1.0000 0.34164  0.29721  0.62998  Biso   1.000  H
  O2       1.0000 0.44888  0.19200  0.68029  Biso   1.000  O
  C3       1.0000 0.61165  0.22043  0.66040  Biso   1.000  C
  C4       1.0000 0.65074  0.16242  0.70081  Biso   1.000  C
  C5       1.0000 0.67257  0.27249  0.63351  Biso   1.000  C
  C6       1.0000 0.74872  0.15780  0.71481  Biso   1.000  C
  H4       1.0000 0.60916  0.12640  0.71839  Biso   1.000  H
  H5       1.0000 0.64599  0.31160  0.60541  Biso   1.000  H
  C7       1.0000 0.77066  0.26701  0.64780  Biso   1.000  C
  O3       1.0000 0.79047  0.10077  0.75508  Biso   1.000  O
  C8       1.0000 0.81075  0.20992  0.68811  Biso   1.000  C
  O4       1.0000 0.83393  0.31799  0.61960  Biso   1.000  O
  C9       1.0000 0.78492  0.11178  0.82021  Biso   1.000  C
  O5       1.0000 0.90912  0.20992  0.70960  Biso   1.000  O
  C10      1.0000 0.85743  0.38040  0.65572  Biso   1.000  C
  N1       1.0000 0.81150  0.05332  0.85608  Biso   1.000  N
  N2       1.0000 0.75312  0.17955  0.83832  Biso   1.000  N
  C11      1.0000 0.96617  0.15512  0.68768  Biso   1.000  C
  N3       1.0000 0.91162  0.43109  0.62675  Biso   1.000  N
  N4       1.0000 0.82787  0.38570  0.71380  Biso   1.000  N
  C12      1.0000 0.80596  0.06508  0.91919  Biso   1.000  C
  C13      1.0000 0.75035  0.18240  0.90161  Biso   1.000  C
  N5       1.0000 0.93158  0.11093  0.63954  Biso   1.000  N
  N6       1.0000 0.05476  0.15540  0.72007  Biso   1.000  N
  C14      1.0000 0.93745  0.49218  0.66402  Biso   1.000  C
  C15      1.0000 0.85674  0.44908  0.74480  Biso   1.000  C
  N7       1.0000 0.77271  0.13011  0.94512  Biso   1.000  N
  C16      1.0000 0.85082  0.00708  0.96622  Biso   1.000  C
  C17      1.0000 0.81945  0.00029  0.96718  Biso   1.000  C
  O6       1.0000 0.72030  0.24943  0.92653  Biso   1.000  O
  C18      1.0000 0.99803  0.06040  0.62221  Biso   1.000  C
  C19      1.0000 0.10921  0.10499  0.69618  Biso   1.000  C
  N8       1.0000 0.91181  0.50274  0.72428  Biso   1.000  N
  C20      1.0000 0.99688  0.55121  0.63631  Biso   1.000  C
  O7       1.0000 0.82833  0.46078  0.80433  Biso   1.000  O
  C21      1.0000 0.91765  0.95421  0.94637  Biso   1.000  C
  C22      1.0000 0.88724  0.94280  0.95680  Biso   1.000  C
  C23      1.0000 0.77333  0.99241  0.02440  Biso   1.000  C
  C24      1.0000 0.81639  0.00702  0.02729  Biso   1.000  C
  C25      1.0000 0.69891  0.30960  0.88167  Biso   1.000  C
  O8       1.0000 0.97629  0.01170  0.57692  Biso   1.000  O
  N9       1.0000 0.09075  0.05538  0.64891  Biso   1.000  N
  Cl1      1.0000 0.22844  0.10339  0.73272  Biso   1.000  Cl
  C26      1.0000 0.99504  0.55749  0.56958  Biso   1.000  C
  C27      1.0000 0.03617  0.61133  0.67348  Biso   1.000  C
  C28      1.0000 0.03593  0.53928  0.57721  Biso   1.000  C
  C29      1.0000 0.75256  0.41351  0.82079  Biso   1.000  C
  C30      1.0000 0.95223  0.90369  0.99292  Biso   1.000  C
  H6       1.0000 0.93742  0.95353  0.90379  Biso   1.000  H
  H7       1.0000 0.91396  0.94148  0.91629  Biso   1.000  H
  C31      1.0000 0.91742  0.88787  0.00243  Biso   1.000  C
  C32      1.0000 0.85616  0.95359  0.07050  Biso   1.000  C
  C33      1.0000 0.80220  0.93509  0.06833  Biso   1.000  C
  H8       1.0000 0.76813  0.04202  0.03849  Biso   1.000  H
  H9       1.0000 0.72239  0.02620  0.03299  Biso   1.000  H
  C34      1.0000 0.77300  0.35459  0.86458  Biso   1.000  C
  C35      1.0000 0.60330  0.31988  0.85662  Biso   1.000  C
  C36      1.0000 0.87969  0.01227  0.54370  Biso   1.000  C
  H10      1.0000 0.95908  0.52158  0.54278  Biso   1.000  H
  C37      1.0000 0.04507  0.61509  0.54201  Biso   1.000  C
  C38      1.0000 0.09585  0.59369  0.55201  Biso   1.000  C
  H11      1.0000 0.02138  0.49349  0.55389  Biso   1.000  H
  C39      1.0000 0.09142  0.66670  0.64751  Biso   1.000  C
  H12      1.0000 0.02474  0.61430  0.71771  Biso   1.000  H
  C40      1.0000 0.65834  0.42498  0.79428  Biso   1.000  C
  H13      1.0000 0.99945  0.86772  0.98200  Biso   1.000  H
  H14      1.0000 0.96709  0.85288  0.99407  Biso   1.000  H
  C41      1.0000 0.92400  0.90112  0.05380  Biso   1.000  C
  C42      1.0000 0.87543  0.88439  0.05911  Biso   1.000  C
  H15      1.0000 0.83652  0.95279  0.11299  Biso   1.000  H
  H16      1.0000 0.76971  0.93081  0.10643  Biso   1.000  H
  O9       1.0000 0.86974  0.33809  0.88428  Biso   1.000  O
  H17      1.0000 0.55276  0.28842  0.86960  Biso   1.000  H
  C43      1.0000 0.58403  0.37863  0.81138  Biso   1.000  C
  H18      1.0000 0.83173  0.00331  0.57470  Biso   1.000  H
  H19      1.0000 0.86736  0.06189  0.52280  Biso   1.000  H
  H20      1.0000 0.87447  0.97191  0.51092  Biso   1.000  H
  H21      1.0000 0.04785  0.61601  0.49648  Biso   1.000  H
  C44      1.0000 0.09086  0.67139  0.57957  Biso   1.000  C
  C45      1.0000 0.12594  0.65740  0.58600  Biso   1.000  C
  H22      1.0000 0.11622  0.58621  0.51010  Biso   1.000  H
  H23      1.0000 0.10675  0.71209  0.67121  Biso   1.000  H
  H24      1.0000 0.64457  0.46517  0.76411  Biso   1.000  H
  C46      1.0000 0.96222  0.84209  0.10459  Biso   1.000  C
  C47      1.0000 0.90256  0.82427  0.11140  Biso   1.000  C
  C48      1.0000 0.90712  0.36721  0.94150  Biso   1.000  C
  C49      1.0000 0.48365  0.38850  0.78009  Biso   1.000  C
  C50      1.0000 0.14487  0.73613  0.54882  Biso   1.000  C
  C51      1.0000 0.19497  0.71649  0.56171  Biso   1.000  C
  H25      1.0000 0.93198  0.85111  0.14481  Biso   1.000  H
  H26      1.0000 0.94589  0.79059  0.08871  Biso   1.000  H
  H27      1.0000 0.97136  0.82981  0.12699  Biso   1.000  H
  H28      1.0000 0.03289  0.84700  0.11280  Biso   1.000  H
  H29      1.0000 0.86247  0.83153  0.14742  Biso   1.000  H
  H30      1.0000 0.89126  0.77312  0.09320  Biso   1.000  H
  N10      1.0000 0.85050  0.40129  0.97949  Biso   1.000  N
  N11      1.0000 0.00414  0.35482  0.95072  Biso   1.000  N
  O10      1.0000 0.47277  0.43891  0.73688  Biso   1.000  O
  O11      1.0000 0.41787  0.35008  0.80119  Biso   1.000  O
  H31      1.0000 0.17384  0.77032  0.58262  Biso   1.000  H
  H32      1.0000 0.19626  0.71472  0.52477  Biso   1.000  H
  H33      1.0000 0.09902  0.76490  0.51917  Biso   1.000  H
  H34      1.0000 0.20967  0.75548  0.59498  Biso   1.000  H
  H35      1.0000 0.16429  0.74058  0.52241  Biso   1.000  H
  H36      1.0000 0.25539  0.69131  0.55201  Biso   1.000  H
  C52      1.0000 0.89938  0.42710  0.03299  Biso   1.000  C
  C53      1.0000 0.04117  0.38650  0.00600  Biso   1.000  C
  C54      1.0000 0.39026  0.45381  0.70709  Biso   1.000  C
  C55      1.0000 0.32994  0.36133  0.78970  Biso   1.000  C
  O12      1.0000 0.84141  0.46272  0.07219  Biso   1.000  O
  N12      1.0000 0.99492  0.42201  0.04873  Biso   1.000  N
  Cl2      1.0000 0.16536  0.37549  0.02155  Biso   1.000  Cl
  H37      1.0000 0.39753  0.49458  0.67561  Biso   1.000  H
  H38      1.0000 0.36466  0.40791  0.68449  Biso   1.000  H
  H39      1.0000 0.34526  0.47031  0.73799  Biso   1.000  H
  H40      1.0000 0.29397  0.32342  0.81268  Biso   1.000  H
  H41      1.0000 0.31396  0.41271  0.80389  Biso   1.000  H
  H42      1.0000 0.31208  0.35647  0.74311  Biso   1.000  H
  C56      1.0000 0.89119  0.49269  0.13269  Biso   1.000  C
  H43      1.0000 0.84372  0.51758  0.15789  Biso   1.000  H
  H44      1.0000 0.92250  0.45062  0.15780  Biso   1.000  H
  H45      1.0000 0.94062  0.52992  0.12260  Biso   1.000  H
