data_image0
_cell_length_a       15.087
_cell_length_b       17.675
_cell_length_c       18.954
_cell_angle_alpha    90.35
_cell_angle_beta     101.08
_cell_angle_gamma    114.79

_symmetry_space_group_name_H-M    "P 1"
_symmetry_int_tables_number       1

loop_
  _symmetry_equiv_pos_as_xyz
  'x, y, z'

loop_
  _atom_site_label
  _atom_site_occupancy
  _atom_site_fract_x
  _atom_site_fract_y
  _atom_site_fract_z
  _atom_site_thermal_displace_type
  _atom_site_B_iso_or_equiv
  _atom_site_type_symbol
  O1       1.0000 0.55323  0.41531  0.45920  Biso   1.000  O
  C1       1.0000 0.46772  0.35629  0.47357  Biso   1.000  C
  C2       1.0000 0.64234  0.40953  0.49140  Biso   1.000  C
  N1       1.0000 0.38600  0.35368  0.43058  Biso   1.000  N
  N2       1.0000 0.47565  0.30901  0.52629  Biso   1.000  N
  C3       1.0000 0.70181  0.46099  0.55260  Biso   1.000  C
  C4       1.0000 0.66647  0.35274  0.45872  Biso   1.000  C
  C5       1.0000 0.30042  0.29752  0.44819  Biso   1.000  C
  C6       1.0000 0.38650  0.25597  0.53618  Biso   1.000  C
  C7       1.0000 0.78814  0.45311  0.58220  Biso   1.000  C
  H1       1.0000 0.68475  0.49952  0.57318  Biso   1.000  H
  H2       1.0000 0.62534  0.31921  0.41669  Biso   1.000  H
  C8       1.0000 0.75334  0.34760  0.49048  Biso   1.000  C
  N3       1.0000 0.21286  0.29043  0.40962  Biso   1.000  N
  N4       1.0000 0.29792  0.24748  0.50231  Biso   1.000  N
  O2       1.0000 0.38421  0.20272  0.58782  Biso   1.000  O
  O3       1.0000 0.85321  0.50514  0.64454  Biso   1.000  O
  C9       1.0000 0.81587  0.39724  0.55212  Biso   1.000  C
  O4       1.0000 0.77963  0.29035  0.45807  Biso   1.000  O
  C10      1.0000 0.20255  0.33071  0.34290  Biso   1.000  C
  C11      1.0000 0.11950  0.24390  0.43522  Biso   1.000  C
  C12      1.0000 0.47663  0.20780  0.62509  Biso   1.000  C
  C13      1.0000 0.83358  0.48074  0.70952  Biso   1.000  C
  H3       1.0000 0.87464  0.39322  0.57280  Biso   1.000  H
  C14      1.0000 0.75924  0.21703  0.48762  Biso   1.000  C
  C15      1.0000 0.16634  0.26879  0.27798  Biso   1.000  C
  H4       1.0000 0.15549  0.35488  0.34339  Biso   1.000  H
  H5       1.0000 0.26665  0.37561  0.34047  Biso   1.000  H
  C16      1.0000 0.10129  0.30089  0.48297  Biso   1.000  C
  H6       1.0000 0.06384  0.21981  0.39401  Biso   1.000  H
  H7       1.0000 0.12461  0.19850  0.46147  Biso   1.000  H
  C17      1.0000 0.52492  0.26329  0.68667  Biso   1.000  C
  C18      1.0000 0.51334  0.15543  0.60062  Biso   1.000  C
  N5       1.0000 0.75622  0.40809  0.71071  Biso   1.000  N
  N6       1.0000 0.89614  0.53430  0.76441  Biso   1.000  N
  N7       1.0000 0.70973  0.20341  0.54088  Biso   1.000  N
  N8       1.0000 0.79292  0.16923  0.46002  Biso   1.000  N
  C19      1.0000 0.22766  0.23382  0.26020  Biso   1.000  C
  C20      1.0000 0.07095  0.24021  0.23563  Biso   1.000  C
  C21      1.0000 0.03739  0.33748  0.45602  Biso   1.000  C
  C22      1.0000 0.15477  0.32623  0.55352  Biso   1.000  C
  H8       1.0000 0.49853  0.29773  0.70250  Biso   1.000  H
  C23      1.0000 0.61412  0.26531  0.72341  Biso   1.000  C
  H9       1.0000 0.47908  0.11847  0.55919  Biso   1.000  H
  C24      1.0000 0.60198  0.15997  0.63979  Biso   1.000  C
  C25      1.0000 0.74205  0.39454  0.77732  Biso   1.000  C
  C26      1.0000 0.87123  0.51290  0.82831  Biso   1.000  C
  C27      1.0000 0.69472  0.12969  0.56530  Biso   1.000  C
  C28      1.0000 0.77629  0.09819  0.49259  Biso   1.000  C
  C29      1.0000 0.19342  0.17078  0.20521  Biso   1.000  C
  H10      1.0000 0.29322  0.25350  0.28608  Biso   1.000  H
  H11      1.0000 0.02943  0.26422  0.24459  Biso   1.000  H
  C30      1.0000 0.03551  0.17679  0.17999  Biso   1.000  C
  C31      1.0000 0.03082  0.39909  0.49669  Biso   1.000  C
  H12      1.0000 0.99834  0.31984  0.40951  Biso   1.000  H
  H13      1.0000 0.19539  0.30088  0.57351  Biso   1.000  H
  C32      1.0000 0.14941  0.38790  0.59528  Biso   1.000  C
  O5       1.0000 0.66589  0.32165  0.78585  Biso   1.000  O
  C33      1.0000 0.65399  0.21352  0.70180  Biso   1.000  C
  O6       1.0000 0.64090  0.10600  0.61764  Biso   1.000  O
  N9       1.0000 0.79062  0.44333  0.83749  Biso   1.000  N
  N10      1.0000 0.93176  0.56309  0.88821  Biso   1.000  N
  N11      1.0000 0.72522  0.07473  0.54650  Biso   1.000  N
  N12      1.0000 0.81350  0.04732  0.46931  Biso   1.000  N
  C34      1.0000 0.09599  0.14068  0.16600  Biso   1.000  C
  H14      1.0000 0.23571  0.14849  0.19430  Biso   1.000  H
  H15      1.0000 0.97099  0.15859  0.15238  Biso   1.000  H
  C35      1.0000 0.08772  0.42542  0.56600  Biso   1.000  C
  H16      1.0000 0.98814  0.42303  0.47741  Biso   1.000  H
  H17      1.0000 0.18664  0.40412  0.64238  Biso   1.000  H
  H18      1.0000 0.71353  0.21493  0.72811  Biso   1.000  H
  C36      1.0000 0.89794  0.55639  0.95752  Biso   1.000  C
  C37      1.0000 0.03096  0.62774  0.88670  Biso   1.000  C
  C38      1.0000 0.85871  0.06759  0.40589  Biso   1.000  C
  C39      1.0000 0.82098  0.98064  0.51187  Biso   1.000  C
  O7       1.0000 0.05449  0.07489  0.11311  Biso   1.000  O
  O8       1.0000 0.07887  0.48902  0.60170  Biso   1.000  O
  H19      1.0000 0.85505  0.49842  0.96179  Biso   1.000  H
  H20      1.0000 0.95535  0.57531  0.99760  Biso   1.000  H
  C40      1.0000 0.84164  0.60911  0.96022  Biso   1.000  C
  C41      1.0000 0.11074  0.59544  0.90318  Biso   1.000  C
  H21      1.0000 0.03011  0.64820  0.83938  Biso   1.000  H
  H22      1.0000 0.04757  0.67421  0.92192  Biso   1.000  H
  C42      1.0000 0.78239  0.05203  0.33750  Biso   1.000  C
  H23      1.0000 0.90632  0.12609  0.41237  Biso   1.000  H
  H24      1.0000 0.89489  0.03407  0.40211  Biso   1.000  H
  C43      1.0000 0.90929  0.01249  0.57540  Biso   1.000  C
  H25      1.0000 0.76005  0.95253  0.52948  Biso   1.000  H
  H26      1.0000 0.82666  0.93982  0.48092  Biso   1.000  H
  C44      1.0000 0.12400  0.03350  0.10528  Biso   1.000  C
  C45      1.0000 0.06501  0.00909  0.11322  Biso   1.000  C
  C46      1.0000 0.15245  0.53195  0.66620  Biso   1.000  C
  C47      1.0000 0.88833  0.69213  0.99128  Biso   1.000  C
  C48      1.0000 0.74145  0.57841  0.92619  Biso   1.000  C
  C49      1.0000 0.09405  0.51729  0.87390  Biso   1.000  C
  C50      1.0000 0.20513  0.64461  0.94401  Biso   1.000  C
  C51      1.0000 0.79330  0.11181  0.28851  Biso   1.000  C
  C52      1.0000 0.69544  0.97984  0.32189  Biso   1.000  C
  C53      1.0000 0.99339  0.08782  0.57691  Biso   1.000  C
  C54      1.0000 0.91106  0.96683  0.63471  Biso   1.000  C
  H27      1.0000 0.16312  0.03350  0.15228  Biso   1.000  H
  H28      1.0000 0.16962  0.06448  0.07498  Biso   1.000  H
  H29      1.0000 0.09886  0.00488  0.16097  Biso   1.000  H
  C55      1.0000 0.12598  0.00639  0.05829  Biso   1.000  C
  H30      1.0000 0.19138  0.05348  0.07082  Biso   1.000  H
  C56      1.0000 0.06384  0.94893  0.07319  Biso   1.000  C
  H31      1.0000 0.99994  0.96154  0.10161  Biso   1.000  H
  C57      1.0000 0.13833  0.60823  0.68781  Biso   1.000  C
  H32      1.0000 0.14437  0.49515  0.70461  Biso   1.000  H
  H33      1.0000 0.21903  0.54883  0.65729  Biso   1.000  H
  C58      1.0000 0.83838  0.74191  0.98512  Biso   1.000  C
  H34      1.0000 0.95454  0.71386  0.01651  Biso   1.000  H
  C59      1.0000 0.69153  0.62901  0.92008  Biso   1.000  C
  H35      1.0000 0.70721  0.52271  0.90701  Biso   1.000  H
  C60      1.0000 0.16920  0.49010  0.88141  Biso   1.000  C
  H36      1.0000 0.03027  0.48194  0.84829  Biso   1.000  H
  H37      1.0000 0.21778  0.69643  0.96589  Biso   1.000  H
  C61      1.0000 0.28134  0.61921  0.95309  Biso   1.000  C
  C62      1.0000 0.72069  0.09908  0.22698  Biso   1.000  C
  H38      1.0000 0.85103  0.16180  0.29742  Biso   1.000  H
  C63      1.0000 0.62156  0.96543  0.26209  Biso   1.000  C
  H39      1.0000 0.68633  0.93855  0.35360  Biso   1.000  H
  H40      1.0000 0.99580  0.11941  0.53769  Biso   1.000  H
  C64      1.0000 0.07242  0.11602  0.63519  Biso   1.000  C
  C65      1.0000 0.99126  0.99631  0.69278  Biso   1.000  C
  H41      1.0000 0.85724  0.91565  0.63509  Biso   1.000  H
  H42      1.0000 0.09302  0.01251  0.01091  Biso   1.000  H
  C66      1.0000 0.13975  0.92153  0.05461  Biso   1.000  C
  H43      1.0000 0.02846  0.91385  0.10701  Biso   1.000  H
  H44      1.0000 0.01596  0.94694  0.03020  Biso   1.000  H
  C67      1.0000 0.21468  0.65922  0.75479  Biso   1.000  C
  H45      1.0000 0.14416  0.64334  0.64821  Biso   1.000  H
  H46      1.0000 0.07173  0.59031  0.69688  Biso   1.000  H
  C68      1.0000 0.74024  0.71172  0.94780  Biso   1.000  C
  H47      1.0000 0.87107  0.79691  0.00640  Biso   1.000  H
  H48      1.0000 0.62444  0.60692  0.89718  Biso   1.000  H
  C69      1.0000 0.26415  0.54264  0.91960  Biso   1.000  C
  H49      1.0000 0.15590  0.43739  0.86110  Biso   1.000  H
  H50      1.0000 0.34381  0.65320  0.98150  Biso   1.000  H
  C70      1.0000 0.63470  0.02491  0.21418  Biso   1.000  C
  H51      1.0000 0.72962  0.13982  0.19479  Biso   1.000  H
  H52      1.0000 0.56317  0.91592  0.25410  Biso   1.000  H
  H53      1.0000 0.12750  0.16629  0.63449  Biso   1.000  H
  C71      1.0000 0.07210  0.07179  0.69451  Biso   1.000  C
  H54      1.0000 0.99066  0.96444  0.73178  Biso   1.000  H
  C72      1.0000 0.20163  0.94431  0.99854  Biso   1.000  C
  H55      1.0000 0.10417  0.86104  0.04651  Biso   1.000  H
  H56      1.0000 0.18824  0.93291  0.09972  Biso   1.000  H
  H57      1.0000 0.07676  0.87265  0.03841  Biso   1.000  H
  H58      1.0000 0.17542  0.91351  0.10009  Biso   1.000  H
  C73      1.0000 0.31840  0.71135  0.74339  Biso   1.000  C
  H59      1.0000 0.21867  0.62121  0.79071  Biso   1.000  H
  H60      1.0000 0.19076  0.69615  0.77440  Biso   1.000  H
  O9       1.0000 0.69644  0.76615  0.94088  Biso   1.000  O
  O10      1.0000 0.34573  0.52443  0.92667  Biso   1.000  O
  O11      1.0000 0.56510  0.01813  0.15190  Biso   1.000  O
  O12      1.0000 0.15363  0.10851  0.75101  Biso   1.000  O
  H61      1.0000 0.16083  0.94809  0.95365  Biso   1.000  H
  C74      1.0000 0.24451  0.88429  0.98417  Biso   1.000  C
  H62      1.0000 0.25630  0.99935  0.01361  Biso   1.000  H
  C75      1.0000 0.39637  0.73663  0.81561  Biso   1.000  C
  H63      1.0000 0.33505  0.67970  0.71039  Biso   1.000  H
  H64      1.0000 0.32025  0.76130  0.72162  Biso   1.000  H
  C76      1.0000 0.60199  0.73882  0.89081  Biso   1.000  C
  C77      1.0000 0.33086  0.44564  0.89389  Biso   1.000  C
  C78      1.0000 0.47395  0.94353  0.13699  Biso   1.000  C
  C79      1.0000 0.15429  0.06952  0.81470  Biso   1.000  C
  H65      1.0000 0.27966  0.90270  0.94517  Biso   1.000  H
  H66      1.0000 0.18994  0.82959  0.96775  Biso   1.000  H
  C80      1.0000 0.31311  0.87580  0.04592  Biso   1.000  C
  C81      1.0000 0.49637  0.79786  0.81091  Biso   1.000  C
  H67      1.0000 0.40084  0.68671  0.83328  Biso   1.000  H
  H68      1.0000 0.37297  0.75954  0.85078  Biso   1.000  H
  C82      1.0000 0.57720  0.81376  0.87892  Biso   1.000  C
  H69      1.0000 0.60553  0.71592  0.84527  Biso   1.000  H
  H70      1.0000 0.55025  0.69530  0.90998  Biso   1.000  H
  C83      1.0000 0.43057  0.44673  0.89750  Biso   1.000  C
  H71      1.0000 0.29170  0.40029  0.91949  Biso   1.000  H
  H72      1.0000 0.29519  0.43690  0.84408  Biso   1.000  H
  C84      1.0000 0.40748  0.95474  0.07222  Biso   1.000  C
  H73      1.0000 0.48684  0.89563  0.12721  Biso   1.000  H
  H74      1.0000 0.44221  0.93440  0.17810  Biso   1.000  H
  H75      1.0000 0.09107  0.05182  0.82960  Biso   1.000  H
  H76      1.0000 0.16926  0.02167  0.80989  Biso   1.000  H
  C85      1.0000 0.24577  0.14642  0.87158  Biso   1.000  C
  H77      1.0000 0.08610  0.04377  0.82129  Biso   1.000  H
  H78      1.0000 0.17308  0.02440  0.80697  Biso   1.000  H
  C86      1.0000 0.21462  0.11571  0.88000  Biso   1.000  C
  H79      1.0000 0.27878  0.85844  0.08540  Biso   1.000  H
  H80      1.0000 0.33115  0.83182  0.03279  Biso   1.000  H
  H81      1.0000 0.51554  0.77862  0.77078  Biso   1.000  H
  H82      1.0000 0.49347  0.85042  0.80011  Biso   1.000  H
  H83      1.0000 0.63716  0.86240  0.87482  Biso   1.000  H
  H84      1.0000 0.55466  0.82573  0.92041  Biso   1.000  H
  C87      1.0000 0.42952  0.36959  0.87001  Biso   1.000  C
  H85      1.0000 0.46671  0.46003  0.94742  Biso   1.000  H
  H86      1.0000 0.46744  0.49141  0.87039  Biso   1.000  H
  H87      1.0000 0.38996  0.99935  0.08432  Biso   1.000  H
  H88      1.0000 0.44365  0.97126  0.03360  Biso   1.000  H
  H89      1.0000 0.24880  0.12707  0.91938  Biso   1.000  H
  H90      1.0000 0.22764  0.19283  0.87309  Biso   1.000  H
  C88      1.0000 0.35078  0.18003  0.85629  Biso   1.000  C
  H91      1.0000 0.20242  0.16471  0.88681  Biso   1.000  H
  C89      1.0000 0.32236  0.14288  0.88222  Biso   1.000  C
  H92      1.0000 0.19648  0.08177  0.91949  Biso   1.000  H
  C90      1.0000 0.41901  0.31333  0.92808  Biso   1.000  C
  H93      1.0000 0.37402  0.34321  0.82890  Biso   1.000  H
  H94      1.0000 0.49099  0.38128  0.85429  Biso   1.000  H
  C91      1.0000 0.35573  0.28962  0.82842  Biso   1.000  C
  H95      1.0000 0.48111  0.38932  0.84208  Biso   1.000  H
  H96      1.0000 0.45820  0.35131  0.91290  Biso   1.000  H
  H97      1.0000 0.35043  0.20880  0.81302  Biso   1.000  H
  H98      1.0000 0.36340  0.13223  0.84522  Biso   1.000  H
  C92      1.0000 0.43286  0.23468  0.90987  Biso   1.000  C
  H99      1.0000 0.35867  0.16652  0.93100  Biso   1.000  H
  H100     1.0000 0.33237  0.09337  0.87260  Biso   1.000  H
  C93      1.0000 0.37374  0.21111  0.82690  Biso   1.000  C
  H101     1.0000 0.46781  0.34409  0.97151  Biso   1.000  H
  H102     1.0000 0.35309  0.29612  0.93850  Biso   1.000  H
  H103     1.0000 0.29423  0.27463  0.84522  Biso   1.000  H
  H104     1.0000 0.34229  0.30158  0.77861  Biso   1.000  H
  H105     1.0000 0.43829  0.20628  0.95309  Biso   1.000  H
  H106     1.0000 0.49418  0.25062  0.89259  Biso   1.000  H
  H107     1.0000 0.34842  0.18373  0.77802  Biso   1.000  H
  H108     1.0000 0.44523  0.22788  0.83852  Biso   1.000  H
  O13      1.0000 0.44684  0.58474  0.54083  Biso   1.000  O
  C94      1.0000 0.35771  0.59051  0.50858  Biso   1.000  C
  C95      1.0000 0.53240  0.64375  0.52640  Biso   1.000  C
  C96      1.0000 0.29820  0.53898  0.44738  Biso   1.000  C
  C97      1.0000 0.33366  0.64730  0.54131  Biso   1.000  C
  N13      1.0000 0.61405  0.64635  0.56940  Biso   1.000  N
  N14      1.0000 0.52446  0.69102  0.47368  Biso   1.000  N
  C98      1.0000 0.21197  0.54693  0.41777  Biso   1.000  C
  H109     1.0000 0.31537  0.50052  0.42679  Biso   1.000  H
  C99      1.0000 0.24677  0.65243  0.50950  Biso   1.000  C
  H110     1.0000 0.37478  0.68082  0.58328  Biso   1.000  H
  C100     1.0000 0.69963  0.70251  0.55179  Biso   1.000  C
  C101     1.0000 0.61359  0.74400  0.46380  Biso   1.000  C
  O14      1.0000 0.14681  0.49484  0.35544  Biso   1.000  O
  C102     1.0000 0.18426  0.60280  0.44792  Biso   1.000  C
  O15      1.0000 0.22050  0.70969  0.54196  Biso   1.000  O
  N15      1.0000 0.78727  0.70961  0.59041  Biso   1.000  N
  N16      1.0000 0.70218  0.75250  0.49772  Biso   1.000  N
  O16      1.0000 0.61586  0.79732  0.41221  Biso   1.000  O
  C103     1.0000 0.16655  0.51930  0.29051  Biso   1.000  C
  H111     1.0000 0.12548  0.60682  0.42717  Biso   1.000  H
  C104     1.0000 0.24090  0.78301  0.51241  Biso   1.000  C
  C105     1.0000 0.88057  0.75614  0.56481  Biso   1.000  C
  C106     1.0000 0.79756  0.66933  0.65707  Biso   1.000  C
  C107     1.0000 0.52349  0.79224  0.37488  Biso   1.000  C
  N17      1.0000 0.10399  0.46574  0.23563  Biso   1.000  N
  N18      1.0000 0.24391  0.59195  0.28932  Biso   1.000  N
  N19      1.0000 0.29039  0.79663  0.45910  Biso   1.000  N
  N20      1.0000 0.20714  0.83081  0.54002  Biso   1.000  N
  C108     1.0000 0.89876  0.69915  0.51700  Biso   1.000  C
  H112     1.0000 0.93627  0.78023  0.60597  Biso   1.000  H
  H113     1.0000 0.87550  0.80153  0.53850  Biso   1.000  H
  H114     1.0000 0.84453  0.64509  0.65659  Biso   1.000  H
  H115     1.0000 0.73347  0.62442  0.65950  Biso   1.000  H
  C109     1.0000 0.83378  0.73124  0.72200  Biso   1.000  C
  C110     1.0000 0.47520  0.73675  0.31330  Biso   1.000  C
  C111     1.0000 0.48680  0.84461  0.39941  Biso   1.000  C
  C112     1.0000 0.12883  0.48714  0.17172  Biso   1.000  C
  C113     1.0000 0.25808  0.60550  0.22272  Biso   1.000  C
  C114     1.0000 0.30539  0.87034  0.43468  Biso   1.000  C
  C115     1.0000 0.22382  0.90185  0.50739  Biso   1.000  C
  C116     1.0000 0.96264  0.66250  0.54401  Biso   1.000  C
  C117     1.0000 0.84537  0.67381  0.44651  Biso   1.000  C
  C118     1.0000 0.92918  0.75983  0.76441  Biso   1.000  C
  C119     1.0000 0.77246  0.76622  0.73977  Biso   1.000  C
  C120     1.0000 0.38601  0.73473  0.27662  Biso   1.000  C
  H116     1.0000 0.50158  0.70231  0.29748  Biso   1.000  H
  C121     1.0000 0.39804  0.84000  0.36019  Biso   1.000  C
  H117     1.0000 0.52097  0.88156  0.44078  Biso   1.000  H
  N21      1.0000 0.06837  0.43695  0.11182  Biso   1.000  N
  N22      1.0000 0.20943  0.55671  0.16249  Biso   1.000  N
  O17      1.0000 0.33418  0.67839  0.21418  Biso   1.000  O
  O18      1.0000 0.35921  0.89404  0.38234  Biso   1.000  O
  N23      1.0000 0.27489  0.92531  0.45348  Biso   1.000  N
  N24      1.0000 0.18657  0.95272  0.53072  Biso   1.000  N
  C122     1.0000 0.96923  0.60094  0.50328  Biso   1.000  C
  H118     1.0000 0.00173  0.68021  0.59052  Biso   1.000  H
  C123     1.0000 0.85065  0.61213  0.40470  Biso   1.000  C
  H119     1.0000 0.80465  0.69910  0.42652  Biso   1.000  H
  H120     1.0000 0.97068  0.73582  0.75538  Biso   1.000  H
  C124     1.0000 0.96460  0.82325  0.81999  Biso   1.000  C
  C125     1.0000 0.80671  0.82926  0.79482  Biso   1.000  C
  H121     1.0000 0.70690  0.74653  0.71390  Biso   1.000  H
  C126     1.0000 0.34606  0.78652  0.29818  Biso   1.000  C
  C127     1.0000 0.10216  0.44359  0.04251  Biso   1.000  C
  C128     1.0000 0.96909  0.37230  0.11328  Biso   1.000  C
  C129     1.0000 0.14140  0.93244  0.59409  Biso   1.000  C
  C130     1.0000 0.17914  0.01939  0.48810  Biso   1.000  C
  C131     1.0000 0.91233  0.57462  0.43398  Biso   1.000  C
  H122     1.0000 0.01193  0.57701  0.52262  Biso   1.000  H
  H123     1.0000 0.81348  0.59591  0.35760  Biso   1.000  H
  C132     1.0000 0.90406  0.85935  0.83398  Biso   1.000  C
  H124     1.0000 0.02906  0.84144  0.84759  Biso   1.000  H
  H125     1.0000 0.76440  0.85155  0.80567  Biso   1.000  H
  H126     1.0000 0.28660  0.78511  0.27193  Biso   1.000  H
  C133     1.0000 0.15843  0.39094  0.03981  Biso   1.000  C
  H127     1.0000 0.14507  0.50162  0.03819  Biso   1.000  H
  H128     1.0000 0.04476  0.42473  0.00238  Biso   1.000  H
  C134     1.0000 0.88931  0.40459  0.09680  Biso   1.000  C
  H129     1.0000 0.96994  0.35184  0.16059  Biso   1.000  H
  H130     1.0000 0.95256  0.32583  0.07811  Biso   1.000  H
  C135     1.0000 0.21766  0.94801  0.66247  Biso   1.000  C
  H131     1.0000 0.09380  0.87394  0.58761  Biso   1.000  H
  H132     1.0000 0.10524  0.96597  0.59792  Biso   1.000  H
  C136     1.0000 0.09083  0.98755  0.42458  Biso   1.000  C
  H133     1.0000 0.24007  0.04750  0.47049  Biso   1.000  H
  H134     1.0000 0.17347  0.06022  0.51911  Biso   1.000  H
  O19      1.0000 0.92125  0.51101  0.39827  Biso   1.000  O
  O20      1.0000 0.94558  0.92515  0.88692  Biso   1.000  O
  C137     1.0000 0.11172  0.30791  0.00870  Biso   1.000  C
  C138     1.0000 0.25866  0.42163  0.07379  Biso   1.000  C
  C139     1.0000 0.90607  0.48274  0.12608  Biso   1.000  C
  C140     1.0000 0.79493  0.35543  0.05602  Biso   1.000  C
  C141     1.0000 0.20676  0.88823  0.71152  Biso   1.000  C
  C142     1.0000 0.30461  0.02019  0.67808  Biso   1.000  C
  C143     1.0000 0.00668  0.91222  0.42312  Biso   1.000  C
  C144     1.0000 0.08907  0.03321  0.36532  Biso   1.000  C
  C145     1.0000 0.84761  0.46809  0.33378  Biso   1.000  C
  C146     1.0000 0.87612  0.96654  0.89470  Biso   1.000  C
  C147     1.0000 0.93512  0.99095  0.88681  Biso   1.000  C
  C148     1.0000 0.16175  0.25813  0.01491  Biso   1.000  C
  H135     1.0000 0.04548  0.28612  0.98347  Biso   1.000  H
  C149     1.0000 0.30852  0.37103  0.07989  Biso   1.000  C
  H136     1.0000 0.29286  0.47733  0.09302  Biso   1.000  H
  C150     1.0000 0.83087  0.50994  0.11862  Biso   1.000  C
  H137     1.0000 0.96985  0.51810  0.15168  Biso   1.000  H
  H138     1.0000 0.78234  0.30360  0.03409  Biso   1.000  H
  C151     1.0000 0.71877  0.38083  0.04689  Biso   1.000  C
  C152     1.0000 0.27943  0.90096  0.77299  Biso   1.000  C
  H139     1.0000 0.14910  0.83824  0.70261  Biso   1.000  H
  H140     1.0000 0.31372  0.06148  0.64638  Biso   1.000  H
  C153     1.0000 0.37855  0.03460  0.73788  Biso   1.000  C
  H141     1.0000 0.00426  0.88062  0.46228  Biso   1.000  H
  C154     1.0000 0.92770  0.88402  0.36478  Biso   1.000  C
  C155     1.0000 0.00885  0.00372  0.30720  Biso   1.000  C
  H142     1.0000 0.14281  0.08439  0.36489  Biso   1.000  H
  C156     1.0000 0.86174  0.39181  0.31222  Biso   1.000  C
  H143     1.0000 0.85576  0.50489  0.29542  Biso   1.000  H
  H144     1.0000 0.78102  0.45121  0.34269  Biso   1.000  H
  H145     1.0000 0.83700  0.96653  0.84770  Biso   1.000  H
  H146     1.0000 0.83050  0.93555  0.92500  Biso   1.000  H
  H147     1.0000 0.90119  0.99515  0.83900  Biso   1.000  H
  C157     1.0000 0.87407  0.99365  0.94169  Biso   1.000  C
  H148     1.0000 0.80869  0.94656  0.92921  Biso   1.000  H
  C158     1.0000 0.93621  0.05111  0.92678  Biso   1.000  C
  H149     1.0000 0.00013  0.03850  0.89842  Biso   1.000  H
  C159     1.0000 0.25981  0.28832  0.05218  Biso   1.000  C
  H150     1.0000 0.12898  0.20312  0.99357  Biso   1.000  H
  H151     1.0000 0.37561  0.39312  0.10280  Biso   1.000  H
  C160     1.0000 0.73590  0.45739  0.08038  Biso   1.000  C
  H152     1.0000 0.84415  0.56265  0.13888  Biso   1.000  H
  H153     1.0000 0.65624  0.34684  0.01847  Biso   1.000  H
  C161     1.0000 0.36542  0.97513  0.78580  Biso   1.000  C
  H154     1.0000 0.27050  0.86022  0.80519  Biso   1.000  H
  H155     1.0000 0.43695  0.08411  0.74588  Biso   1.000  H
  C162     1.0000 0.92803  0.92825  0.30552  Biso   1.000  C
  H156     1.0000 0.87262  0.83374  0.36548  Biso   1.000  H
  H157     1.0000 0.00946  0.03559  0.26820  Biso   1.000  H
  C163     1.0000 0.78544  0.34081  0.24519  Biso   1.000  C
  H158     1.0000 0.85591  0.35670  0.35182  Biso   1.000  H
  H159     1.0000 0.92832  0.40973  0.30309  Biso   1.000  H
  H160     1.0000 0.90711  0.98753  0.98912  Biso   1.000  H
  C164     1.0000 0.86032  0.07851  0.94542  Biso   1.000  C
  H161     1.0000 0.97161  0.08619  0.89302  Biso   1.000  H
  H162     1.0000 0.98416  0.05309  0.96978  Biso   1.000  H
  O21      1.0000 0.30361  0.23388  0.05910  Biso   1.000  O
  O22      1.0000 0.65432  0.47560  0.07330  Biso   1.000  O
  O23      1.0000 0.43495  0.98191  0.84808  Biso   1.000  O
  O24      1.0000 0.84650  0.89153  0.24902  Biso   1.000  O
  C165     1.0000 0.68172  0.28869  0.25658  Biso   1.000  C
  H163     1.0000 0.78147  0.37883  0.20932  Biso   1.000  H
  H164     1.0000 0.80929  0.30389  0.22558  Biso   1.000  H
  H165     1.0000 0.89597  0.13900  0.95352  Biso   1.000  H
  H166     1.0000 0.81182  0.06713  0.90031  Biso   1.000  H
  H167     1.0000 0.92335  0.12738  0.96157  Biso   1.000  H
  H168     1.0000 0.82463  0.08653  0.89988  Biso   1.000  H
  C166     1.0000 0.79842  0.05573  0.00144  Biso   1.000  C
  C167     1.0000 0.39814  0.26122  0.10922  Biso   1.000  C
  C168     1.0000 0.66926  0.55440  0.10609  Biso   1.000  C
  C169     1.0000 0.52616  0.05650  0.86299  Biso   1.000  C
  C170     1.0000 0.84576  0.93052  0.18528  Biso   1.000  C
  C171     1.0000 0.60376  0.26341  0.18442  Biso   1.000  C
  H169     1.0000 0.66506  0.32033  0.28959  Biso   1.000  H
  H170     1.0000 0.67979  0.23868  0.27841  Biso   1.000  H
  H171     1.0000 0.74383  0.00069  0.98642  Biso   1.000  H
  H172     1.0000 0.83925  0.05188  0.04632  Biso   1.000  H
  C172     1.0000 0.75551  0.11568  0.01580  Biso   1.000  C
  H173     1.0000 0.39452  0.28412  0.15471  Biso   1.000  H
  H174     1.0000 0.44987  0.30474  0.08999  Biso   1.000  H
  C173     1.0000 0.42293  0.18629  0.12111  Biso   1.000  C
  C174     1.0000 0.56957  0.55331  0.10253  Biso   1.000  C
  H175     1.0000 0.70835  0.59975  0.08049  Biso   1.000  H
  H176     1.0000 0.70486  0.56313  0.15590  Biso   1.000  H
  C175     1.0000 0.59265  0.04530  0.92781  Biso   1.000  C
  H177     1.0000 0.51323  0.10441  0.87282  Biso   1.000  H
  H178     1.0000 0.55781  0.06557  0.82188  Biso   1.000  H
  C176     1.0000 0.75428  0.85362  0.12840  Biso   1.000  C
  C177     1.0000 0.78550  0.88433  0.11997  Biso   1.000  C
  H179     1.0000 0.90900  0.94822  0.17043  Biso   1.000  H
  H180     1.0000 0.83079  0.97836  0.19009  Biso   1.000  H
  H181     1.0000 0.91402  0.95626  0.17869  Biso   1.000  H
  H182     1.0000 0.82704  0.97564  0.19301  Biso   1.000  H
  C178     1.0000 0.50370  0.20218  0.18912  Biso   1.000  C
  H183     1.0000 0.59921  0.31333  0.16670  Biso   1.000  H
  H184     1.0000 0.62715  0.24049  0.14920  Biso   1.000  H
  C179     1.0000 0.68696  0.12424  0.95412  Biso   1.000  C
  H185     1.0000 0.72046  0.09733  0.05480  Biso   1.000  H
  H186     1.0000 0.81017  0.17044  0.03223  Biso   1.000  H
  H187     1.0000 0.36287  0.13758  0.12521  Biso   1.000  H
  H188     1.0000 0.44541  0.17432  0.07962  Biso   1.000  H
  C180     1.0000 0.57061  0.63045  0.13002  Biso   1.000  C
  H189     1.0000 0.53335  0.54002  0.05261  Biso   1.000  H
  H190     1.0000 0.53267  0.50863  0.12959  Biso   1.000  H
  H191     1.0000 0.61010  0.00069  0.91571  Biso   1.000  H
  H192     1.0000 0.55640  0.02878  0.96638  Biso   1.000  H
  C181     1.0000 0.64927  0.82001  0.14369  Biso   1.000  C
  C182     1.0000 0.67771  0.85716  0.11781  Biso   1.000  C
  H193     1.0000 0.75129  0.87291  0.08059  Biso   1.000  H
  H194     1.0000 0.77248  0.80721  0.12689  Biso   1.000  H
  H195     1.0000 0.79771  0.83533  0.11322  Biso   1.000  H
  H196     1.0000 0.80363  0.91826  0.08049  Biso   1.000  H
  H197     1.0000 0.48451  0.22141  0.22920  Biso   1.000  H
  H198     1.0000 0.50660  0.14962  0.19992  Biso   1.000  H
  H199     1.0000 0.72133  0.14159  0.91457  Biso   1.000  H
  H200     1.0000 0.66897  0.16821  0.96719  Biso   1.000  H
  C183     1.0000 0.58104  0.68671  0.07190  Biso   1.000  C
  H201     1.0000 0.62610  0.65683  0.17107  Biso   1.000  H
  H202     1.0000 0.50906  0.61875  0.14569  Biso   1.000  H
  C184     1.0000 0.64440  0.71042  0.17161  Biso   1.000  C
  H203     1.0000 0.51894  0.61072  0.15789  Biso   1.000  H
  H204     1.0000 0.54185  0.64872  0.08708  Biso   1.000  H
  C185     1.0000 0.56719  0.76535  0.09010  Biso   1.000  C
  H205     1.0000 0.64970  0.79124  0.18701  Biso   1.000  H
  H206     1.0000 0.63666  0.86782  0.15481  Biso   1.000  H
  C186     1.0000 0.62638  0.78892  0.17307  Biso   1.000  C
  H207     1.0000 0.64138  0.83352  0.06898  Biso   1.000  H
  H208     1.0000 0.66768  0.90666  0.12737  Biso   1.000  H
  H209     1.0000 0.53232  0.65595  0.02852  Biso   1.000  H
  H210     1.0000 0.64697  0.70392  0.06153  Biso   1.000  H
  H211     1.0000 0.70590  0.72541  0.15481  Biso   1.000  H
  H212     1.0000 0.65775  0.69840  0.22142  Biso   1.000  H
  H213     1.0000 0.56183  0.79376  0.04689  Biso   1.000  H
  H214     1.0000 0.50587  0.74942  0.10739  Biso   1.000  H
  H215     1.0000 0.65165  0.81632  0.22201  Biso   1.000  H
  H216     1.0000 0.55490  0.77216  0.16151  Biso   1.000  H
