data_image0
_cell_length_a       9.416
_cell_length_b       9.75
_cell_length_c       13.468
_cell_angle_alpha    110.83
_cell_angle_beta     93.48
_cell_angle_gamma    102.57

_symmetry_space_group_name_H-M    "P 1"
_symmetry_int_tables_number       1

loop_
  _symmetry_equiv_pos_as_xyz
  'x, y, z'

loop_
  _atom_site_label
  _atom_site_occupancy
  _atom_site_fract_x
  _atom_site_fract_y
  _atom_site_fract_z
  _atom_site_thermal_displace_type
  _atom_site_B_iso_or_equiv
  _atom_site_type_symbol
  C1       1.0000 0.46602  0.36970  0.35177  Biso   1.000  C
  C2       1.0000 0.43622  0.37116  0.25429  Biso   1.000  C
  C3       1.0000 0.59689  0.34929  0.40144  Biso   1.000  C
  H1       1.0000 0.39103  0.38097  0.39702  Biso   1.000  H
  C4       1.0000 0.51345  0.33739  0.16363  Biso   1.000  C
  H2       1.0000 0.34600  0.39293  0.23998  Biso   1.000  H
  N1       1.0000 0.58809  0.28510  0.47771  Biso   1.000  N
  C5       1.0000 0.74384  0.39566  0.39815  Biso   1.000  C
  N2       1.0000 0.62795  0.26924  0.15350  Biso   1.000  N
  C6       1.0000 0.48712  0.35563  0.06863  Biso   1.000  C
  C7       1.0000 0.72469  0.28997  0.52159  Biso   1.000  C
  H3       1.0000 0.50801  0.24997  0.49298  Biso   1.000  H
  C8       1.0000 0.82311  0.35902  0.47289  Biso   1.000  C
  H4       1.0000 0.78474  0.44337  0.35394  Biso   1.000  H
  C9       1.0000 0.67213  0.24285  0.05562  Biso   1.000  C
  H5       1.0000 0.66604  0.24499  0.20502  Biso   1.000  H
  H6       1.0000 0.41603  0.39975  0.05152  Biso   1.000  H
  C10      1.0000 0.58484  0.29667  0.00161  Biso   1.000  C
  C11      1.0000 0.74740  0.21427  0.59915  Biso   1.000  C
  H7       1.0000 0.92497  0.37871  0.48671  Biso   1.000  H
  C12      1.0000 0.80022  0.17314  0.02508  Biso   1.000  C
  H8       1.0000 0.58945  0.29436  0.93225  Biso   1.000  H
  C13      1.0000 0.75569  0.05300  0.53710  Biso   1.000  C
  C14      1.0000 0.61970  0.20743  0.66417  Biso   1.000  C
  C15      1.0000 0.89221  0.30284  0.67574  Biso   1.000  C
  C16      1.0000 0.84217  0.10976  0.10641  Biso   1.000  C
  C17      1.0000 0.93253  0.29878  0.02540  Biso   1.000  C
  C18      1.0000 0.75656  0.04888  0.91200  Biso   1.000  C
  N3       1.0000 0.76466  0.00061  0.43029  Biso   1.000  N
  C19      1.0000 0.75546  0.93533  0.56957  Biso   1.000  C
  H9       1.0000 0.60907  0.30820  0.70089  Biso   1.000  H
  H10      1.0000 0.63966  0.16441  0.71576  Biso   1.000  H
  H11      1.0000 0.53038  0.14563  0.61659  Biso   1.000  H
  H12      1.0000 0.97211  0.30648  0.63499  Biso   1.000  H
  H13      1.0000 0.90846  0.25317  0.72396  Biso   1.000  H
  H14      1.0000 0.88654  0.40434  0.71641  Biso   1.000  H
  C20      1.0000 0.93984  0.17313  0.19956  Biso   1.000  C
  N4       1.0000 0.77208  0.96789  0.10030  Biso   1.000  N
  H15      1.0000 0.95570  0.38006  0.09467  Biso   1.000  H
  H16      1.0000 0.90794  0.33671  0.97155  Biso   1.000  H
  H17      1.0000 0.01613  0.25770  0.00989  Biso   1.000  H
  H18      1.0000 0.67147  0.97289  0.91079  Biso   1.000  H
  H19      1.0000 0.83658  0.00317  0.89295  Biso   1.000  H
  H20      1.0000 0.73403  0.09278  0.86144  Biso   1.000  H
  H21      1.0000 0.76603  0.05199  0.39099  Biso   1.000  H
  C21      1.0000 0.76724  0.85086  0.39236  Biso   1.000  C
  C22      1.0000 0.76303  0.80990  0.47964  Biso   1.000  C
  H22      1.0000 0.75093  0.93794  0.63909  Biso   1.000  H
  C23      1.0000 0.92720  0.06833  0.25019  Biso   1.000  C
  H23      1.0000 0.00397  0.26969  0.22527  Biso   1.000  H
  C24      1.0000 0.82156  0.94031  0.18766  Biso   1.000  C
  H24      1.0000 0.70498  0.90498  0.05103  Biso   1.000  H
  C25      1.0000 0.75842  0.75724  0.28057  Biso   1.000  C
  H25      1.0000 0.76504  0.71479  0.47924  Biso   1.000  H
  H26      1.0000 0.98141  0.08363  0.31496  Biso   1.000  H
  C26      1.0000 0.77206  0.79224  0.19393  Biso   1.000  C
  H27      1.0000 0.73502  0.65502  0.26666  Biso   1.000  H
  H28      1.0000 0.75004  0.71097  0.12803  Biso   1.000  H
  C27      1.0000 0.53401  0.63024  0.64817  Biso   1.000  C
  C28      1.0000 0.40311  0.65055  0.59850  Biso   1.000  C
  C29      1.0000 0.56378  0.62868  0.74566  Biso   1.000  C
  H29      1.0000 0.60899  0.61891  0.60301  Biso   1.000  H
  N5       1.0000 0.41191  0.71474  0.52224  Biso   1.000  N
  C30      1.0000 0.25608  0.60429  0.60180  Biso   1.000  C
  C31      1.0000 0.48657  0.66249  0.83640  Biso   1.000  C
  H30      1.0000 0.65400  0.60691  0.75997  Biso   1.000  H
  C32      1.0000 0.27534  0.70998  0.47835  Biso   1.000  C
  H31      1.0000 0.49202  0.74997  0.50697  Biso   1.000  H
  C33      1.0000 0.17689  0.64082  0.52706  Biso   1.000  C
  H32      1.0000 0.21528  0.55658  0.64600  Biso   1.000  H
  N6       1.0000 0.37195  0.73060  0.84644  Biso   1.000  N
  C34      1.0000 0.51292  0.64436  0.93139  Biso   1.000  C
  C35      1.0000 0.25263  0.78567  0.40080  Biso   1.000  C
  H33      1.0000 0.07497  0.62128  0.51331  Biso   1.000  H
  C36      1.0000 0.32790  0.75710  0.94433  Biso   1.000  C
  H34      1.0000 0.33396  0.75486  0.79493  Biso   1.000  H
  H35      1.0000 0.58397  0.60009  0.94843  Biso   1.000  H
  C37      1.0000 0.41517  0.70317  0.99834  Biso   1.000  C
  C38      1.0000 0.24424  0.94695  0.46284  Biso   1.000  C
  C39      1.0000 0.38030  0.79241  0.33578  Biso   1.000  C
  C40      1.0000 0.10782  0.69711  0.32421  Biso   1.000  C
  C41      1.0000 0.19978  0.82671  0.97487  Biso   1.000  C
  H36      1.0000 0.41045  0.70548  0.06770  Biso   1.000  H
  N7       1.0000 0.23524  0.99923  0.56965  Biso   1.000  N
  C42      1.0000 0.24444  0.06451  0.43037  Biso   1.000  C
  H37      1.0000 0.39086  0.69175  0.29905  Biso   1.000  H
  H38      1.0000 0.36024  0.83543  0.28418  Biso   1.000  H
  H39      1.0000 0.46962  0.85421  0.38336  Biso   1.000  H
  H40      1.0000 0.02791  0.69347  0.36495  Biso   1.000  H
  H41      1.0000 0.09144  0.74667  0.27599  Biso   1.000  H
  H42      1.0000 0.11338  0.59554  0.28362  Biso   1.000  H
  C43      1.0000 0.15773  0.89008  0.89354  Biso   1.000  C
  C44      1.0000 0.06747  0.70107  0.97455  Biso   1.000  C
  C45      1.0000 0.24336  0.95107  0.08795  Biso   1.000  C
  H43      1.0000 0.23400  0.94795  0.60895  Biso   1.000  H
  C46      1.0000 0.23266  0.14898  0.60759  Biso   1.000  C
  C47      1.0000 0.23686  0.18995  0.52031  Biso   1.000  C
  H44      1.0000 0.24897  0.06191  0.36085  Biso   1.000  H
  N8       1.0000 0.22782  0.03195  0.89965  Biso   1.000  N
  C48      1.0000 0.06017  0.82671  0.80039  Biso   1.000  C
  H45      1.0000 0.04420  0.61978  0.90527  Biso   1.000  H
  H46      1.0000 0.98390  0.74225  0.99006  Biso   1.000  H
  H47      1.0000 0.09198  0.66324  0.02840  Biso   1.000  H
  H48      1.0000 0.16332  0.99667  0.10700  Biso   1.000  H
  H49      1.0000 0.26587  0.90707  0.13850  Biso   1.000  H
  H50      1.0000 0.32856  0.02706  0.08916  Biso   1.000  H
  C49      1.0000 0.24159  0.24260  0.71938  Biso   1.000  C
  H51      1.0000 0.23488  0.28515  0.52071  Biso   1.000  H
  C50      1.0000 0.17837  0.05963  0.81229  Biso   1.000  C
  H52      1.0000 0.29494  0.09491  0.94899  Biso   1.000  H
  C51      1.0000 0.07280  0.93151  0.74976  Biso   1.000  C
  H53      1.0000 0.99595  0.73026  0.77467  Biso   1.000  H
  C52      1.0000 0.22799  0.20775  0.80610  Biso   1.000  C
  H54      1.0000 0.26500  0.34493  0.73328  Biso   1.000  H
  H55      1.0000 0.01860  0.91621  0.68498  Biso   1.000  H
  H56      1.0000 0.24996  0.28887  0.87192  Biso   1.000  H
