data_image0
_cell_length_a       8.708
_cell_length_b       21.409
_cell_length_c       17.664
_cell_angle_alpha    90
_cell_angle_beta     100.82
_cell_angle_gamma    90

_symmetry_space_group_name_H-M    "P 1"
_symmetry_int_tables_number       1

loop_
  _symmetry_equiv_pos_as_xyz
  'x, y, z'

loop_
  _atom_site_label
  _atom_site_occupancy
  _atom_site_fract_x
  _atom_site_fract_y
  _atom_site_fract_z
  _atom_site_thermal_displace_type
  _atom_site_B_iso_or_equiv
  _atom_site_type_symbol
  N1       1.0000 0.63668  0.44729  0.50911  Biso   1.000  N
  C1       1.0000 0.63644  0.44631  0.43401  Biso   1.000  C
  C2       1.0000 0.54696  0.40674  0.53948  Biso   1.000  C
  C3       1.0000 0.54452  0.40413  0.38380  Biso   1.000  C
  C4       1.0000 0.74155  0.49124  0.40513  Biso   1.000  C
  C5       1.0000 0.44994  0.36387  0.49308  Biso   1.000  C
  C6       1.0000 0.56041  0.41263  0.62398  Biso   1.000  C
  C7       1.0000 0.55203  0.40282  0.30098  Biso   1.000  C
  C8       1.0000 0.44948  0.36326  0.41527  Biso   1.000  C
  C9       1.0000 0.76217  0.48961  0.32842  Biso   1.000  C
  N2       1.0000 0.81627  0.53207  0.45631  Biso   1.000  N
  H1       1.0000 0.38570  0.33589  0.51499  Biso   1.000  H
  C10      1.0000 0.48379  0.37358  0.66824  Biso   1.000  C
  C11      1.0000 0.65287  0.46037  0.66202  Biso   1.000  C
  O1       1.0000 0.47124  0.36849  0.25499  Biso   1.000  O
  C12      1.0000 0.67196  0.44551  0.27274  Biso   1.000  C
  H2       1.0000 0.38406  0.33481  0.38282  Biso   1.000  H
  C13      1.0000 0.87109  0.52992  0.30715  Biso   1.000  C
  C14      1.0000 0.91792  0.57238  0.43493  Biso   1.000  C
  H3       1.0000 0.42046  0.34042  0.64398  Biso   1.000  H
  C15      1.0000 0.49867  0.38246  0.74651  Biso   1.000  C
  C16      1.0000 0.66861  0.47004  0.73983  Biso   1.000  C
  H4       1.0000 0.70697  0.48718  0.63308  Biso   1.000  H
  O2       1.0000 0.68817  0.44150  0.20646  Biso   1.000  O
  H5       1.0000 0.89067  0.52898  0.25602  Biso   1.000  H
  C17      1.0000 0.95078  0.57140  0.35989  Biso   1.000  C
  C18      1.0000 0.99215  0.61614  0.49568  Biso   1.000  C
  C19      1.0000 0.59120  0.43089  0.78323  Biso   1.000  C
  H6       1.0000 0.44570  0.35541  0.77568  Biso   1.000  H
  H7       1.0000 0.73199  0.50320  0.76392  Biso   1.000  H
  H8       1.0000 0.02663  0.59881  0.34588  Biso   1.000  H
  C20      1.0000 0.95677  0.61175  0.56922  Biso   1.000  C
  C21      1.0000 0.09993  0.66187  0.48317  Biso   1.000  C
  O3       1.0000 0.59973  0.43650  0.86081  Biso   1.000  O
  H9       1.0000 0.88237  0.58172  0.57862  Biso   1.000  H
  C22      1.0000 0.02705  0.64991  0.62893  Biso   1.000  C
  C23      1.0000 0.17150  0.69994  0.54236  Biso   1.000  C
  H10      1.0000 0.12385  0.66668  0.43320  Biso   1.000  H
  C24      1.0000 0.69105  0.48769  0.89677  Biso   1.000  C
  H11      1.0000 0.00022  0.64618  0.67850  Biso   1.000  H
  C25      1.0000 0.13722  0.69373  0.61608  Biso   1.000  C
  H12      1.0000 0.24462  0.73058  0.53291  Biso   1.000  H
  C26      1.0000 0.70628  0.48293  0.98231  Biso   1.000  C
  H13      1.0000 0.63988  0.52772  0.87850  Biso   1.000  H
  H14      1.0000 0.79598  0.48690  0.88283  Biso   1.000  H
  O4       1.0000 0.21694  0.73245  0.67193  Biso   1.000  O
  H15      1.0000 0.60561  0.47102  0.99660  Biso   1.000  H
  O5       1.0000 0.75166  0.54421  0.00859  Biso   1.000  O
  H16      1.0000 0.78688  0.45191  0.00398  Biso   1.000  H
  C27      1.0000 0.19370  0.72227  0.74934  Biso   1.000  C
  C28      1.0000 0.78860  0.54935  0.08963  Biso   1.000  C
  H17      1.0000 0.20477  0.67729  0.76242  Biso   1.000  H
  H18      1.0000 0.08768  0.73600  0.75470  Biso   1.000  H
  C29      1.0000 0.31645  0.75982  0.80236  Biso   1.000  C
  H19      1.0000 0.87540  0.52062  0.11038  Biso   1.000  H
  H20      1.0000 0.69657  0.53781  0.11211  Biso   1.000  H
  C30      1.0000 0.83552  0.61530  0.11061  Biso   1.000  C
  O6       1.0000 0.29372  0.75496  0.87960  Biso   1.000  O
  H21      1.0000 0.42177  0.74422  0.79879  Biso   1.000  H
  H22      1.0000 0.30975  0.80419  0.78628  Biso   1.000  H
  O7       1.0000 0.98577  0.62721  0.09262  Biso   1.000  O
  H23      1.0000 0.75778  0.64450  0.08167  Biso   1.000  H
  H24      1.0000 0.83885  0.62189  0.16640  Biso   1.000  H
  C31      1.0000 0.35103  0.69798  0.91579  Biso   1.000  C
  C32      1.0000 0.03868  0.68840  0.11124  Biso   1.000  C
  H25      1.0000 0.45889  0.69050  0.90773  Biso   1.000  H
  H26      1.0000 0.28470  0.66281  0.89239  Biso   1.000  H
  C33      1.0000 0.34947  0.70106  0.00006  Biso   1.000  C
  H27      1.0000 0.96676  0.71872  0.08041  Biso   1.000  H
  H28      1.0000 0.03901  0.69662  0.16640  Biso   1.000  H
  C34      1.0000 0.19780  0.69681  0.09545  Biso   1.000  C
  O8       1.0000 0.19610  0.69443  0.01499  Biso   1.000  O
  H29      1.0000 0.41665  0.66752  0.02692  Biso   1.000  H
  H30      1.0000 0.39334  0.74170  0.02058  Biso   1.000  H
  H31      1.0000 0.24000  0.73759  0.11608  Biso   1.000  H
  H32      1.0000 0.26693  0.66360  0.12167  Biso   1.000  H
  N3       1.0000 0.36332  0.55271  0.49089  Biso   1.000  N
  C35      1.0000 0.36355  0.55369  0.56600  Biso   1.000  C
  C36      1.0000 0.45302  0.59326  0.46046  Biso   1.000  C
  C37      1.0000 0.25845  0.50876  0.59487  Biso   1.000  C
  C38      1.0000 0.45548  0.59587  0.61620  Biso   1.000  C
  C39      1.0000 0.43958  0.58737  0.37602  Biso   1.000  C
  C40      1.0000 0.55006  0.63613  0.50692  Biso   1.000  C
  N4       1.0000 0.18372  0.46793  0.54369  Biso   1.000  N
  C41      1.0000 0.23782  0.51039  0.67159  Biso   1.000  C
  C42      1.0000 0.44797  0.59718  0.69902  Biso   1.000  C
  C43      1.0000 0.55052  0.63674  0.58473  Biso   1.000  C
  C44      1.0000 0.51620  0.62642  0.33176  Biso   1.000  C
  C45      1.0000 0.34712  0.53963  0.33798  Biso   1.000  C
  H33      1.0000 0.61430  0.66411  0.48502  Biso   1.000  H
  C46      1.0000 0.08208  0.42762  0.56507  Biso   1.000  C
  C47      1.0000 0.12890  0.47008  0.69285  Biso   1.000  C
  C48      1.0000 0.32804  0.55449  0.72726  Biso   1.000  C
  O9       1.0000 0.52876  0.63151  0.74502  Biso   1.000  O
  H34      1.0000 0.61605  0.66519  0.61718  Biso   1.000  H
  H35      1.0000 0.57953  0.65958  0.35602  Biso   1.000  H
  C49      1.0000 0.50133  0.61754  0.25349  Biso   1.000  C
  C50      1.0000 0.33139  0.52996  0.26017  Biso   1.000  C
  H36      1.0000 0.29303  0.51282  0.36692  Biso   1.000  H
  C51      1.0000 0.00785  0.38386  0.50432  Biso   1.000  C
  C52      1.0000 0.04922  0.42860  0.64012  Biso   1.000  C
  H37      1.0000 0.10933  0.47102  0.74398  Biso   1.000  H
  O10      1.0000 0.31182  0.55850  0.79355  Biso   1.000  O
  C53      1.0000 0.40880  0.56911  0.21677  Biso   1.000  C
  H38      1.0000 0.55430  0.64459  0.22432  Biso   1.000  H
  H39      1.0000 0.26801  0.49680  0.23608  Biso   1.000  H
  C54      1.0000 0.04323  0.38825  0.43078  Biso   1.000  C
  C55      1.0000 0.90007  0.33813  0.51683  Biso   1.000  C
  H40      1.0000 0.97336  0.40119  0.65412  Biso   1.000  H
  O11      1.0000 0.40027  0.56350  0.13919  Biso   1.000  O
  H41      1.0000 0.11763  0.41828  0.42138  Biso   1.000  H
  C56      1.0000 0.97295  0.35009  0.37107  Biso   1.000  C
  C57      1.0000 0.82849  0.30006  0.45764  Biso   1.000  C
  H42      1.0000 0.87615  0.33332  0.56680  Biso   1.000  H
  C58      1.0000 0.30895  0.51231  0.10323  Biso   1.000  C
  H43      1.0000 0.99978  0.35382  0.32150  Biso   1.000  H
  C59      1.0000 0.86278  0.30627  0.38392  Biso   1.000  C
  H44      1.0000 0.75538  0.26942  0.46709  Biso   1.000  H
  C60      1.0000 0.29372  0.51707  0.01769  Biso   1.000  C
  H45      1.0000 0.36012  0.47228  0.12150  Biso   1.000  H
  H46      1.0000 0.20401  0.51310  0.11718  Biso   1.000  H
  O12      1.0000 0.78306  0.26755  0.32807  Biso   1.000  O
  H47      1.0000 0.39438  0.52898  0.00340  Biso   1.000  H
  O13      1.0000 0.24834  0.45579  0.99141  Biso   1.000  O
  H48      1.0000 0.21312  0.54809  0.99602  Biso   1.000  H
  C61      1.0000 0.80629  0.27773  0.25066  Biso   1.000  C
  C62      1.0000 0.21139  0.45065  0.91037  Biso   1.000  C
  H49      1.0000 0.79522  0.32271  0.23758  Biso   1.000  H
  H50      1.0000 0.91231  0.26400  0.24530  Biso   1.000  H
  C63      1.0000 0.68355  0.24018  0.19764  Biso   1.000  C
  C64      1.0000 0.16447  0.38470  0.88939  Biso   1.000  C
  H51      1.0000 0.12460  0.47938  0.88963  Biso   1.000  H
  H52      1.0000 0.30343  0.46219  0.88790  Biso   1.000  H
  O14      1.0000 0.70628  0.24504  0.12040  Biso   1.000  O
  H53      1.0000 0.57823  0.25578  0.20121  Biso   1.000  H
  H54      1.0000 0.69036  0.19581  0.21372  Biso   1.000  H
  O15      1.0000 0.01422  0.37279  0.90738  Biso   1.000  O
  H55      1.0000 0.24219  0.35550  0.91827  Biso   1.000  H
  H56      1.0000 0.16114  0.37811  0.83360  Biso   1.000  H
  C65      1.0000 0.64897  0.30202  0.08421  Biso   1.000  C
  C66      1.0000 0.96132  0.31160  0.88876  Biso   1.000  C
  C67      1.0000 0.65053  0.29894  0.99994  Biso   1.000  C
  H57      1.0000 0.54111  0.30950  0.09228  Biso   1.000  H
  H58      1.0000 0.71530  0.33719  0.10761  Biso   1.000  H
  C68      1.0000 0.80219  0.30319  0.90455  Biso   1.000  C
  H59      1.0000 0.96098  0.30338  0.83360  Biso   1.000  H
  H60      1.0000 0.03323  0.28128  0.91960  Biso   1.000  H
  O16      1.0000 0.80389  0.30557  0.98501  Biso   1.000  O
  H61      1.0000 0.58334  0.33248  0.97308  Biso   1.000  H
  H62      1.0000 0.60666  0.25830  0.97942  Biso   1.000  H
  H63      1.0000 0.76000  0.26241  0.88392  Biso   1.000  H
  H64      1.0000 0.73304  0.33640  0.87827  Biso   1.000  H
  O17      1.0000 0.79372  0.74501  0.37960  Biso   1.000  O
  C69      1.0000 0.81645  0.74016  0.30236  Biso   1.000  C
  C70      1.0000 0.85103  0.80205  0.41579  Biso   1.000  C
  C71      1.0000 0.69371  0.77776  0.24934  Biso   1.000  C
  H65      1.0000 0.92177  0.75580  0.29879  Biso   1.000  H
  H66      1.0000 0.80975  0.69578  0.28628  Biso   1.000  H
  C72      1.0000 0.84947  0.79892  0.50006  Biso   1.000  C
  H67      1.0000 0.95889  0.80952  0.40772  Biso   1.000  H
  H68      1.0000 0.78470  0.83722  0.39239  Biso   1.000  H
  O18      1.0000 0.71694  0.76753  0.17193  Biso   1.000  O
  H69      1.0000 0.70477  0.82269  0.26242  Biso   1.000  H
  H70      1.0000 0.58769  0.76398  0.25470  Biso   1.000  H
  O19      1.0000 0.69610  0.80555  0.51499  Biso   1.000  O
  H71      1.0000 0.91666  0.83250  0.52692  Biso   1.000  H
  H72      1.0000 0.89334  0.75828  0.52058  Biso   1.000  H
  C73      1.0000 0.63722  0.80625  0.11608  Biso   1.000  C
  C74      1.0000 0.69780  0.80317  0.59545  Biso   1.000  C
  C75      1.0000 0.67151  0.80004  0.04236  Biso   1.000  C
  C76      1.0000 0.52705  0.85011  0.12893  Biso   1.000  C
  C77      1.0000 0.53868  0.81162  0.61124  Biso   1.000  C
  H73      1.0000 0.74000  0.76239  0.61608  Biso   1.000  H
  H74      1.0000 0.76705  0.83638  0.62167  Biso   1.000  H
  H75      1.0000 0.74462  0.76940  0.03291  Biso   1.000  H
  C78      1.0000 0.59993  0.83815  0.98317  Biso   1.000  C
  C79      1.0000 0.45677  0.88827  0.06922  Biso   1.000  C
  H76      1.0000 0.50022  0.85380  0.17850  Biso   1.000  H
  O20      1.0000 0.48577  0.87281  0.59262  Biso   1.000  O
  H77      1.0000 0.53902  0.80340  0.66640  Biso   1.000  H
  H78      1.0000 0.46677  0.78131  0.58040  Biso   1.000  H
  H79      1.0000 0.62385  0.83329  0.93320  Biso   1.000  H
  C80      1.0000 0.49215  0.88383  0.99568  Biso   1.000  C
  H80      1.0000 0.38237  0.91831  0.07862  Biso   1.000  H
  C81      1.0000 0.33552  0.88472  0.61061  Biso   1.000  C
  C82      1.0000 0.41792  0.92765  0.93493  Biso   1.000  C
  C83      1.0000 0.28861  0.95063  0.58963  Biso   1.000  C
  H81      1.0000 0.25779  0.85548  0.58167  Biso   1.000  H
  H82      1.0000 0.33886  0.87809  0.66640  Biso   1.000  H
  N5       1.0000 0.31628  0.96796  0.95631  Biso   1.000  N
  C84      1.0000 0.45078  0.92863  0.85988  Biso   1.000  C
  O21      1.0000 0.25164  0.95577  0.50853  Biso   1.000  O
  H83      1.0000 0.37540  0.97940  0.61038  Biso   1.000  H
  H84      1.0000 0.19657  0.96221  0.61210  Biso   1.000  H
  C85      1.0000 0.24155  0.00878  0.90513  Biso   1.000  C
  C86      1.0000 0.37110  0.97006  0.80715  Biso   1.000  C
  H85      1.0000 0.52664  0.90121  0.84588  Biso   1.000  H
  C87      1.0000 0.20628  0.01710  0.48231  Biso   1.000  C
  C88      1.0000 0.26218  0.01037  0.82841  Biso   1.000  C
  C89      1.0000 0.13645  0.05367  0.93401  Biso   1.000  C
  H86      1.0000 0.39067  0.97099  0.75602  Biso   1.000  H
  H87      1.0000 0.10562  0.02901  0.49660  Biso   1.000  H
  H88      1.0000 0.28688  0.04811  0.50398  Biso   1.000  H
  C90      1.0000 0.19105  0.01228  0.39677  Biso   1.000  C
  C91      1.0000 0.17196  0.05451  0.77274  Biso   1.000  C
  C92      1.0000 0.04452  0.09589  0.88380  Biso   1.000  C
  N6       1.0000 0.13668  0.05269  0.00911  Biso   1.000  N
  H89      1.0000 0.13988  0.97230  0.37850  Biso   1.000  H
  O22      1.0000 0.09973  0.06348  0.36081  Biso   1.000  O
  H90      1.0000 0.29598  0.01308  0.38282  Biso   1.000  H
  O23      1.0000 0.18817  0.05848  0.70645  Biso   1.000  O
  C93      1.0000 0.05203  0.09716  0.80098  Biso   1.000  C
  C94      1.0000 0.94948  0.13672  0.91527  Biso   1.000  C
  C95      1.0000 0.04696  0.09328  0.03948  Biso   1.000  C
  C96      1.0000 0.09120  0.06908  0.28323  Biso   1.000  C
  O24      1.0000 0.97124  0.13153  0.75499  Biso   1.000  O
  H91      1.0000 0.88407  0.16521  0.88282  Biso   1.000  H
  C97      1.0000 0.94994  0.13611  0.99308  Biso   1.000  C
  C98      1.0000 0.06042  0.08735  0.12398  Biso   1.000  C
  C99      1.0000 0.99867  0.11757  0.24651  Biso   1.000  C
  C100     1.0000 0.16861  0.02999  0.23983  Biso   1.000  C
  H92      1.0000 0.88570  0.16409  0.01499  Biso   1.000  H
  C101     1.0000 0.98379  0.12644  0.16824  Biso   1.000  C
  C102     1.0000 0.15288  0.03961  0.16202  Biso   1.000  C
  H93      1.0000 0.94570  0.14461  0.27568  Biso   1.000  H
  H94      1.0000 0.23199  0.99678  0.26392  Biso   1.000  H
  H95      1.0000 0.92047  0.15961  0.14398  Biso   1.000  H
  H96      1.0000 0.20697  0.01280  0.13308  Biso   1.000  H
  O25      1.0000 0.20627  0.25499  0.62040  Biso   1.000  O
  C103     1.0000 0.14897  0.19795  0.58421  Biso   1.000  C
  C104     1.0000 0.18355  0.25984  0.69764  Biso   1.000  C
  C105     1.0000 0.15053  0.20108  0.49994  Biso   1.000  C
  H97      1.0000 0.04111  0.19048  0.59228  Biso   1.000  H
  H98      1.0000 0.21530  0.16278  0.60761  Biso   1.000  H
  C106     1.0000 0.30629  0.22224  0.75066  Biso   1.000  C
  H99      1.0000 0.07823  0.24420  0.70121  Biso   1.000  H
  H100     1.0000 0.19036  0.30422  0.71372  Biso   1.000  H
  O26      1.0000 0.30389  0.19445  0.48502  Biso   1.000  O
  H101     1.0000 0.08334  0.16750  0.47308  Biso   1.000  H
  H102     1.0000 0.10666  0.24172  0.47942  Biso   1.000  H
  O27      1.0000 0.28306  0.23247  0.82807  Biso   1.000  O
  H103     1.0000 0.29522  0.17731  0.73758  Biso   1.000  H
  H104     1.0000 0.41231  0.23602  0.74530  Biso   1.000  H
  C107     1.0000 0.30219  0.19683  0.40455  Biso   1.000  C
  C108     1.0000 0.36278  0.19375  0.88392  Biso   1.000  C
  C109     1.0000 0.46131  0.18838  0.38876  Biso   1.000  C
  H105     1.0000 0.26000  0.23761  0.38392  Biso   1.000  H
  H106     1.0000 0.23304  0.16362  0.37827  Biso   1.000  H
  C110     1.0000 0.32849  0.19996  0.95764  Biso   1.000  C
  C111     1.0000 0.47295  0.14989  0.87107  Biso   1.000  C
  O28      1.0000 0.51422  0.12719  0.40738  Biso   1.000  O
  H107     1.0000 0.46098  0.19660  0.33360  Biso   1.000  H
  H108     1.0000 0.53323  0.21869  0.41960  Biso   1.000  H
  H109     1.0000 0.25538  0.23060  0.96709  Biso   1.000  H
  C112     1.0000 0.40007  0.16185  0.01683  Biso   1.000  C
  C113     1.0000 0.54323  0.11173  0.93078  Biso   1.000  C
  H110     1.0000 0.49978  0.14620  0.82150  Biso   1.000  H
  C114     1.0000 0.66447  0.11528  0.38940  Biso   1.000  C
  H111     1.0000 0.37615  0.16671  0.06680  Biso   1.000  H
  C115     1.0000 0.50784  0.11617  0.00432  Biso   1.000  C
  H112     1.0000 0.61762  0.08169  0.92139  Biso   1.000  H
  C116     1.0000 0.71139  0.04937  0.41038  Biso   1.000  C
  H113     1.0000 0.74219  0.14452  0.41827  Biso   1.000  H
  H114     1.0000 0.66114  0.12191  0.33360  Biso   1.000  H
  C117     1.0000 0.58208  0.07235  0.06507  Biso   1.000  C
  O29      1.0000 0.74834  0.04423  0.49141  Biso   1.000  O
  H115     1.0000 0.62460  0.02060  0.38963  Biso   1.000  H
  H116     1.0000 0.80343  0.03779  0.38790  Biso   1.000  H
  N7       1.0000 0.68372  0.03204  0.04369  Biso   1.000  N
  C118     1.0000 0.54922  0.07137  0.14012  Biso   1.000  C
  C119     1.0000 0.79371  0.98290  0.51770  Biso   1.000  C
  C120     1.0000 0.75845  0.99122  0.09487  Biso   1.000  C
  C121     1.0000 0.62890  0.02994  0.19286  Biso   1.000  C
  H117     1.0000 0.47336  0.09879  0.15412  Biso   1.000  H
  H118     1.0000 0.89438  0.97099  0.50340  Biso   1.000  H
  H119     1.0000 0.71311  0.95189  0.49602  Biso   1.000  H
  C122     1.0000 0.80894  0.98772  0.60323  Biso   1.000  C
  C123     1.0000 0.73782  0.98963  0.17159  Biso   1.000  C
  C124     1.0000 0.86355  0.94633  0.06600  Biso   1.000  C
  H120     1.0000 0.60932  0.02901  0.24398  Biso   1.000  H
  H121     1.0000 0.86011  0.02770  0.62150  Biso   1.000  H
  O30      1.0000 0.90027  0.93652  0.63919  Biso   1.000  O
  H122     1.0000 0.70401  0.98692  0.61718  Biso   1.000  H
  C125     1.0000 0.82804  0.94549  0.22726  Biso   1.000  C
  N8       1.0000 0.86332  0.94731  0.99090  Biso   1.000  N
  C126     1.0000 0.95547  0.90411  0.11620  Biso   1.000  C
  C127     1.0000 0.90880  0.93092  0.71677  Biso   1.000  C
  O31      1.0000 0.81182  0.94152  0.29355  Biso   1.000  O
  C128     1.0000 0.94797  0.90284  0.19902  Biso   1.000  C
  C129     1.0000 0.95302  0.90672  0.96046  Biso   1.000  C
  C130     1.0000 0.05052  0.86328  0.08473  Biso   1.000  C
  C131     1.0000 0.83139  0.97001  0.76017  Biso   1.000  C
  C132     1.0000 0.00132  0.88243  0.75349  Biso   1.000  C
  O32      1.0000 0.02876  0.86847  0.24502  Biso   1.000  O
  C133     1.0000 0.93958  0.91265  0.87602  Biso   1.000  C
  C134     1.0000 0.05006  0.86389  0.00692  Biso   1.000  C
  H123     1.0000 0.11593  0.83479  0.11718  Biso   1.000  H
  H124     1.0000 0.76801  0.00322  0.73608  Biso   1.000  H
  C135     1.0000 0.84712  0.96039  0.83798  Biso   1.000  C
  C136     1.0000 0.01620  0.87356  0.83176  Biso   1.000  C
  H125     1.0000 0.05430  0.85539  0.72432  Biso   1.000  H
  H126     1.0000 0.11429  0.83591  0.98502  Biso   1.000  H
  H127     1.0000 0.79303  0.98720  0.86692  Biso   1.000  H
  H128     1.0000 0.07953  0.84039  0.85602  Biso   1.000  H
