data_image0
_cell_length_a       18.698
_cell_length_b       9.039
_cell_length_c       19.665
_cell_angle_alpha    90
_cell_angle_beta     96.78
_cell_angle_gamma    90

_symmetry_space_group_name_H-M    "P 1"
_symmetry_int_tables_number       1

loop_
  _symmetry_equiv_pos_as_xyz
  'x, y, z'

loop_
  _atom_site_label
  _atom_site_occupancy
  _atom_site_fract_x
  _atom_site_fract_y
  _atom_site_fract_z
  _atom_site_thermal_displace_type
  _atom_site_B_iso_or_equiv
  _atom_site_type_symbol
  C1       1.0000 0.66156  0.63790  0.45049  Biso   1.000  C
  C2       1.0000 0.61298  0.68979  0.49126  Biso   1.000  C
  C3       1.0000 0.63457  0.58170  0.38643  Biso   1.000  C
  H1       1.0000 0.71077  0.63989  0.46478  Biso   1.000  H
  C4       1.0000 0.54098  0.68636  0.47047  Biso   1.000  C
  H2       1.0000 0.62943  0.72851  0.53412  Biso   1.000  H
  N1       1.0000 0.56417  0.57473  0.36518  Biso   1.000  N
  N2       1.0000 0.67769  0.53457  0.33875  Biso   1.000  N
  C5       1.0000 0.51804  0.62706  0.40635  Biso   1.000  C
  H3       1.0000 0.50812  0.72243  0.49832  Biso   1.000  H
  C6       1.0000 0.64251  0.47251  0.27684  Biso   1.000  C
  C7       1.0000 0.75342  0.51167  0.35642  Biso   1.000  C
  N3       1.0000 0.44645  0.62286  0.37849  Biso   1.000  N
  N4       1.0000 0.61656  0.56942  0.22850  Biso   1.000  N
  C8       1.0000 0.63383  0.32150  0.26982  Biso   1.000  C
  H4       1.0000 0.76878  0.55980  0.39918  Biso   1.000  H
  H5       1.0000 0.77912  0.55227  0.32129  Biso   1.000  H
  H6       1.0000 0.76310  0.40757  0.36072  Biso   1.000  H
  C9       1.0000 0.42225  0.51776  0.32744  Biso   1.000  C
  C10      1.0000 0.39430  0.71435  0.40691  Biso   1.000  C
  C11      1.0000 0.57774  0.51776  0.17253  Biso   1.000  C
  C12      1.0000 0.59222  0.26961  0.21206  Biso   1.000  C
  H7       1.0000 0.65532  0.25678  0.30291  Biso   1.000  H
  C13      1.0000 0.43708  0.36708  0.33665  Biso   1.000  C
  N5       1.0000 0.38342  0.56942  0.27146  Biso   1.000  N
  H8       1.0000 0.41850  0.77929  0.44071  Biso   1.000  H
  H9       1.0000 0.36129  0.65273  0.42791  Biso   1.000  H
  H10      1.0000 0.36831  0.77177  0.37112  Biso   1.000  H
  H11      1.0000 0.39369  0.67873  0.45582  Biso   1.000  H
  H12      1.0000 0.34740  0.70395  0.37199  Biso   1.000  H
  H13      1.0000 0.41728  0.82244  0.40978  Biso   1.000  H
  N6       1.0000 0.55354  0.62286  0.12152  Biso   1.000  N
  C14      1.0000 0.56291  0.36708  0.16336  Biso   1.000  C
  H14      1.0000 0.58413  0.16860  0.20632  Biso   1.000  H
  C15      1.0000 0.40782  0.26961  0.28790  Biso   1.000  C
  H15      1.0000 0.46630  0.33367  0.37511  Biso   1.000  H
  C16      1.0000 0.35748  0.47251  0.22317  Biso   1.000  C
  C17      1.0000 0.48195  0.62706  0.09366  Biso   1.000  C
  C18      1.0000 0.60574  0.71435  0.09310  Biso   1.000  C
  H16      1.0000 0.53369  0.33367  0.12490  Biso   1.000  H
  C19      1.0000 0.36616  0.32150  0.23019  Biso   1.000  C
  H17      1.0000 0.41592  0.16860  0.29369  Biso   1.000  H
  N7       1.0000 0.32230  0.53457  0.16126  Biso   1.000  N
  N8       1.0000 0.43582  0.57473  0.13484  Biso   1.000  N
  C20      1.0000 0.45901  0.68636  0.02955  Biso   1.000  C
  H18      1.0000 0.58149  0.77929  0.05930  Biso   1.000  H
  H19      1.0000 0.63870  0.65273  0.07210  Biso   1.000  H
  H20      1.0000 0.63168  0.77177  0.12890  Biso   1.000  H
  H21      1.0000 0.60630  0.67873  0.04419  Biso   1.000  H
  H22      1.0000 0.65260  0.70395  0.12802  Biso   1.000  H
  H23      1.0000 0.58270  0.82244  0.09018  Biso   1.000  H
  H24      1.0000 0.34472  0.25678  0.19711  Biso   1.000  H
  C21      1.0000 0.24662  0.51167  0.14359  Biso   1.000  C
  C22      1.0000 0.36542  0.58170  0.11353  Biso   1.000  C
  C23      1.0000 0.38701  0.68979  0.00876  Biso   1.000  C
  H25      1.0000 0.49192  0.72243  0.00169  Biso   1.000  H
  H26      1.0000 0.23120  0.55980  0.10078  Biso   1.000  H
  H27      1.0000 0.22093  0.55227  0.17872  Biso   1.000  H
  H28      1.0000 0.23689  0.40757  0.13929  Biso   1.000  H
  C24      1.0000 0.33842  0.63790  0.04947  Biso   1.000  C
  H29      1.0000 0.37062  0.72851  0.96595  Biso   1.000  H
  H30      1.0000 0.28921  0.63989  0.03518  Biso   1.000  H
  C25      1.0000 0.60573  0.28565  0.59306  Biso   1.000  C
  N9       1.0000 0.55353  0.37725  0.62148  Biso   1.000  N
  H31      1.0000 0.58148  0.22071  0.55931  Biso   1.000  H
  H32      1.0000 0.63869  0.34727  0.57212  Biso   1.000  H
  H33      1.0000 0.63168  0.22834  0.62891  Biso   1.000  H
  H34      1.0000 0.60629  0.32127  0.54421  Biso   1.000  H
  H35      1.0000 0.65258  0.29616  0.62799  Biso   1.000  H
  H36      1.0000 0.58269  0.17756  0.59019  Biso   1.000  H
  C26      1.0000 0.48194  0.37305  0.59368  Biso   1.000  C
  C27      1.0000 0.57778  0.48235  0.67254  Biso   1.000  C
  C28      1.0000 0.45900  0.31375  0.52956  Biso   1.000  C
  N10      1.0000 0.43587  0.42527  0.63485  Biso   1.000  N
  C29      1.0000 0.56290  0.63292  0.66337  Biso   1.000  C
  N11      1.0000 0.61661  0.43058  0.72851  Biso   1.000  N
  C30      1.0000 0.38700  0.31021  0.50877  Biso   1.000  C
  H37      1.0000 0.49191  0.27757  0.50170  Biso   1.000  H
  C31      1.0000 0.36541  0.41830  0.61355  Biso   1.000  C
  H38      1.0000 0.53368  0.66633  0.62491  Biso   1.000  H
  C32      1.0000 0.59221  0.73039  0.71207  Biso   1.000  C
  C33      1.0000 0.64250  0.52749  0.77680  Biso   1.000  C
  C34      1.0000 0.33841  0.36210  0.54948  Biso   1.000  C
  H39      1.0000 0.37061  0.27149  0.46591  Biso   1.000  H
  N12      1.0000 0.32229  0.46543  0.66127  Biso   1.000  N
  H40      1.0000 0.58411  0.83140  0.70629  Biso   1.000  H
  C35      1.0000 0.63382  0.67850  0.76979  Biso   1.000  C
  N13      1.0000 0.67767  0.46543  0.83872  Biso   1.000  N
  H41      1.0000 0.28920  0.36011  0.53519  Biso   1.000  H
  C36      1.0000 0.35747  0.52749  0.72319  Biso   1.000  C
  C37      1.0000 0.24661  0.48833  0.64361  Biso   1.000  C
  H42      1.0000 0.65531  0.74322  0.80292  Biso   1.000  H
  C38      1.0000 0.75341  0.48833  0.85638  Biso   1.000  C
  C39      1.0000 0.63461  0.41830  0.88644  Biso   1.000  C
  C40      1.0000 0.36615  0.67850  0.73020  Biso   1.000  C
  N14      1.0000 0.38341  0.43058  0.77148  Biso   1.000  N
  H43      1.0000 0.23119  0.44020  0.60079  Biso   1.000  H
  H44      1.0000 0.22091  0.44773  0.67868  Biso   1.000  H
  H45      1.0000 0.23688  0.59243  0.63930  Biso   1.000  H
  H46      1.0000 0.76878  0.44020  0.89919  Biso   1.000  H
  H47      1.0000 0.77911  0.44773  0.82130  Biso   1.000  H
  H48      1.0000 0.76309  0.59243  0.86068  Biso   1.000  H
  N15      1.0000 0.56416  0.42527  0.86519  Biso   1.000  N
  C41      1.0000 0.66155  0.36210  0.95051  Biso   1.000  C
  C42      1.0000 0.40781  0.73039  0.78792  Biso   1.000  C
  H49      1.0000 0.34471  0.74322  0.69712  Biso   1.000  H
  C43      1.0000 0.42224  0.48235  0.82745  Biso   1.000  C
  C44      1.0000 0.51803  0.37305  0.90631  Biso   1.000  C
  C45      1.0000 0.61296  0.31021  0.99122  Biso   1.000  C
  H50      1.0000 0.71082  0.36011  0.96479  Biso   1.000  H
  C46      1.0000 0.43707  0.63292  0.83667  Biso   1.000  C
  H51      1.0000 0.41591  0.83140  0.79370  Biso   1.000  H
  N16      1.0000 0.44649  0.37725  0.87851  Biso   1.000  N
  C47      1.0000 0.54096  0.31375  0.97043  Biso   1.000  C
  H52      1.0000 0.62936  0.27149  0.03408  Biso   1.000  H
  H53      1.0000 0.46628  0.66633  0.87507  Biso   1.000  H
  C48      1.0000 0.39429  0.28565  0.90693  Biso   1.000  C
  H54      1.0000 0.50811  0.27757  0.99829  Biso   1.000  H
  H55      1.0000 0.41849  0.22071  0.94067  Biso   1.000  H
  H56      1.0000 0.36128  0.34727  0.92792  Biso   1.000  H
  H57      1.0000 0.36829  0.22834  0.87108  Biso   1.000  H
  H58      1.0000 0.39368  0.32127  0.95578  Biso   1.000  H
  H59      1.0000 0.34739  0.29616  0.87200  Biso   1.000  H
  H60      1.0000 0.41727  0.17756  0.90979  Biso   1.000  H
  C49      1.0000 0.83841  0.86215  0.54948  Biso   1.000  C
  C50      1.0000 0.86541  0.91835  0.61355  Biso   1.000  C
  H61      1.0000 0.78920  0.86016  0.53519  Biso   1.000  H
  C51      1.0000 0.88700  0.81027  0.50877  Biso   1.000  C
  N17      1.0000 0.82229  0.96537  0.66127  Biso   1.000  N
  N18      1.0000 0.93587  0.92532  0.63485  Biso   1.000  N
  H62      1.0000 0.87061  0.77155  0.46591  Biso   1.000  H
  C52      1.0000 0.95900  0.81370  0.52956  Biso   1.000  C
  C53      1.0000 0.74661  0.98827  0.64361  Biso   1.000  C
  C54      1.0000 0.85747  0.02755  0.72319  Biso   1.000  C
  C55      1.0000 0.98194  0.87299  0.59368  Biso   1.000  C
  H63      1.0000 0.99191  0.77763  0.50170  Biso   1.000  H
  H64      1.0000 0.73119  0.94026  0.60079  Biso   1.000  H
  H65      1.0000 0.72091  0.94767  0.67868  Biso   1.000  H
  H66      1.0000 0.73688  0.09238  0.63930  Biso   1.000  H
  N19      1.0000 0.88341  0.93063  0.77148  Biso   1.000  N
  C56      1.0000 0.86615  0.17845  0.73020  Biso   1.000  C
  N20      1.0000 0.05353  0.87720  0.62148  Biso   1.000  N
  C57      1.0000 0.92224  0.98230  0.82745  Biso   1.000  C
  C58      1.0000 0.90781  0.23045  0.78792  Biso   1.000  C
  H67      1.0000 0.84471  0.24317  0.69712  Biso   1.000  H
  C59      1.0000 0.10573  0.78571  0.59306  Biso   1.000  C
  C60      1.0000 0.07778  0.98230  0.67254  Biso   1.000  C
  N21      1.0000 0.94649  0.87720  0.87851  Biso   1.000  N
  C61      1.0000 0.93707  0.13287  0.83667  Biso   1.000  C
  H68      1.0000 0.91591  0.33145  0.79370  Biso   1.000  H
  H69      1.0000 0.08148  0.72077  0.55931  Biso   1.000  H
  H70      1.0000 0.13869  0.84733  0.57212  Biso   1.000  H
  H71      1.0000 0.13168  0.72829  0.62891  Biso   1.000  H
  H72      1.0000 0.10629  0.82133  0.54421  Biso   1.000  H
  H73      1.0000 0.15258  0.79611  0.62799  Biso   1.000  H
  H74      1.0000 0.08269  0.67762  0.59019  Biso   1.000  H
  N22      1.0000 0.11661  0.93063  0.72851  Biso   1.000  N
  C62      1.0000 0.06290  0.13287  0.66337  Biso   1.000  C
  C63      1.0000 0.89429  0.78571  0.90693  Biso   1.000  C
  C64      1.0000 0.01803  0.87299  0.90631  Biso   1.000  C
  H75      1.0000 0.96628  0.16628  0.87507  Biso   1.000  H
  C65      1.0000 0.14250  0.02755  0.77680  Biso   1.000  C
  H76      1.0000 0.03368  0.16628  0.62491  Biso   1.000  H
  C66      1.0000 0.09221  0.23045  0.71207  Biso   1.000  C
  H77      1.0000 0.91849  0.72077  0.94067  Biso   1.000  H
  H78      1.0000 0.86128  0.84733  0.92792  Biso   1.000  H
  H79      1.0000 0.86829  0.72829  0.87108  Biso   1.000  H
  H80      1.0000 0.89368  0.82133  0.95578  Biso   1.000  H
  H81      1.0000 0.84739  0.79611  0.87200  Biso   1.000  H
  H82      1.0000 0.91727  0.67762  0.90979  Biso   1.000  H
  C67      1.0000 0.04096  0.81370  0.97043  Biso   1.000  C
  N23      1.0000 0.06416  0.92532  0.86519  Biso   1.000  N
  N24      1.0000 0.17767  0.96537  0.83872  Biso   1.000  N
  C68      1.0000 0.13382  0.17845  0.76979  Biso   1.000  C
  H83      1.0000 0.08411  0.33145  0.70629  Biso   1.000  H
  C69      1.0000 0.11296  0.81027  0.99122  Biso   1.000  C
  H84      1.0000 0.00811  0.77763  0.99829  Biso   1.000  H
  C70      1.0000 0.13461  0.91835  0.88644  Biso   1.000  C
  C71      1.0000 0.25341  0.98827  0.85638  Biso   1.000  C
  H85      1.0000 0.15531  0.24317  0.80292  Biso   1.000  H
  C72      1.0000 0.16155  0.86215  0.95051  Biso   1.000  C
  H86      1.0000 0.12936  0.77155  0.03408  Biso   1.000  H
  H87      1.0000 0.26878  0.94026  0.89919  Biso   1.000  H
  H88      1.0000 0.27911  0.94767  0.82130  Biso   1.000  H
  H89      1.0000 0.26309  0.09238  0.86068  Biso   1.000  H
  H90      1.0000 0.21082  0.86016  0.96479  Biso   1.000  H
  C73      1.0000 0.89430  0.21429  0.40691  Biso   1.000  C
  N25      1.0000 0.94645  0.12280  0.37849  Biso   1.000  N
  H91      1.0000 0.91850  0.27935  0.44071  Biso   1.000  H
  H92      1.0000 0.86129  0.15267  0.42791  Biso   1.000  H
  H93      1.0000 0.86831  0.27171  0.37112  Biso   1.000  H
  H94      1.0000 0.89369  0.17867  0.45582  Biso   1.000  H
  H95      1.0000 0.84740  0.20389  0.37199  Biso   1.000  H
  H96      1.0000 0.91728  0.32238  0.40978  Biso   1.000  H
  C74      1.0000 0.92225  0.01770  0.32744  Biso   1.000  C
  C75      1.0000 0.01804  0.12701  0.40635  Biso   1.000  C
  N26      1.0000 0.88342  0.06937  0.27146  Biso   1.000  N
  C76      1.0000 0.93708  0.86713  0.33665  Biso   1.000  C
  C77      1.0000 0.04098  0.18630  0.47047  Biso   1.000  C
  N27      1.0000 0.06417  0.07468  0.36518  Biso   1.000  N
  C78      1.0000 0.85748  0.97256  0.22317  Biso   1.000  C
  C79      1.0000 0.90782  0.76966  0.28790  Biso   1.000  C
  H97      1.0000 0.96630  0.83372  0.37511  Biso   1.000  H
  C80      1.0000 0.11298  0.18984  0.49126  Biso   1.000  C
  H98      1.0000 0.00812  0.22237  0.49832  Biso   1.000  H
  C81      1.0000 0.13457  0.08176  0.38643  Biso   1.000  C
  N28      1.0000 0.82230  0.03463  0.16126  Biso   1.000  N
  C82      1.0000 0.86616  0.82155  0.23019  Biso   1.000  C
  H99      1.0000 0.91592  0.66866  0.29369  Biso   1.000  H
  C83      1.0000 0.16156  0.13796  0.45049  Biso   1.000  C
  H100     1.0000 0.12943  0.22845  0.53412  Biso   1.000  H
  N29      1.0000 0.17769  0.03463  0.33875  Biso   1.000  N
  C84      1.0000 0.74662  0.01173  0.14359  Biso   1.000  C
  C85      1.0000 0.86542  0.08176  0.11353  Biso   1.000  C
  H101     1.0000 0.84472  0.75683  0.19711  Biso   1.000  H
  H102     1.0000 0.21077  0.13995  0.46478  Biso   1.000  H
  C86      1.0000 0.14251  0.97256  0.27684  Biso   1.000  C
  C87      1.0000 0.25342  0.01173  0.35642  Biso   1.000  C
  H103     1.0000 0.73120  0.05985  0.10078  Biso   1.000  H
  H104     1.0000 0.72093  0.05233  0.17872  Biso   1.000  H
  H105     1.0000 0.73689  0.90762  0.13929  Biso   1.000  H
  C88      1.0000 0.83842  0.13796  0.04947  Biso   1.000  C
  N30      1.0000 0.93582  0.07468  0.13484  Biso   1.000  N
  N31      1.0000 0.11656  0.06937  0.22850  Biso   1.000  N
  C89      1.0000 0.13383  0.82155  0.26982  Biso   1.000  C
  H106     1.0000 0.26310  0.90762  0.36072  Biso   1.000  H
  H107     1.0000 0.26878  0.05985  0.39918  Biso   1.000  H
  H108     1.0000 0.27912  0.05233  0.32129  Biso   1.000  H
  H109     1.0000 0.78921  0.13995  0.03518  Biso   1.000  H
  C90      1.0000 0.88701  0.18984  0.00876  Biso   1.000  C
  C91      1.0000 0.98195  0.12701  0.09366  Biso   1.000  C
  C92      1.0000 0.07774  0.01770  0.17253  Biso   1.000  C
  C93      1.0000 0.09222  0.76966  0.21206  Biso   1.000  C
  H110     1.0000 0.15532  0.75683  0.30291  Biso   1.000  H
  C94      1.0000 0.95901  0.18630  0.02955  Biso   1.000  C
  H111     1.0000 0.87062  0.22845  0.96595  Biso   1.000  H
  N32      1.0000 0.05354  0.12280  0.12152  Biso   1.000  N
  C95      1.0000 0.06291  0.86713  0.16336  Biso   1.000  C
  H112     1.0000 0.08413  0.66866  0.20632  Biso   1.000  H
  H113     1.0000 0.99192  0.22237  0.00169  Biso   1.000  H
  C96      1.0000 0.10574  0.21429  0.09310  Biso   1.000  C
  H114     1.0000 0.03369  0.83372  0.12490  Biso   1.000  H
  H115     1.0000 0.08149  0.27935  0.05930  Biso   1.000  H
  H116     1.0000 0.13870  0.15267  0.07210  Biso   1.000  H
  H117     1.0000 0.13168  0.27171  0.12890  Biso   1.000  H
  H118     1.0000 0.10630  0.17867  0.04419  Biso   1.000  H
  H119     1.0000 0.15260  0.20389  0.12802  Biso   1.000  H
  H120     1.0000 0.08270  0.32238  0.09018  Biso   1.000  H
