data_image0
_cell_length_a       9.944
_cell_length_b       17.859
_cell_length_c       16.352
_cell_angle_alpha    90
_cell_angle_beta     91.52
_cell_angle_gamma    90

_symmetry_space_group_name_H-M    "P 1"
_symmetry_int_tables_number       1

loop_
  _symmetry_equiv_pos_as_xyz
  'x, y, z'

loop_
  _atom_site_label
  _atom_site_occupancy
  _atom_site_fract_x
  _atom_site_fract_y
  _atom_site_fract_z
  _atom_site_thermal_displace_type
  _atom_site_B_iso_or_equiv
  _atom_site_type_symbol
  C1       1.0000 0.51994  0.56633  0.38345  Biso   1.000  C
  C2       1.0000 0.44043  0.58100  0.31267  Biso   1.000  C
  C3       1.0000 0.65171  0.56929  0.36326  Biso   1.000  C
  H1       1.0000 0.48781  0.55641  0.43521  Biso   1.000  H
  C4       1.0000 0.52437  0.59281  0.24978  Biso   1.000  C
  H2       1.0000 0.34697  0.58228  0.30949  Biso   1.000  H
  N1       1.0000 0.65204  0.58464  0.28104  Biso   1.000  N
  C5       1.0000 0.78068  0.55759  0.41276  Biso   1.000  C
  C6       1.0000 0.49595  0.62042  0.16316  Biso   1.000  C
  H3       1.0000 0.72001  0.58878  0.25309  Biso   1.000  H
  C7       1.0000 0.88574  0.61302  0.38688  Biso   1.000  C
  C8       1.0000 0.75357  0.56996  0.50385  Biso   1.000  C
  C9       1.0000 0.83347  0.47763  0.40119  Biso   1.000  C
  C10      1.0000 0.61889  0.61291  0.11122  Biso   1.000  C
  C11      1.0000 0.37890  0.57562  0.12394  Biso   1.000  C
  C12      1.0000 0.44807  0.70194  0.16744  Biso   1.000  C
  N2       1.0000 0.85309  0.68598  0.36914  Biso   1.000  N
  C13      1.0000 0.02233  0.60810  0.38272  Biso   1.000  C
  H4       1.0000 0.68837  0.53430  0.52147  Biso   1.000  H
  H5       1.0000 0.83579  0.56369  0.53517  Biso   1.000  H
  H6       1.0000 0.71972  0.61980  0.51162  Biso   1.000  H
  H7       1.0000 0.85182  0.46957  0.34461  Biso   1.000  H
  H8       1.0000 0.91452  0.47097  0.43349  Biso   1.000  H
  H9       1.0000 0.76684  0.44241  0.41826  Biso   1.000  H
  N3       1.0000 0.71587  0.66711  0.10755  Biso   1.000  N
  C14      1.0000 0.66357  0.55434  0.06576  Biso   1.000  C
  H10      1.0000 0.40586  0.52439  0.11727  Biso   1.000  H
  H11      1.0000 0.30267  0.57786  0.15857  Biso   1.000  H
  H12      1.0000 0.35529  0.59656  0.07151  Biso   1.000  H
  O1       1.0000 0.54673  0.74534  0.21142  Biso   1.000  O
  H13      1.0000 0.36289  0.70441  0.19491  Biso   1.000  H
  H14      1.0000 0.43502  0.72188  0.11263  Biso   1.000  H
  C15      1.0000 0.96598  0.72725  0.35433  Biso   1.000  C
  H15      1.0000 0.77267  0.70256  0.36290  Biso   1.000  H
  H16      1.0000 0.07369  0.56521  0.39147  Biso   1.000  H
  C16      1.0000 0.07203  0.67949  0.36259  Biso   1.000  C
  C17      1.0000 0.82043  0.64460  0.06069  Biso   1.000  C
  H17      1.0000 0.71266  0.70928  0.13061  Biso   1.000  H
  C18      1.0000 0.78850  0.57394  0.03432  Biso   1.000  C
  H18      1.0000 0.61895  0.50921  0.05720  Biso   1.000  H
  C19      1.0000 0.51083  0.81572  0.23675  Biso   1.000  C
  C20      1.0000 0.96058  0.80693  0.32289  Biso   1.000  C
  H19      1.0000 0.16195  0.69181  0.35611  Biso   1.000  H
  C21      1.0000 0.93624  0.69573  0.04136  Biso   1.000  C
  H20      1.0000 0.84086  0.54398  0.00110  Biso   1.000  H
  C22      1.0000 0.60561  0.85122  0.28863  Biso   1.000  C
  C23      1.0000 0.39303  0.85173  0.21503  Biso   1.000  C
  C24      1.0000 0.83193  0.84781  0.34516  Biso   1.000  C
  C25      1.0000 0.96762  0.80721  0.23063  Biso   1.000  C
  C26      1.0000 0.07888  0.85195  0.36057  Biso   1.000  C
  C27      1.0000 0.94951  0.75766  0.10357  Biso   1.000  C
  C28      1.0000 0.91219  0.73061  0.95583  Biso   1.000  C
  C29      1.0000 0.06724  0.65043  0.04056  Biso   1.000  C
  O2       1.0000 0.71875  0.81080  0.30717  Biso   1.000  O
  C30      1.0000 0.57844  0.92178  0.31818  Biso   1.000  C
  H21      1.0000 0.33048  0.82838  0.18041  Biso   1.000  H
  C31      1.0000 0.36758  0.92284  0.24483  Biso   1.000  C
  H22      1.0000 0.83575  0.89938  0.32662  Biso   1.000  H
  H23      1.0000 0.82283  0.84798  0.40407  Biso   1.000  H
  N4       1.0000 0.95703  0.74265  0.18610  Biso   1.000  N
  C32      1.0000 0.96917  0.86433  0.17625  Biso   1.000  C
  H24      1.0000 0.07626  0.90218  0.33977  Biso   1.000  H
  H25      1.0000 0.07198  0.85290  0.41900  Biso   1.000  H
  H26      1.0000 0.16213  0.82877  0.34638  Biso   1.000  H
  C33      1.0000 0.95677  0.83319  0.09703  Biso   1.000  C
  H27      1.0000 0.98596  0.76286  0.94329  Biso   1.000  H
  H28      1.0000 0.90501  0.69158  0.91570  Biso   1.000  H
  H29      1.0000 0.83032  0.75917  0.95540  Biso   1.000  H
  H30      1.0000 0.08536  0.62988  0.09403  Biso   1.000  H
  H31      1.0000 0.05829  0.61050  0.00153  Biso   1.000  H
  H32      1.0000 0.14010  0.68257  0.02582  Biso   1.000  H
  H33      1.0000 0.64001  0.94546  0.35329  Biso   1.000  H
  C34      1.0000 0.45939  0.95728  0.29560  Biso   1.000  C
  H34      1.0000 0.28770  0.94720  0.23021  Biso   1.000  H
  H35      1.0000 0.96107  0.69651  0.20733  Biso   1.000  H
  H36      1.0000 0.97706  0.91500  0.18879  Biso   1.000  H
  H37      1.0000 0.95384  0.86007  0.04833  Biso   1.000  H
  H38      1.0000 0.44185  0.00510  0.31518  Biso   1.000  H
  C35      1.0000 0.48023  0.43362  0.61653  Biso   1.000  C
  C36      1.0000 0.34837  0.43071  0.63672  Biso   1.000  C
  H39      1.0000 0.51237  0.44359  0.56478  Biso   1.000  H
  C37      1.0000 0.55975  0.41900  0.68731  Biso   1.000  C
  C38      1.0000 0.21950  0.44241  0.58717  Biso   1.000  C
  N5       1.0000 0.34813  0.41531  0.71894  Biso   1.000  N
  C39      1.0000 0.47580  0.40719  0.75020  Biso   1.000  C
  H40      1.0000 0.65321  0.41772  0.69049  Biso   1.000  H
  C40      1.0000 0.24660  0.42998  0.49614  Biso   1.000  C
  C41      1.0000 0.11443  0.38698  0.61311  Biso   1.000  C
  C42      1.0000 0.16670  0.52231  0.59873  Biso   1.000  C
  H41      1.0000 0.28007  0.41117  0.74690  Biso   1.000  H
  C43      1.0000 0.50422  0.37958  0.83683  Biso   1.000  C
  H42      1.0000 0.31180  0.46570  0.47852  Biso   1.000  H
  H43      1.0000 0.16438  0.43631  0.46482  Biso   1.000  H
  H44      1.0000 0.28045  0.38020  0.48837  Biso   1.000  H
  N6       1.0000 0.14709  0.31396  0.63085  Biso   1.000  N
  C44      1.0000 0.97785  0.39190  0.61727  Biso   1.000  C
  H45      1.0000 0.14826  0.53038  0.65538  Biso   1.000  H
  H46      1.0000 0.08555  0.52898  0.56649  Biso   1.000  H
  H47      1.0000 0.23324  0.55759  0.58166  Biso   1.000  H
  C45      1.0000 0.38129  0.38709  0.88877  Biso   1.000  C
  C46      1.0000 0.62128  0.42438  0.87604  Biso   1.000  C
  C47      1.0000 0.55210  0.29800  0.83255  Biso   1.000  C
  C48      1.0000 0.03419  0.27269  0.64559  Biso   1.000  C
  H48      1.0000 0.22751  0.29739  0.63709  Biso   1.000  H
  H49      1.0000 0.92648  0.43479  0.60846  Biso   1.000  H
  C49      1.0000 0.92814  0.32051  0.63739  Biso   1.000  C
  N7       1.0000 0.28430  0.33289  0.89244  Biso   1.000  N
  C50      1.0000 0.33651  0.44560  0.93422  Biso   1.000  C
  H50      1.0000 0.59432  0.47561  0.88271  Biso   1.000  H
  H51      1.0000 0.69750  0.42208  0.84136  Biso   1.000  H
  H52      1.0000 0.64488  0.40338  0.92847  Biso   1.000  H
  O3       1.0000 0.45344  0.25461  0.78856  Biso   1.000  O
  H53      1.0000 0.63719  0.29559  0.80508  Biso   1.000  H
  H54      1.0000 0.56515  0.27807  0.88736  Biso   1.000  H
  C51      1.0000 0.03959  0.19301  0.67710  Biso   1.000  C
  H55      1.0000 0.83822  0.30819  0.64388  Biso   1.000  H
  C52      1.0000 0.17975  0.35540  0.93930  Biso   1.000  C
  H56      1.0000 0.28752  0.29067  0.86937  Biso   1.000  H
  C53      1.0000 0.21167  0.42606  0.96567  Biso   1.000  C
  H57      1.0000 0.38123  0.49079  0.94279  Biso   1.000  H
  C54      1.0000 0.48935  0.18422  0.76323  Biso   1.000  C
  C55      1.0000 0.16825  0.15219  0.65483  Biso   1.000  C
  C56      1.0000 0.03255  0.19279  0.76935  Biso   1.000  C
  C57      1.0000 0.92129  0.14805  0.63941  Biso   1.000  C
  C58      1.0000 0.06384  0.30422  0.95863  Biso   1.000  C
  H58      1.0000 0.15932  0.45602  0.99888  Biso   1.000  H
  C59      1.0000 0.39456  0.14878  0.71129  Biso   1.000  C
  C60      1.0000 0.60715  0.14827  0.78495  Biso   1.000  C
  O4       1.0000 0.28143  0.18920  0.69282  Biso   1.000  O
  H59      1.0000 0.16443  0.10062  0.67337  Biso   1.000  H
  H60      1.0000 0.17724  0.15202  0.59592  Biso   1.000  H
  N8       1.0000 0.04314  0.25735  0.81389  Biso   1.000  N
  C61      1.0000 0.03100  0.13562  0.82374  Biso   1.000  C
  H61      1.0000 0.92391  0.09782  0.66021  Biso   1.000  H
  H62      1.0000 0.92820  0.14710  0.58099  Biso   1.000  H
  H63      1.0000 0.83804  0.17117  0.65361  Biso   1.000  H
  C62      1.0000 0.05066  0.24234  0.89635  Biso   1.000  C
  C63      1.0000 0.93294  0.34957  0.95936  Biso   1.000  C
  C64      1.0000 0.08798  0.26933  0.04415  Biso   1.000  C
  C65      1.0000 0.42173  0.07822  0.68175  Biso   1.000  C
  H64      1.0000 0.66970  0.17162  0.81958  Biso   1.000  H
  C66      1.0000 0.63260  0.07710  0.75516  Biso   1.000  C
  H65      1.0000 0.03910  0.30349  0.79266  Biso   1.000  H
  H66      1.0000 0.02312  0.08500  0.81120  Biso   1.000  H
  C67      1.0000 0.04341  0.16681  0.90296  Biso   1.000  C
  H67      1.0000 0.91482  0.37007  0.90596  Biso   1.000  H
  H68      1.0000 0.94188  0.38950  0.99846  Biso   1.000  H
  H69      1.0000 0.86007  0.31737  0.97417  Biso   1.000  H
  H70      1.0000 0.01421  0.23708  0.05670  Biso   1.000  H
  H71      1.0000 0.09516  0.30842  0.08429  Biso   1.000  H
  H72      1.0000 0.16986  0.24077  0.04458  Biso   1.000  H
  H73      1.0000 0.36007  0.05448  0.64669  Biso   1.000  H
  C68      1.0000 0.54078  0.04267  0.70438  Biso   1.000  C
  H74      1.0000 0.71238  0.05280  0.76978  Biso   1.000  H
  H75      1.0000 0.04634  0.13987  0.95166  Biso   1.000  H
  H76      1.0000 0.55833  0.99490  0.68481  Biso   1.000  H
  C69      1.0000 0.54332  0.33322  0.40297  Biso   1.000  C
  C70      1.0000 0.53092  0.36435  0.32374  Biso   1.000  C
  C71      1.0000 0.55058  0.25763  0.39642  Biso   1.000  C
  H77      1.0000 0.54625  0.36010  0.45166  Biso   1.000  H
  C72      1.0000 0.53247  0.30718  0.26936  Biso   1.000  C
  H78      1.0000 0.52303  0.41497  0.31120  Biso   1.000  H
  N9       1.0000 0.54306  0.24268  0.31389  Biso   1.000  N
  C73      1.0000 0.56385  0.19576  0.45864  Biso   1.000  C
  C74      1.0000 0.53950  0.30696  0.17710  Biso   1.000  C
  H79      1.0000 0.53901  0.19648  0.29267  Biso   1.000  H
  C75      1.0000 0.67966  0.14463  0.43931  Biso   1.000  C
  C76      1.0000 0.58809  0.23064  0.54410  Biso   1.000  C
  C77      1.0000 0.43285  0.15046  0.45937  Biso   1.000  C
  C78      1.0000 0.53411  0.22728  0.14560  Biso   1.000  C
  C79      1.0000 0.66816  0.34784  0.15484  Biso   1.000  C
  C80      1.0000 0.42121  0.35192  0.13942  Biso   1.000  C
  N10      1.0000 0.78421  0.16709  0.39244  Biso   1.000  N
  C81      1.0000 0.71158  0.07391  0.46567  Biso   1.000  C
  H80      1.0000 0.51433  0.26289  0.55670  Biso   1.000  H
  H81      1.0000 0.59528  0.19161  0.58429  Biso   1.000  H
  H82      1.0000 0.66997  0.25920  0.54459  Biso   1.000  H
  H83      1.0000 0.41473  0.12991  0.40596  Biso   1.000  H
  H84      1.0000 0.44179  0.11048  0.49846  Biso   1.000  H
  H85      1.0000 0.35998  0.18260  0.47418  Biso   1.000  H
  C82      1.0000 0.42806  0.17952  0.13740  Biso   1.000  C
  N11      1.0000 0.64700  0.18601  0.13086  Biso   1.000  N
  O5       1.0000 0.78134  0.31077  0.19283  Biso   1.000  O
  H86      1.0000 0.66434  0.39941  0.17337  Biso   1.000  H
  H87      1.0000 0.67725  0.34800  0.09592  Biso   1.000  H
  H88      1.0000 0.42382  0.40221  0.16022  Biso   1.000  H
  H89      1.0000 0.42811  0.35288  0.08100  Biso   1.000  H
  H90      1.0000 0.33796  0.32880  0.15361  Biso   1.000  H
  C83      1.0000 0.88120  0.11294  0.38877  Biso   1.000  C
  H91      1.0000 0.78743  0.20931  0.36938  Biso   1.000  H
  H92      1.0000 0.65923  0.04401  0.49889  Biso   1.000  H
  C84      1.0000 0.83652  0.05437  0.43423  Biso   1.000  C
  C85      1.0000 0.47776  0.10807  0.11727  Biso   1.000  C
  H93      1.0000 0.33813  0.19178  0.14389  Biso   1.000  H
  C86      1.0000 0.61435  0.11305  0.11311  Biso   1.000  C
  H94      1.0000 0.72742  0.20259  0.13710  Biso   1.000  H
  C87      1.0000 0.89448  0.35125  0.21136  Biso   1.000  C
  C88      1.0000 0.00413  0.12044  0.33684  Biso   1.000  C
  H95      1.0000 0.88114  0.00918  0.44279  Biso   1.000  H
  H96      1.0000 0.42640  0.06518  0.10853  Biso   1.000  H
  C89      1.0000 0.71941  0.05756  0.08724  Biso   1.000  C
  C90      1.0000 0.98926  0.31575  0.26324  Biso   1.000  C
  C91      1.0000 0.92165  0.42175  0.18182  Biso   1.000  C
  C92      1.0000 0.97572  0.09278  0.25021  Biso   1.000  C
  C93      1.0000 0.05202  0.20197  0.33255  Biso   1.000  C
  C94      1.0000 0.12119  0.07559  0.37605  Biso   1.000  C
  C95      1.0000 0.84838  0.06932  0.13673  Biso   1.000  C
  C96      1.0000 0.66662  0.97760  0.09874  Biso   1.000  C
  C97      1.0000 0.74671  0.06999  0.99615  Biso   1.000  C
  O6       1.0000 0.95336  0.24537  0.28857  Biso   1.000  O
  C98      1.0000 0.10706  0.35176  0.28496  Biso   1.000  C
  H97      1.0000 0.86008  0.44549  0.14670  Biso   1.000  H
  C99      1.0000 0.04069  0.45730  0.20439  Biso   1.000  C
  N12      1.0000 0.84805  0.08466  0.21895  Biso   1.000  N
  C100     1.0000 0.05966  0.08102  0.18732  Biso   1.000  C
  H98      1.0000 0.13710  0.20438  0.30509  Biso   1.000  H
  H99      1.0000 0.06507  0.22190  0.38737  Biso   1.000  H
  H100     1.0000 0.09423  0.02441  0.38272  Biso   1.000  H
  H101     1.0000 0.19741  0.07789  0.34136  Biso   1.000  H
  H102     1.0000 0.14480  0.09659  0.42848  Biso   1.000  H
  C101     1.0000 0.98014  0.06635  0.11654  Biso   1.000  C
  H103     1.0000 0.64827  0.96960  0.15539  Biso   1.000  H
  H104     1.0000 0.58556  0.97100  0.06650  Biso   1.000  H
  H105     1.0000 0.73325  0.94238  0.08167  Biso   1.000  H
  H106     1.0000 0.81191  0.03432  0.97847  Biso   1.000  H
  H107     1.0000 0.66450  0.06372  0.96482  Biso   1.000  H
  H108     1.0000 0.78057  0.11977  0.98838  Biso   1.000  H
  H109     1.0000 0.16961  0.32841  0.31958  Biso   1.000  H
  C102     1.0000 0.13251  0.42287  0.25517  Biso   1.000  C
  H110     1.0000 0.05824  0.50507  0.18481  Biso   1.000  H
  H111     1.0000 0.78008  0.08881  0.24691  Biso   1.000  H
  H112     1.0000 0.15312  0.08231  0.19050  Biso   1.000  H
  H113     1.0000 0.01228  0.05639  0.06479  Biso   1.000  H
  H114     1.0000 0.21229  0.44717  0.26979  Biso   1.000  H
  C103     1.0000 0.45675  0.66678  0.59702  Biso   1.000  C
  C104     1.0000 0.44960  0.74231  0.60356  Biso   1.000  C
  C105     1.0000 0.46916  0.63559  0.67624  Biso   1.000  C
  H115     1.0000 0.45392  0.63990  0.54826  Biso   1.000  H
  N13      1.0000 0.45702  0.75732  0.68609  Biso   1.000  N
  C106     1.0000 0.43632  0.80419  0.54135  Biso   1.000  C
  C107     1.0000 0.46761  0.69276  0.73063  Biso   1.000  C
  H116     1.0000 0.47715  0.58497  0.68878  Biso   1.000  H
  H117     1.0000 0.46106  0.80346  0.70726  Biso   1.000  H
  C108     1.0000 0.32051  0.85537  0.56068  Biso   1.000  C
  C109     1.0000 0.41208  0.76936  0.45582  Biso   1.000  C
  C110     1.0000 0.56732  0.84954  0.54055  Biso   1.000  C
  C111     1.0000 0.46067  0.69304  0.82288  Biso   1.000  C
  N14      1.0000 0.21596  0.83286  0.60754  Biso   1.000  N
  C112     1.0000 0.28859  0.92603  0.53431  Biso   1.000  C
  H118     1.0000 0.48585  0.73711  0.44328  Biso   1.000  H
  H119     1.0000 0.40490  0.80839  0.41569  Biso   1.000  H
  H120     1.0000 0.33020  0.74080  0.45540  Biso   1.000  H
  H121     1.0000 0.58534  0.87009  0.59396  Biso   1.000  H
  H122     1.0000 0.55838  0.88947  0.50146  Biso   1.000  H
  H123     1.0000 0.64019  0.81740  0.52581  Biso   1.000  H
  C113     1.0000 0.46607  0.77272  0.85432  Biso   1.000  C
  C114     1.0000 0.33202  0.65216  0.84515  Biso   1.000  C
  C115     1.0000 0.57897  0.64802  0.86056  Biso   1.000  C
  C116     1.0000 0.11888  0.88706  0.61121  Biso   1.000  C
  H124     1.0000 0.21264  0.79069  0.63060  Biso   1.000  H
  H125     1.0000 0.34084  0.95599  0.50109  Biso   1.000  H
  C117     1.0000 0.16366  0.94563  0.56576  Biso   1.000  C
  N15      1.0000 0.35318  0.81399  0.86913  Biso   1.000  N
  C118     1.0000 0.57212  0.82048  0.86258  Biso   1.000  C
  O7       1.0000 0.21874  0.68918  0.80716  Biso   1.000  O
  H126     1.0000 0.33584  0.60059  0.82661  Biso   1.000  H
  H127     1.0000 0.32292  0.65200  0.90406  Biso   1.000  H
  H128     1.0000 0.57635  0.59779  0.83976  Biso   1.000  H
  H129     1.0000 0.57206  0.64707  0.91899  Biso   1.000  H
  H130     1.0000 0.66222  0.67120  0.84637  Biso   1.000  H
  C119     1.0000 0.99604  0.87956  0.66315  Biso   1.000  C
  H131     1.0000 0.11893  0.99076  0.55719  Biso   1.000  H
  C120     1.0000 0.38583  0.88695  0.88687  Biso   1.000  C
  H132     1.0000 0.27276  0.79736  0.86289  Biso   1.000  H
  C121     1.0000 0.52241  0.89188  0.88271  Biso   1.000  C
  H133     1.0000 0.66204  0.80816  0.85610  Biso   1.000  H
  C122     1.0000 0.10570  0.64875  0.78862  Biso   1.000  C
  C123     1.0000 0.02436  0.90716  0.74977  Biso   1.000  C
  C124     1.0000 0.87899  0.92435  0.62394  Biso   1.000  C
  C125     1.0000 0.94816  0.79803  0.66743  Biso   1.000  C
  C126     1.0000 0.28066  0.94238  0.91275  Biso   1.000  C
  H134     1.0000 0.57378  0.93477  0.89146  Biso   1.000  H
  C127     1.0000 0.01092  0.68425  0.73674  Biso   1.000  C
  C128     1.0000 0.07853  0.57820  0.81817  Biso   1.000  C
  N16      1.0000 0.15203  0.91534  0.78104  Biso   1.000  N
  C129     1.0000 0.94051  0.91898  0.81260  Biso   1.000  C
  H135     1.0000 0.90585  0.97559  0.61727  Biso   1.000  H
  H136     1.0000 0.80266  0.92206  0.65856  Biso   1.000  H
  H137     1.0000 0.85538  0.90335  0.57151  Biso   1.000  H
  O8       1.0000 0.04682  0.75458  0.71136  Biso   1.000  O
  H138     1.0000 0.86297  0.79557  0.69490  Biso   1.000  H
  H139     1.0000 0.93511  0.77810  0.61256  Biso   1.000  H
  C130     1.0000 0.15179  0.93068  0.86326  Biso   1.000  C
  C131     1.0000 0.25346  0.92995  0.00384  Biso   1.000  C
  C132     1.0000 0.33356  0.02234  0.90119  Biso   1.000  C
  C133     1.0000 0.89312  0.64824  0.71503  Biso   1.000  C
  H140     1.0000 0.14010  0.55451  0.85328  Biso   1.000  H
  C134     1.0000 0.95938  0.54270  0.79560  Biso   1.000  C
  H141     1.0000 0.22010  0.91119  0.75308  Biso   1.000  H
  C135     1.0000 0.02003  0.93365  0.88344  Biso   1.000  C
  H142     1.0000 0.84705  0.91769  0.80948  Biso   1.000  H
  H143     1.0000 0.18826  0.96568  0.02146  Biso   1.000  H
  H144     1.0000 0.33568  0.93628  0.03516  Biso   1.000  H
  H145     1.0000 0.21961  0.88017  0.01161  Biso   1.000  H
  H146     1.0000 0.35191  0.03040  0.84460  Biso   1.000  H
  H147     1.0000 0.41461  0.02900  0.93349  Biso   1.000  H
  H148     1.0000 0.26692  0.05762  0.91825  Biso   1.000  H
  H149     1.0000 0.83046  0.67159  0.68040  Biso   1.000  H
  C136     1.0000 0.86767  0.57713  0.74482  Biso   1.000  C
  H150     1.0000 0.94193  0.49488  0.81517  Biso   1.000  H
  H151     1.0000 0.98780  0.94356  0.93520  Biso   1.000  H
  H152     1.0000 0.78778  0.55277  0.73020  Biso   1.000  H
