data_ACDMFM
_audit_creation_date              2015-09-28
_audit_creation_method            'Materials Studio'
_symmetry_space_group_name_H-M    'P212121'
_symmetry_Int_Tables_number       19
_symmetry_cell_setting            orthorhombic
loop_
_symmetry_equiv_pos_as_xyz
  x,y,z
  -x+1/2,-y,z+1/2
  -x,y+1/2,-z+1/2
  x+1/2,-y+1/2,-z
_cell_length_a                    13.7500
_cell_length_b                    15.3180
_cell_length_c                    24.5440
_cell_angle_alpha                 90.0000
_cell_angle_beta                  90.0000
_cell_angle_gamma                 90.0000
loop_
_atom_site_label
_atom_site_type_symbol
_atom_site_fract_x
_atom_site_fract_y
_atom_site_fract_z
_atom_site_U_iso_or_equiv
_atom_site_adp_type
_atom_site_occupancy
C1     C     0.15650  -0.05010   0.69150   0.00000  Uiso   1.00
C2     C     0.12780  -0.12430   0.65310   0.00000  Uiso   1.00
C3     C     0.18550  -0.11650   0.60070   0.00000  Uiso   1.00
C4     C     0.17380  -0.02640   0.57640   0.00000  Uiso   1.00
C5     C     0.20180   0.04400   0.61790   0.00000  Uiso   1.00
C6     C     0.18440   0.13620   0.59710   0.00000  Uiso   1.00
O1     O     0.14890  -0.20530   0.68020   0.00000  Uiso   1.00
O2     O     0.14980  -0.18130   0.56320   0.00000  Uiso   1.00
O3     O     0.24090  -0.02280   0.53140   0.00000  Uiso   1.00
O4     O     0.14280   0.03190   0.66590   0.00000  Uiso   1.00
O5     O     0.08710   0.14870   0.57850   0.00000  Uiso   1.00
C7     C     0.20720   0.00410   0.47950   0.00000  Uiso   1.00
C8     C     0.22990  -0.06840   0.43890   0.00000  Uiso   1.00
C9     C     0.33810  -0.08340   0.43690   0.00000  Uiso   1.00
C10    C     0.38690   0.00190   0.42510   0.00000  Uiso   1.00
C11    C     0.35860   0.07500   0.46340   0.00000  Uiso   1.00
C12    C     0.39830   0.16320   0.44660   0.00000  Uiso   1.00
O6     O     0.18330  -0.14830   0.45520   0.00000  Uiso   1.00
O7     O     0.36430  -0.14340   0.39440   0.00000  Uiso   1.00
O8     O     0.49110  -0.01530   0.43340   0.00000  Uiso   1.00
O9     O     0.25390   0.08200   0.46350   0.00000  Uiso   1.00
O10    O     0.38310   0.17850   0.38970   0.00000  Uiso   1.00
C13    C     0.55870   0.00720   0.39210   0.00000  Uiso   1.00
C14    C     0.62160  -0.07270   0.38260   0.00000  Uiso   1.00
C15    C     0.67200  -0.09710   0.43520   0.00000  Uiso   1.00
C16    C     0.72690  -0.01950   0.45870   0.00000  Uiso   1.00
C17    C     0.66550   0.06440   0.46000   0.00000  Uiso   1.00
C18    C     0.72560   0.14600   0.47070   0.00000  Uiso   1.00
O11    O     0.56340  -0.14420   0.36270   0.00000  Uiso   1.00
O12    O     0.74110  -0.16540   0.42690   0.00000  Uiso   1.00
O13    O     0.75190  -0.04380   0.51330   0.00000  Uiso   1.00
O14    O     0.61820   0.07760   0.40820   0.00000  Uiso   1.00
O15    O     0.81220   0.14980   0.43890   0.00000  Uiso   1.00
C19    C     0.84740  -0.02540   0.53180   0.00000  Uiso   1.00
C20    C     0.88240  -0.10610   0.56190   0.00000  Uiso   1.00
C21    C     0.82560  -0.11960   0.61460   0.00000  Uiso   1.00
C22    C     0.82700  -0.03670   0.64830   0.00000  Uiso   1.00
C23    C     0.78760   0.03940   0.61460   0.00000  Uiso   1.00
C24    C     0.79390   0.12590   0.64410   0.00000  Uiso   1.00
O16    O     0.87470  -0.18100   0.52710   0.00000  Uiso   1.00
O17    O     0.87050  -0.18890   0.64460   0.00000  Uiso   1.00
O18    O     0.76340  -0.05340   0.69400   0.00000  Uiso   1.00
O19    O     0.84860   0.04850   0.56700   0.00000  Uiso   1.00
O20    O     0.74750   0.19170   0.60990   0.00000  Uiso   1.00
C25    C     0.79820  -0.03350   0.74730   0.00000  Uiso   1.00
C26    C     0.78120  -0.11250   0.78330   0.00000  Uiso   1.00
C27    C     0.67320  -0.13190   0.78920   0.00000  Uiso   1.00
C28    C     0.61600  -0.05010   0.80420   0.00000  Uiso   1.00
C29    C     0.64330   0.02960   0.76980   0.00000  Uiso   1.00
C30    C     0.60290   0.11520   0.79010   0.00000  Uiso   1.00
O21    O     0.83100  -0.18550   0.76010   0.00000  Uiso   1.00
O22    O     0.66330  -0.19720   0.83060   0.00000  Uiso   1.00
O23    O     0.51560  -0.07050   0.79430   0.00000  Uiso   1.00
O24    O     0.74810   0.03960   0.76920   0.00000  Uiso   1.00
O25    O     0.61800   0.12660   0.84800   0.00000  Uiso   1.00
C31    C     0.44480  -0.05270   0.83390   0.00000  Uiso   1.00
C32    C     0.37250  -0.12660   0.83650   0.00000  Uiso   1.00
C33    C     0.32930  -0.13970   0.77910   0.00000  Uiso   1.00
C34    C     0.28090  -0.05560   0.76280   0.00000  Uiso   1.00
C35    C     0.34610   0.02420   0.76870   0.00000  Uiso   1.00
C36    C     0.28910   0.10950   0.76440   0.00000  Uiso   1.00
O26    O     0.41590  -0.20400   0.85730   0.00000  Uiso   1.00
O27    O     0.25900  -0.20860   0.78090   0.00000  Uiso   1.00
O28    O     0.25440  -0.06300   0.70660   0.00000  Uiso   1.00
O29    O     0.39260   0.02480   0.82220   0.00000  Uiso   1.00
O30    O     0.19830   0.10780   0.79240   0.00000  Uiso   1.00
H1     H     0.10900  -0.04700   0.73000   0.00000  Uiso   1.00
H2     H     0.05000  -0.12300   0.64300   0.00000  Uiso   1.00
H3     H     0.26600  -0.13100   0.60800   0.00000  Uiso   1.00
H4     H     0.09500  -0.01800   0.56200   0.00000  Uiso   1.00
H5     H     0.28100   0.03600   0.62900   0.00000  Uiso   1.00
H6     H     0.23300   0.14900   0.56300   0.00000  Uiso   1.00
H7     H     0.20000   0.18500   0.62900   0.00000  Uiso   1.00
H8     H     0.11000  -0.25000   0.66700   0.00000  Uiso   1.00
H9     H     0.17100  -0.17100   0.52400   0.00000  Uiso   1.00
H10    H     0.03100   0.10000   0.57100   0.00000  Uiso   1.00
H11    H     0.12900   0.02200   0.48300   0.00000  Uiso   1.00
H12    H     0.20600  -0.05000   0.39700   0.00000  Uiso   1.00
H13    H     0.36200  -0.10900   0.47500   0.00000  Uiso   1.00
H14    H     0.37600   0.02300   0.38200   0.00000  Uiso   1.00
H15    H     0.38700   0.06000   0.50600   0.00000  Uiso   1.00
H16    H     0.47500   0.16500   0.45400   0.00000  Uiso   1.00
H17    H     0.35700   0.21700   0.47000   0.00000  Uiso   1.00
H18    H     0.10200  -0.13000   0.44900   0.00000  Uiso   1.00
H19    H     0.36700  -0.20000   0.41800   0.00000  Uiso   1.00
H20    H     0.32600   0.22200   0.38200   0.00000  Uiso   1.00
H21    H     0.51900   0.03200   0.35800   0.00000  Uiso   1.00
H22    H     0.67700  -0.06100   0.35200   0.00000  Uiso   1.00
H23    H     0.62200  -0.11900   0.46500   0.00000  Uiso   1.00
H24    H     0.79400  -0.00900   0.43500   0.00000  Uiso   1.00
H25    H     0.60900   0.06000   0.49300   0.00000  Uiso   1.00
H26    H     0.74500   0.14800   0.51300   0.00000  Uiso   1.00
H27    H     0.68200   0.20600   0.46400   0.00000  Uiso   1.00
H28    H     0.50200  -0.14900   0.37200   0.00000  Uiso   1.00
H29    H     0.69900  -0.22000   0.42800   0.00000  Uiso   1.00
H30    H     0.80200   0.17700   0.40300   0.00000  Uiso   1.00
H31    H     0.89500  -0.00700   0.49600   0.00000  Uiso   1.00
H32    H     0.96100  -0.09600   0.57300   0.00000  Uiso   1.00
H33    H     0.74600  -0.13600   0.60600   0.00000  Uiso   1.00
H34    H     0.90300  -0.01800   0.66300   0.00000  Uiso   1.00
H35    H     0.70900   0.02500   0.60500   0.00000  Uiso   1.00
H36    H     0.87300   0.14300   0.64900   0.00000  Uiso   1.00
H37    H     0.75400   0.11900   0.68200   0.00000  Uiso   1.00
H38    H     0.83000  -0.20000   0.68000   0.00000  Uiso   1.00
H39    H     0.70100   0.22500   0.63100   0.00000  Uiso   1.00
H40    H     0.87600  -0.01200   0.74600   0.00000  Uiso   1.00
H41    H     0.81100  -0.09900   0.82300   0.00000  Uiso   1.00
H42    H     0.64600  -0.15700   0.75200   0.00000  Uiso   1.00
H43    H     0.62600  -0.03500   0.84700   0.00000  Uiso   1.00
H44    H     0.61500   0.02000   0.72800   0.00000  Uiso   1.00
H45    H     0.63400   0.17000   0.76600   0.00000  Uiso   1.00
H46    H     0.52400   0.11500   0.78200   0.00000  Uiso   1.00
H47    H     0.83600  -0.21800   0.77900   0.00000  Uiso   1.00
H48    H     0.60400  -0.19800   0.82000   0.00000  Uiso   1.00
H49    H     0.67000   0.16800   0.85000   0.00000  Uiso   1.00
H50    H     0.48600  -0.04000   0.87300   0.00000  Uiso   1.00
H51    H     0.31300  -0.11000   0.86800   0.00000  Uiso   1.00
H52    H     0.38300  -0.15700   0.74900   0.00000  Uiso   1.00
H53    H     0.21400  -0.04600   0.78800   0.00000  Uiso   1.00
H54    H     0.40200   0.02300   0.73700   0.00000  Uiso   1.00
H55    H     0.33400   0.16700   0.78100   0.00000  Uiso   1.00
H56    H     0.27700   0.12200   0.71900   0.00000  Uiso   1.00
H57    H     0.46200  -0.22100   0.81900   0.00000  Uiso   1.00
H58    H     0.23300  -0.22100   0.75000   0.00000  Uiso   1.00
H59    H     0.17300   0.11800   0.83000   0.00000  Uiso   1.00
loop_
_geom_bond_atom_site_label_1
_geom_bond_atom_site_label_2
_geom_bond_distance
_geom_bond_site_symmetry_2
_ccdc_geom_bond_type
C1     C2      1.528   .     S
C1     O4      1.417   .     S
C1     O28     1.410   .     S
C1     H1      1.150   .     S
C2     C3      1.516   .     S
C2     O1      1.437   .     S
C2     H2      1.098   .     S
C3     C4      1.512   .     S
C3     O2      1.440   .     S
C3     H3      1.143   .     S
C4     C5      1.533   .     S
C4     O3      1.440   .     S
C4     H4      1.147   .     S
C5     C6      1.521   .     S
C5     O4      1.442   .     S
C5     H5      1.129   .     S
C6     O5      1.427   .     S
C6     H6      1.089   .     S
C6     H7      1.104   .     S
O1     H8      0.927   .     S
O2     H9      1.018   .     S
O3     C7      1.417   .     S
O5     H10     1.089   .     S
C7     C8      1.524   .     S
C7     O9      1.411   .     S
C7     H11     1.113   .     S
C8     C9      1.506   .     S
C8     O6      1.438   .     S
C8     H12     1.116   .     S
C9     C10     1.497   .     S
C9     O7      1.436   .     S
C9     H13     1.066   .     S
C10    C11     1.513   .     S
C10    O8      1.471   .     S
C10    H14     1.116   .     S
C11    C12     1.514   .     S
C11    O9      1.444   .     S
C11    H15     1.140   .     S
C12    O10     1.431   .     S
C12    H16     1.071   .     S
C12    H17     1.154   .     S
O6     H18     1.162   .     S
O7     H19     1.043   .     S
O8     C13     1.418   .     S
O10    H20     1.047   .     S
C13    C14     1.517   .     S
C13    O14     1.410   .     S
C13    H21     1.069   .     S
C14    C15     1.512   .     S
C14    O11     1.442   .     S
C14    H22     1.085   .     S
C15    C16     1.522   .     S
C15    O12     1.428   .     S
C15    H23     1.058   .     S
C16    C17     1.538   .     S
C16    O13     1.433   .     S
C16    H24     1.102   .     S
C17    C18     1.521   .     S
C17    O14     1.442   .     S
C17    H25     1.124   .     S
C18    O15     1.425   .     S
C18    H26     1.072   .     S
C18    H27     1.110   .     S
O11    H28     0.878   .     S
O12    H29     1.018   .     S
O13    C19     1.418   .     S
O15    H30     0.985   .     S
C19    C20     1.518   .     S
C19    O19     1.424   .     S
C19    H31     1.131   .     S
C20    C21     1.525   .     S
C20    O16     1.434   .     S
C20    H32     1.125   .     S
C21    C22     1.516   .     S
C21    O17     1.432   .     S
C21    H33     1.143   .     S
C22    C23     1.529   .     S
C22    O18     1.445   .     S
C22    H34     1.142   .     S
C23    C24     1.512   .     S
C23    O19     1.445   .     S
C23    H35     1.128   .     S
C24    O20     1.459   .     S
C24    H36     1.125   .     S
C24    H37     1.085   .     S
O17    H38     1.046   .     S
O18    C25     1.426   .     S
O20    H39     0.968   .     S
C25    C26     1.516   .     S
C25    O24     1.420   .     S
C25    H40     1.120   .     S
C26    C27     1.521   .     S
C26    O21     1.430   .     S
C26    H41     1.077   .     S
C27    C28     1.525   .     S
C27    O22     1.432   .     S
C27    H42     1.059   .     S
C28    C29     1.531   .     S
C28    O23     1.436   .     S
C28    H43     1.084   .     S
C29    C30     1.509   .     S
C29    O24     1.449   .     S
C29    H44     1.107   .     S
C30    O25     1.447   .     S
C30    H45     1.112   .     S
C30    H46     1.103   .     S
O21    H47     0.684   .     S
O22    H48     0.856   .     S
O23    C31     1.402   .     S
O25    H49     0.957   .     S
C31    C32     1.508   .     S
C31    O29     1.417   .     S
C31    H50     1.131   .     S
C32    C33     1.542   .     S
C32    O26     1.422   .     S
C32    H51     1.154   .     S
C33    C34     1.504   .     S
C33    O27     1.432   .     S
C33    H52     1.078   .     S
C34    C35     1.523   .     S
C34    O28     1.431   .     S
C34    H53     1.118   .     S
C35    C36     1.527   .     S
C35    O29     1.461   .     S
C35    H54     1.094   .     S
C36    O30     1.425   .     S
C36    H55     1.150   .     S
C36    H56     1.143   .     S
O26    H57     1.163   .     S
O27    H58     0.860   .     S
O30    H59     0.999   .     S
