data_old_CD2
_audit_creation_date              2015-09-28
_audit_creation_method            'Materials Studio'
_symmetry_space_group_name_H-M    'C2221'
_symmetry_Int_Tables_number       20
_symmetry_cell_setting            orthorhombic
loop_
_symmetry_equiv_pos_as_xyz
  x,y,z
  -x,-y,z+1/2
  -x,y,-z+1/2
  x,-y,-z
  x+1/2,y+1/2,z
  -x+1/2,-y+1/2,z+1/2
  -x+1/2,y+1/2,-z+1/2
  x+1/2,-y+1/2,-z
_cell_length_a                    19.0550
_cell_length_b                    23.6960
_cell_length_c                    32.3570
_cell_angle_alpha                 90.0000
_cell_angle_beta                  90.0000
_cell_angle_gamma                 90.0000
loop_
_atom_site_label
_atom_site_type_symbol
_atom_site_fract_x
_atom_site_fract_y
_atom_site_fract_z
_atom_site_U_iso_or_equiv
_atom_site_adp_type
_atom_site_occupancy
C1     C     0.27440   0.04540   0.39250   0.03000  Uiso   1.00
H2     H     0.25637   0.00038   0.39894   0.03700  Uiso   1.00
C3     C     0.22910   0.07050   0.36120   0.04200  Uiso   1.00
O4     O     0.23240   0.03910   0.32377   0.03867  Uani   1.00
C5     C     0.24990   0.13310   0.35330   0.03800  Uiso   1.00
H6     H     0.30623   0.13480   0.34150   0.04500  Uiso   1.00
O7     O     0.20440   0.15550   0.32270   0.04567  Uani   1.00
C8     C     0.24570   0.16250   0.39280   0.03000  Uiso   1.00
H9     H     0.18865   0.16554   0.40318   0.03600  Uiso   1.00
C10    C     0.28850   0.13550   0.42560   0.03500  Uiso   1.00
H11    H     0.34622   0.13914   0.41673   0.04200  Uiso   1.00
C12    C     0.27890   0.16010   0.46830   0.03600  Uiso   1.00
H13    H     0.28757   0.20766   0.46680   0.04300  Uiso   1.00
H14    H     0.31913   0.14084   0.49023   0.04300  Uiso   1.00
O15    O     0.21320   0.14970   0.48416   0.04367  Uani   1.00
O16    O     0.27110   0.07700   0.42922   0.03860  Uiso   1.00
O17    O     0.27410   0.21840   0.38647   0.03800  Uani   1.00
C18    C     0.23200   0.26580   0.39500   0.03900  Uiso   1.00
H19    H     0.17721   0.25111   0.40419   0.04700  Uiso   1.00
C20    C     0.22710   0.30110   0.35710   0.03800  Uiso   1.00
H21    H     0.19411   0.34016   0.36387   0.04500  Uiso   1.00
O22    O     0.19640   0.27040   0.32350   0.03967  Uani   1.00
C23    C     0.30100   0.31910   0.34460   0.03700  Uiso   1.00
H24    H     0.33488   0.28024   0.33881   0.04500  Uiso   1.00
O25    O     0.29860   0.35340   0.30808   0.04300  Uani   1.00
C26    C     0.33040   0.35260   0.38030   0.03800  Uiso   1.00
H27    H     0.29873   0.39304   0.38433   0.04600  Uiso   1.00
C28    C     0.32930   0.31990   0.41950   0.03800  Uiso   1.00
H29    H     0.36815   0.28349   0.41689   0.04600  Uiso   1.00
C30    C     0.34730   0.35390   0.45620   0.04100  Uiso   1.00
H31    H     0.40424   0.36830   0.45384   0.05000  Uiso   1.00
H32    H     0.34040   0.32720   0.48523   0.05000  Uiso   1.00
O33    O     0.30220   0.40270   0.45890   0.05067  Uani   1.00
O34    O     0.26100   0.29740   0.42737   0.04040  Uiso   1.00
O35    O     0.40050   0.36640   0.36913   0.03733  Uani   1.00
C36    C     0.42550   0.42220   0.37520   0.03500  Uiso   1.00
H37    H     0.37944   0.44972   0.38516   0.04200  Uiso   1.00
C38    C     0.45130   0.44310   0.33420   0.04200  Uiso   1.00
H39    H     0.46824   0.48889   0.33838   0.05000  Uiso   1.00
O40    O     0.39700   0.44220   0.30440   0.04167  Uani   1.00
C41    C     0.51380   0.41050   0.32130   0.03800  Uiso   1.00
H42    H     0.49838   0.36470   0.31547   0.04500  Uiso   1.00
O43    O     0.54320   0.43400   0.28469   0.03833  Uani   1.00
C44    C     0.56940   0.41320   0.35610   0.03700  Uiso   1.00
H45    H     0.58741   0.45881   0.35974   0.04400  Uiso   1.00
C46    C     0.53810   0.39430   0.39540   0.03700  Uiso   1.00
H47    H     0.52371   0.34777   0.39251   0.04400  Uiso   1.00
C48    C     0.58620   0.40140   0.43150   0.05100  Uiso   1.00
H49    H     0.63079   0.36947   0.42931   0.06100  Uiso   1.00
H50    H     0.55572   0.39426   0.46136   0.06100  Uiso   1.00
O51    O     0.61460   0.45760   0.43120   0.06167  Uani   1.00
O52    O     0.47680   0.42520   0.40550   0.03990  Uiso   1.00
O53    O     0.62640   0.38060   0.34507   0.03667  Uani   1.00
C54    C     0.69150   0.40580   0.34530   0.03900  Uiso   1.00
H55    H     0.68417   0.45317   0.34971   0.04700  Uiso   1.00
C56    C     0.72610   0.39560   0.30260   0.03800  Uiso   1.00
H57    H     0.77927   0.41759   0.30138   0.04600  Uiso   1.00
O58    O     0.68310   0.41590   0.27083   0.04200  Uani   1.00
C59    C     0.73600   0.33210   0.29790   0.04000  Uiso   1.00
H60    H     0.68258   0.31044   0.29825   0.04800  Uiso   1.00
O61    O     0.77110   0.31960   0.25995   0.04400  Uani   1.00
C62    C     0.77930   0.31090   0.33330   0.03800  Uiso   1.00
H63    H     0.83478   0.32867   0.33121   0.04600  Uiso   1.00
C64    C     0.74850   0.32430   0.37410   0.03900  Uiso   1.00
H65    H     0.69716   0.30026   0.37824   0.04600  Uiso   1.00
O66    O     0.73530   0.38560   0.37691   0.03450  Uiso   1.00
C67    C     0.79570   0.31290   0.40960   0.03900  Uiso   1.00
H68    H     0.80467   0.26545   0.41206   0.04600  Uiso   1.00
H69    H     0.77000   0.32847   0.43930   0.04600  Uiso   1.00
O70    O     0.86210   0.34050   0.40567   0.04433  Uani   1.00
O71    O     0.78100   0.25030   0.32920   0.03333  Uani   1.00
C72    C     0.84440   0.22300   0.33010   0.03900  Uiso   1.00
H73    H     0.88832   0.25563   0.32908   0.04700  Uiso   1.00
C74    C     0.84870   0.18640   0.29200   0.03900  Uiso   1.00
H75    H     0.90174   0.16417   0.29279   0.04700  Uiso   1.00
O76    O     0.84620   0.21820   0.25510   0.04667  Uani   1.00
C77    C     0.79440   0.14240   0.29400   0.03900  Uiso   1.00
H78    H     0.74033   0.16298   0.29360   0.04600  Uiso   1.00
O79    O     0.80160   0.10560   0.25820   0.04500  Uani   1.00
C80    C     0.80250   0.10840   0.33280   0.03300  Uiso   1.00
H81    H     0.85400   0.08393   0.33225   0.04000  Uiso   1.00
C82    C     0.79970   0.14730   0.37050   0.04400  Uiso   1.00
H83    H     0.74558   0.16773   0.37171   0.05300  Uiso   1.00
O84    O     0.85120   0.19110   0.36560   0.04360  Uiso   1.00
C85    C     0.81300   0.11930   0.41070   0.05700  Uiso   1.00
H86    H     0.76946   0.08748   0.41711   0.06900  Uiso   1.00
H87    H     0.81380   0.15232   0.43632   0.06900  Uiso   1.00
O88    O     0.87500   0.09250   0.40990   0.07300  Uani   1.00
O89    O     0.74480   0.07080   0.33634   0.03067  Uani   1.00
C90    C     0.76150   0.01200   0.33920   0.02800  Uiso   1.00
H91    H     0.82070   0.00645   0.33617   0.03400  Uiso   1.00
C92    C     0.72580  -0.01910   0.30450   0.03300  Uiso   1.00
H93    H     0.73821  -0.06603   0.30705   0.04000  Uiso   1.00
O94    O     0.75000   0.00120   0.26630   0.03433  Uani   1.00
C95    C     0.64670  -0.01040   0.30880   0.03400  Uiso   1.00
H96    H     0.63279   0.03628   0.30641   0.04100  Uiso   1.00
O97    O     0.61260  -0.04210   0.27686   0.04233  Uani   1.00
C98    C     0.62580  -0.03360   0.35020   0.03200  Uiso   1.00
H99    H     0.63518  -0.08110   0.35091   0.03800  Uiso   1.00
C100   C     0.66510  -0.00610   0.38460   0.03700  Uiso   1.00
H101   H     0.64892   0.04017   0.38618   0.04500  Uiso   1.00
O102   O     0.73990  -0.00890   0.37763   0.03410  Uiso   1.00
C103   C     0.65210  -0.03240   0.42560   0.03800  Uiso   1.00
H104   H     0.59415  -0.02788   0.43372   0.04500  Uiso   1.00
H105   H     0.68492  -0.01001   0.45007   0.04500  Uiso   1.00
O106   O     0.67070  -0.09170   0.42566   0.04467  Uani   1.00
O107   O     0.55250  -0.02210   0.35578   0.03100  Uani   1.00
C108   C     0.50710  -0.06750   0.36350   0.03400  Uiso   1.00
H109   H     0.53835  -0.10848   0.36205   0.04000  Uiso   1.00
C110   C     0.45180  -0.06830   0.33000   0.03300  Uiso   1.00
H111   H     0.41453  -0.10477   0.33678   0.03900  Uiso   1.00
O112   O     0.48020  -0.07700   0.29123   0.03600  Uani   1.00
C113   C     0.40980  -0.01320   0.33350   0.03400  Uiso   1.00
H114   H     0.44660   0.02401   0.32810   0.04100  Uiso   1.00
O115   O     0.35720  -0.01330   0.30229   0.03867  Uani   1.00
C116   C     0.37840  -0.00800   0.37460   0.02900  Uiso   1.00
H117   H     0.33808  -0.04303   0.37904   0.03500  Uiso   1.00
C118   C     0.43430  -0.01280   0.40790   0.02730  Uiso   1.00
H119   H     0.46936   0.02615   0.40674   0.03300  Uiso   1.00
O120   O     0.47700  -0.06250   0.40274   0.03260  Uiso   1.00
C121   C     0.40440  -0.01830   0.45000   0.04100  Uiso   1.00
O122   O     0.36100  -0.06700   0.45324   0.04000  Uani   1.00
O123   O     0.34470   0.04440   0.37729   0.03467  Uani   1.00
H124   H     0.17275   0.06945   0.37302   0.00000  Uiso   1.00
H125   H     0.28812   0.03235   0.31508   0.00000  Uiso   1.00
H126   H     0.17327   0.19058   0.33614   0.00000  Uiso   1.00
H127   H     0.20371   0.17778   0.51104   0.00000  Uiso   1.00
H128   H     0.13850   0.27543   0.32431   0.00000  Uiso   1.00
H129   H     0.24389   0.36764   0.30261   0.00000  Uiso   1.00
H130   H     0.32992   0.43704   0.47558   0.00000  Uiso   1.00
H131   H     0.35212   0.46787   0.31557   0.00000  Uiso   1.00
H132   H     0.58495   0.46458   0.29310   0.00000  Uiso   1.00
H133   H     0.57438   0.48771   0.44258   0.00000  Uiso   1.00
H134   H     0.64829   0.44951   0.28311   0.00000  Uiso   1.00
H135   H     0.82685   0.33283   0.26219   0.00000  Uiso   1.00
H136   H     0.86377   0.37760   0.42659   0.00000  Uiso   1.00
H137   H     0.79126   0.23125   0.24889   0.00000  Uiso   1.00
H138   H     0.85810   0.09922   0.25128   0.00000  Uiso   1.00
H139   H     0.91230   0.11415   0.43095   0.00000  Uiso   1.00
H140   H     0.79794   0.02696   0.27118   0.00000  Uiso   1.00
H141   H     0.55497  -0.03599   0.27908   0.00000  Uiso   1.00
H142   H     0.72717  -0.09634   0.43337   0.00000  Uiso   1.00
H143   H     0.53645  -0.06484   0.29146   0.00000  Uiso   1.00
H144   H     0.31160   0.01209   0.31279   0.00000  Uiso   1.00
H145   H     0.37190   0.02083   0.45733   0.00000  Uiso   1.00
H146   H     0.44880  -0.02207   0.47345   0.00000  Uiso   1.00
H147   H     0.31305  -0.05641   0.47111   0.00000  Uiso   1.00
loop_
_atom_site_aniso_label
_atom_site_aniso_U_11
_atom_site_aniso_U_22
_atom_site_aniso_U_33
_atom_site_aniso_U_12
_atom_site_aniso_U_13
_atom_site_aniso_U_23
O4        0.04800   0.04100   0.02700   0.00400   0.00000   0.00000
O7        0.05100   0.04500   0.04100   0.01500  -0.00400   0.00400
O15       0.04700   0.05400   0.03000   0.00900  -0.00200  -0.00400
O17       0.04500   0.03300   0.03600   0.00500   0.00300   0.00800
O22       0.05700   0.02800   0.03400   0.00000  -0.00600   0.00200
O25       0.05800   0.04200   0.02900   0.00000  -0.01300   0.00700
O33       0.05500   0.05800   0.03900   0.01100  -0.00800  -0.00500
O35       0.04300   0.04200   0.02700   0.00200  -0.00400   0.00600
O40       0.04000   0.04400   0.04100  -0.00100  -0.00600   0.00500
O43       0.03000   0.05800   0.02700   0.00900  -0.01000   0.01000
O51       0.06500   0.06600   0.05400  -0.00700  -0.02700  -0.00200
O53       0.04400   0.03800   0.02800  -0.00600  -0.00300   0.00900
O58       0.05500   0.05000   0.02100   0.00500  -0.01000  -0.00200
O61       0.05400   0.05300   0.02500   0.00600   0.00600  -0.00200
O70       0.03200   0.06500   0.03600  -0.00200  -0.00300   0.00600
O71       0.03800   0.03000   0.03200  -0.00800  -0.00100  -0.00300
O76       0.06200   0.03700   0.04100  -0.00300   0.00600   0.00300
O79       0.05500   0.05200   0.02800  -0.00500   0.00400  -0.00500
O88       0.10700   0.06600   0.04600  -0.02500  -0.03200   0.00300
O89       0.02900   0.03100   0.03200  -0.00100   0.00200   0.00100
O94       0.04200   0.03700   0.02400  -0.00800   0.01000  -0.00100
O97       0.04700   0.05800   0.02200  -0.01800  -0.00500  -0.00700
O106      0.05800   0.03600   0.04000   0.01000   0.00400   0.00800
O107      0.02200   0.03900   0.03200   0.00300   0.00500  -0.00200
O112      0.04100   0.04600   0.02100   0.00100   0.00500  -0.00300
O115      0.03600   0.05400   0.02600  -0.00100   0.00300  -0.00600
O122      0.05200   0.03600   0.03200   0.00300   0.00100   0.00700
O123      0.04000   0.03800   0.02600   0.00100   0.00600  -0.00300
loop_
_geom_bond_atom_site_label_1
_geom_bond_atom_site_label_2
_geom_bond_distance
_geom_bond_site_symmetry_2
_ccdc_geom_bond_type
C1     O16     1.406   .     S
C1     O123    1.427   .     S
C1     C3      1.458   .     S
C1     H2      1.140   .     S
C3     O4      1.423   .     S
C3     C5      1.557   .     S
C3     H124    1.140   .     S
O4     H125    1.110   .     S
C5     O7      1.419   .     S
C5     C8      1.458   .     S
C5     H6      1.140   .     S
O7     H126    1.110   .     S
C8     O17     1.445   .     S
C8     C10     1.484   .     S
C8     H9      1.140   .     S
C10    O16     1.430   .     S
C10    C12     1.511   .     S
C10    H11     1.140   .     S
C12    O15     1.375   .     S
C12    H13     1.140   .     S
C12    H14     1.140   .     S
O15    H127    1.110   .     S
O17    C18     1.408   .     S
C18    O34     1.401   .     S
C18    C20     1.487   .     S
C18    H19     1.140   .     S
C20    O22     1.433   .     S
C20    C23     1.526   .     S
C20    H21     1.140   .     S
O22    H128    1.110   .     S
C23    O25     1.435   .     S
C23    C26     1.509   .     S
C23    H24     1.140   .     S
O25    H129    1.110   .     S
C26    O35     1.422   .     S
C26    C28     1.486   .     S
C26    H27     1.140   .     S
C28    O34     1.429   .     S
C28    C30     1.475   .     S
C28    H29     1.140   .     S
C30    O33     1.443   .     S
C30    H31     1.140   .     S
C30    H32     1.140   .     S
O33    H130    1.110   .     S
O35    C36     1.419   .     S
C36    O52     1.386   .     S
C36    C38     1.499   .     S
C36    H37     1.140   .     S
C38    O40     1.414   .     S
C38    C41     1.480   .     S
C38    H39     1.140   .     S
O40    H131    1.110   .     S
C41    O43     1.424   .     S
C41    C44     1.547   .     S
C41    H42     1.140   .     S
O43    H132    1.110   .     S
C44    O53     1.380   .     S
C44    C46     1.474   .     S
C44    H45     1.140   .     S
C46    O52     1.417   .     S
C46    C48     1.494   .     S
C46    H47     1.140   .     S
C48    O51     1.438   .     S
C48    H49     1.140   .     S
C48    H50     1.140   .     S
O51    H133    1.110   .     S
O53    C54     1.377   .     S
C54    O66     1.404   .     S
C54    C56     1.550   .     S
C54    H55     1.140   .     S
C56    O58     1.400   .     S
C56    C59     1.524   .     S
C56    H57     1.140   .     S
O58    H134    1.110   .     S
C59    O61     1.429   .     S
C59    C62     1.498   .     S
C59    H60     1.140   .     S
O61    H135    1.110   .     S
C62    O71     1.442   .     S
C62    C64     1.479   .     S
C62    H63     1.140   .     S
C64    C67     1.484   .     S
C64    O66     1.477   .     S
C64    H65     1.140   .     S
C67    O70     1.430   .     S
C67    H68     1.140   .     S
C67    H69     1.140   .     S
O70    H136    1.110   .     S
O71    C72     1.371   .     S
C72    O84     1.381   .     S
C72    C74     1.510   .     S
C72    H73     1.140   .     S
C74    O76     1.413   .     S
C74    C77     1.470   .     S
C74    H75     1.140   .     S
O76    H137    1.110   .     S
C77    O79     1.456   .     S
C77    C80     1.500   .     S
C77    H78     1.140   .     S
O79    H138    1.110   .     S
C80    O89     1.420   .     S
C80    C82     1.530   .     S
C80    H81     1.140   .     S
C82    O84     1.437   .     S
C82    C85     1.482   .     S
C82    H83     1.140   .     S
C85    O88     1.342   .     S
C85    H86     1.140   .     S
C85    H87     1.140   .     S
O88    H139    1.110   .     S
O89    C90     1.432   .     S
C90    O102    1.400   .     S
C90    C92     1.505   .     S
C90    H91     1.140   .     S
C92    O94     1.404   .     S
C92    C95     1.528   .     S
C92    H93     1.140   .     S
O94    H140    1.110   .     S
C95    O97     1.433   .     S
C95    C98     1.502   .     S
C95    H96     1.140   .     S
O97    H141    1.110   .     S
C98    O107    1.434   .     S
C98    C100    1.491   .     S
C98    H99     1.140   .     S
C100   O102    1.445   .     S
C100   C103    1.487   .     S
C100   H101    1.140   .     S
C103   O106    1.449   .     S
C103   H104    1.140   .     S
C103   H105    1.140   .     S
O106   H142    1.110   .     S
O107   C108    1.403   .     S
C108   O120    1.398   .     S
C108   C110    1.512   .     S
C108   H109    1.140   .     S
C110   O112    1.382   .     S
C110   C113    1.536   .     S
C110   H111    1.140   .     S
O112   H143    1.110   .     S
C113   O115    1.423   .     S
C113   C116    1.463   .     S
C113   H114    1.140   .     S
O115   H144    1.110   .     S
C116   O123    1.401   .     S
C116   C118    1.519   .     S
C116   H117    1.140   .     S
C118   O120    1.441   .     S
C118   C121    1.482   .     S
C118   H119    1.140   .     S
C121   O122    1.424   .     S
C121   H145    1.140   .     S
C121   H146    1.140   .     S
O122   H147    1.110   .     S
