data_CD3
_audit_creation_date              2015-09-28
_audit_creation_method            'Materials Studio'
_symmetry_space_group_name_H-M    'P4212'
_symmetry_Int_Tables_number       90
_symmetry_cell_setting            tetragonal
loop_
_symmetry_equiv_pos_as_xyz
  x,y,z
  -x,-y,z
  -y+1/2,x+1/2,z
  y+1/2,-x+1/2,z
  -x+1/2,y+1/2,-z
  x+1/2,-y+1/2,-z
  y,x,-z
  -y,-x,-z
_cell_length_a                    23.8080
_cell_length_b                    23.8080
_cell_length_c                    23.1400
_cell_angle_alpha                 90.0000
_cell_angle_beta                  90.0000
_cell_angle_gamma                 90.0000
loop_
_atom_site_label
_atom_site_type_symbol
_atom_site_fract_x
_atom_site_fract_y
_atom_site_fract_z
_atom_site_U_iso_or_equiv
_atom_site_adp_type
_atom_site_occupancy
C1     C     0.63600   0.25690   0.62720   0.00000  Uiso   1.00
H2     H     0.67845   0.27720   0.61806   0.00000  Uiso   1.00
C3     C     0.61040   0.28530   0.67840   0.00000  Uiso   1.00
H4     H     0.60686   0.33192   0.66779   0.00000  Uiso   1.00
C5     C     0.55000   0.26260   0.68750   0.00000  Uiso   1.00
H6     H     0.55181   0.21660   0.70104   0.00000  Uiso   1.00
C7     C     0.51720   0.26810   0.63290   0.00000  Uiso   1.00
H8     H     0.51223   0.31439   0.62139   0.00000  Uiso   1.00
C9     C     0.54680   0.23800   0.58480   0.00000  Uiso   1.00
H10    H     0.55067   0.19192   0.59758   0.00000  Uiso   1.00
C11    C     0.51650   0.24060   0.52610   0.00000  Uiso   1.00
H12    H     0.47145   0.22526   0.53153   0.00000  Uiso   1.00
H13    H     0.53922   0.21252   0.49376   0.00000  Uiso   1.00
O14    O     0.64280   0.28040   0.73000   0.00000  Uiso   1.00
O15    O     0.52190   0.29530   0.73200   0.00000  Uiso   1.00
O16    O     0.46350   0.24390   0.64310   0.00000  Uiso   1.00
O17    O     0.60370   0.26060   0.57830   0.00000  Uiso   1.00
O18    O     0.51600   0.29590   0.50500   0.00000  Uiso   1.00
C19    C     0.41650   0.27650   0.62660   0.00000  Uiso   1.00
H20    H     0.43106   0.32121   0.61730   0.00000  Uiso   1.00
C21    C     0.37710   0.27750   0.67700   0.00000  Uiso   1.00
H22    H     0.34045   0.30619   0.66543   0.00000  Uiso   1.00
C23    C     0.35350   0.21900   0.68850   0.00000  Uiso   1.00
H24    H     0.38876   0.18850   0.69972   0.00000  Uiso   1.00
C25    C     0.32390   0.20080   0.63260   0.00000  Uiso   1.00
H26    H     0.28837   0.23115   0.62184   0.00000  Uiso   1.00
C27    C     0.36660   0.20080   0.58540   0.00000  Uiso   1.00
H28    H     0.40214   0.17125   0.59828   0.00000  Uiso   1.00
C29    C     0.34310   0.18130   0.52770   0.00000  Uiso   1.00
H30    H     0.32543   0.13705   0.53259   0.00000  Uiso   1.00
H31    H     0.37807   0.18097   0.49405   0.00000  Uiso   1.00
O32    O     0.40220   0.29860   0.72870   0.00000  Uiso   1.00
O33    O     0.31140   0.21940   0.73360   0.00000  Uiso   1.00
O34    O     0.64520   0.19800   0.64150   0.00000  Uiso   1.00
O35    O     0.38940   0.25550   0.57780   0.00000  Uiso   1.00
O36    O     0.30060   0.21730   0.50930   0.00000  Uiso   1.00
C37    C     0.73810   0.16070   0.28160   0.00000  Uiso   1.00
H38    H     0.75412   0.20481   0.29139   0.00000  Uiso   1.00
C39    C     0.77340   0.13670   0.23180   0.00000  Uiso   1.00
H40    H     0.81979   0.13916   0.24375   0.00000  Uiso   1.00
C41    C     0.75800   0.07770   0.22180   0.00000  Uiso   1.00
H42    H     0.71275   0.07506   0.20591   0.00000  Uiso   1.00
C43    C     0.76500   0.04220   0.27650   0.00000  Uiso   1.00
H44    H     0.81077   0.04212   0.29098   0.00000  Uiso   1.00
C45    C     0.72720   0.07120   0.32310   0.00000  Uiso   1.00
H46    H     0.68120   0.07047   0.30942   0.00000  Uiso   1.00
C47    C     0.73460   0.04430   0.38260   0.00000  Uiso   1.00
H48    H     0.72067  -0.00145   0.38017   0.00000  Uiso   1.00
H49    H     0.70714   0.06717   0.41539   0.00000  Uiso   1.00
O50    O     0.76360   0.16960   0.18070   0.00000  Uiso   1.00
O51    O     0.79600   0.05380   0.17820   0.00000  Uiso   1.00
O52    O     0.74700  -0.01170   0.26610   0.00000  Uiso   1.00
O53    O     0.74650   0.12790   0.33040   0.00000  Uiso   1.00
O54    O     0.79100   0.04630   0.40330   0.00000  Uiso   1.00
C55    C     0.78520  -0.05640   0.28220   0.00000  Uiso   1.00
H56    H     0.82816  -0.03757   0.29213   0.00000  Uiso   1.00
C57    C     0.79050  -0.09580   0.23120   0.00000  Uiso   1.00
H58    H     0.82436  -0.12800   0.24195   0.00000  Uiso   1.00
C59    C     0.73760  -0.12650   0.22090   0.00000  Uiso   1.00
H60    H     0.70385  -0.09465   0.20875   0.00000  Uiso   1.00
C61    C     0.71980  -0.15520   0.27620   0.00000  Uiso   1.00
H62    H     0.75183  -0.18848   0.28918   0.00000  Uiso   1.00
C63    C     0.71230  -0.11290   0.32410   0.00000  Uiso   1.00
H64    H     0.67913  -0.08096   0.31060   0.00000  Uiso   1.00
C65    C     0.69610  -0.13770   0.38250   0.00000  Uiso   1.00
H66    H     0.65415  -0.16041   0.37819   0.00000  Uiso   1.00
H67    H     0.69174  -0.10248   0.41557   0.00000  Uiso   1.00
O68    O     0.80840  -0.06550   0.18200   0.00000  Uiso   1.00
O69    O     0.74280  -0.16550   0.17490   0.00000  Uiso   1.00
O70    O     0.68130   0.16510   0.26390   0.00000  Uiso   1.00
O71    O     0.76530  -0.08450   0.33150   0.00000  Uiso   1.00
O72    O     0.73680  -0.17570   0.40240   0.00000  Uiso   1.00
C73    C     0.66630   0.23840   0.95160   0.00000  Uiso   1.00
H74    H     0.66553   0.28545   0.96074   0.00000  Uiso   1.00
C75    C     0.70380   0.22720   0.89980   0.00000  Uiso   1.00
H76    H     0.74652   0.24762   0.90716   0.00000  Uiso   1.00
C77    C     0.71160   0.16280   0.89170   0.00000  Uiso   1.00
H78    H     0.66918   0.14356   0.88030   0.00000  Uiso   1.00
C79    C     0.73190   0.13690   0.94620   0.00000  Uiso   1.00
H80    H     0.77565   0.15336   0.95687   0.00000  Uiso   1.00
C81    C     0.69130   0.15040   0.99620   0.00000  Uiso   1.00
H82    H     0.64810   0.13194   0.98666   0.00000  Uiso   1.00
C83    C     0.71190   0.13000   1.05510   0.00000  Uiso   1.00
H84    H     0.70612   0.08255   1.05807   0.00000  Uiso   1.00
H85    H     0.68643   0.15116   1.09069   0.00000  Uiso   1.00
O86    O     0.67890   0.25000   0.84880   0.00000  Uiso   1.00
O87    O     0.74960   0.15260   0.84510   0.00000  Uiso   1.00
O88    O     0.73400   0.07760   0.93750   0.00000  Uiso   1.00
O89    O     0.68760   0.21030   0.99980   0.00000  Uiso   1.00
O90    O     0.76950   0.14330   1.06290   0.00000  Uiso   1.00
C91    C     0.78440   0.05180   0.95050   0.00000  Uiso   1.00
H92    H     0.81719   0.08590   0.95811   0.00000  Uiso   1.00
C93    C     0.80390   0.01560   0.89960   0.00000  Uiso   1.00
H94    H     0.84801  -0.00094   0.90841   0.00000  Uiso   1.00
C95    C     0.76430  -0.03320   0.88940   0.00000  Uiso   1.00
H96    H     0.72083  -0.01685   0.87740   0.00000  Uiso   1.00
C97    C     0.76090  -0.06840   0.94670   0.00000  Uiso   1.00
H98    H     0.80373  -0.08715   0.95734   0.00000  Uiso   1.00
C99    C     0.74170  -0.02940   0.99550   0.00000  Uiso   1.00
H100   H     0.69811  -0.01212   0.98549   0.00000  Uiso   1.00
C101   C     0.74160  -0.05760   1.05420   0.00000  Uiso   1.00
H102   H     0.70241  -0.08481   1.05839   0.00000  Uiso   1.00
H103   H     0.74125  -0.02420   1.08950   0.00000  Uiso   1.00
O104   O     0.80420   0.05000   0.84670   0.00000  Uiso   1.00
O105   O     0.78540  -0.06830   0.84430   0.00000  Uiso   1.00
O106   O     0.61230   0.22050   0.93780   0.00000  Uiso   1.00
O107   O     0.78190   0.01700   1.00130   0.00000  Uiso   1.00
O108   O     0.78970  -0.09150   1.06130   0.00000  Uiso   1.00
H109   H     0.62032   0.30124   0.76614   0.00000  Uiso   1.00
H110   H     0.55370   0.31803   0.75815   0.00000  Uiso   1.00
H111   H     0.55982   0.31110   0.50009   0.00000  Uiso   1.00
H112   H     0.36935   0.31791   0.75634   0.00000  Uiso   1.00
H113   H     0.32685   0.24445   0.77080   0.00000  Uiso   1.00
H114   H     0.30199   0.25662   0.53503   0.00000  Uiso   1.00
H115   H     0.72720   0.19787   0.18792   0.00000  Uiso   1.00
H116   H     0.83971   0.06736   0.18737   0.00000  Uiso   1.00
H117   H     0.79388   0.07677   0.43949   0.00000  Uiso   1.00
H118   H     0.83810  -0.03201   0.19542   0.00000  Uiso   1.00
H119   H     0.78794  -0.17296   0.16570   0.00000  Uiso   1.00
H120   H     0.76109  -0.15615   0.43807   0.00000  Uiso   1.00
H121   H     0.64585   0.28065   0.86104   0.00000  Uiso   1.00
H122   H     0.79102   0.17158   0.85528   0.00000  Uiso   1.00
H123   H     0.77360   0.17688   1.09591   0.00000  Uiso   1.00
H124   H     0.84822   0.05942   0.83421   0.00000  Uiso   1.00
H125   H     0.83198  -0.06640   0.84392   0.00000  Uiso   1.00
H126   H     0.81853  -0.07150   1.09289   0.00000  Uiso   1.00
loop_
_geom_bond_atom_site_label_1
_geom_bond_atom_site_label_2
_geom_bond_distance
_geom_bond_site_symmetry_2
_ccdc_geom_bond_type
C1     H2      1.140   .     S
C1     C3      1.494   .     S
C1     O17     1.371   .     S
C1     O34     1.457   .     S
C3     H4      1.140   .     S
C3     C5      1.551   .     S
C3     O14     1.426   .     S
C5     H6      1.140   .     S
C5     C7      1.491   .     S
C5     O15     1.454   .     S
C7     H8      1.140   .     S
C7     C9      1.500   .     S
C7     O16     1.422   .     S
C9     H10     1.140   .     S
C9     C11     1.539   .     S
C9     O17     1.465   .     S
C11    H12     1.140   .     S
C11    H13     1.140   .     S
C11    O18     1.404   .     S
O14    H109    1.110   .     S
O15    H110    1.110   .     S
O16    C19     1.414   .     S
O18    H111    1.110   .     S
C19    H20     1.140   .     S
C19    C21     1.497   .     S
C19    O35     1.393   .     S
C21    H22     1.140   .     S
C21    C23     1.525   .     S
C21    O32     1.429   .     S
C23    H24     1.140   .     S
C23    C25     1.535   .     S
C23    O33     1.447   .     S
C25    H26     1.140   .     S
C25    C27     1.492   .     S
C25    O34     1.438   3_545 S
C27    H28     1.140   .     S
C27    C29     1.520   .     S
C27    O35     1.422   .     S
C29    H30     1.140   .     S
C29    H31     1.140   .     S
C29    O36     1.393   .     S
O32    H112    1.110   .     S
O33    H113    1.110   .     S
O34    C25     1.438   4     S
O36    H114    1.110   .     S
C37    H38     1.140   .     S
C37    C39     1.536   .     S
C37    O53     1.387   .     S
C37    O70     1.417   .     S
C39    H40     1.140   .     S
C39    C41     1.470   .     S
C39    O50     1.437   .     S
C41    H42     1.140   .     S
C41    C43     1.531   .     S
C41    O51     1.470   .     S
C43    H44     1.140   .     S
C43    C45     1.565   .     S
C43    O52     1.374   .     S
C45    H46     1.140   .     S
C45    C47     1.529   .     S
C45    O53     1.436   .     S
C47    H48     1.140   .     S
C47    H49     1.140   .     S
C47    O54     1.426   .     S
O50    H115    1.110   .     S
O51    H116    1.110   .     S
O52    C55     1.449   .     S
O54    H117    1.110   .     S
C55    H56     1.140   .     S
C55    C57     1.513   .     S
C55    O71     1.405   .     S
C57    H58     1.140   .     S
C57    C59     1.476   .     S
C57    O68     1.414   .     S
C59    H60     1.140   .     S
C59    C61     1.511   .     S
C59    O69     1.418   .     S
C61    H62     1.140   .     S
C61    C63     1.508   .     S
C61    O70     1.471   4     S
C63    H64     1.140   .     S
C63    C65     1.524   .     S
C63    O71     1.442   .     S
C65    H66     1.140   .     S
C65    H67     1.140   .     S
C65    O72     1.403   .     S
O68    H118    1.110   .     S
O69    H119    1.110   .     S
O70    C61     1.471   3_545 S
O72    H120    1.110   .     S
C73    H74     1.140   .     S
C73    C75     1.518   .     S
C73    O89     1.396   .     S
C73    O106    1.392   .     S
C75    H76     1.140   .     S
C75    C77     1.556   .     S
C75    O86     1.428   .     S
C77    H78     1.140   .     S
C77    C79     1.485   .     S
C77    O87     1.428   .     S
C79    H80     1.140   .     S
C79    C81     1.542   .     S
C79    O88     1.427   .     S
C81    H82     1.140   .     S
C81    C83     1.528   .     S
C81    O89     1.431   .     S
C83    H84     1.140   .     S
C83    H85     1.140   .     S
C83    O90     1.419   .     S
O86    H121    1.110   .     S
O87    H122    1.110   .     S
O88    C91     1.381   .     S
O90    H123    1.110   .     S
C91    H92     1.140   .     S
C91    C93     1.532   .     S
C91    O107    1.439   .     S
C93    H94     1.140   .     S
C93    C95     1.515   .     S
C93    O104    1.473   .     S
C95    H96     1.140   .     S
C95    C97     1.571   .     S
C95    O105    1.428   .     S
C97    H98     1.140   .     S
C97    C99     1.532   .     S
C97    O106    1.435   4     S
C99    H100    1.140   .     S
C99    C101    1.515   .     S
C99    O107    1.468   .     S
C101   H102    1.140   .     S
C101   H103    1.140   .     S
C101   O108    1.411   .     S
O104   H124    1.110   .     S
O105   H125    1.110   .     S
O106   C97     1.435   3_545 S
O108   H126    1.110   .     S
