data_image0
_cell_length_a       13.171
_cell_length_b       20.108
_cell_length_c       15.371
_cell_angle_alpha    90
_cell_angle_beta     100.14
_cell_angle_gamma    90

_symmetry_space_group_name_H-M    "P 1"
_symmetry_int_tables_number       1

loop_
  _symmetry_equiv_pos_as_xyz
  'x, y, z'

loop_
  _atom_site_label
  _atom_site_occupancy
  _atom_site_fract_x
  _atom_site_fract_y
  _atom_site_fract_z
  _atom_site_thermal_displace_type
  _atom_site_B_iso_or_equiv
  _atom_site_type_symbol
  C1       1.0000 0.59851  0.41511  0.56057  Biso   1.000  C
  C2       1.0000 0.53811  0.36110  0.52343  Biso   1.000  C
  C3       1.0000 0.67972  0.44460  0.51352  Biso   1.000  C
  C4       1.0000 0.57843  0.43938  0.64021  Biso   1.000  C
  O1       1.0000 0.55570  0.33812  0.44201  Biso   1.000  O
  C5       1.0000 0.46382  0.33221  0.56500  Biso   1.000  C
  C6       1.0000 0.78653  0.41471  0.54670  Biso   1.000  C
  H1       1.0000 0.66035  0.43182  0.44987  Biso   1.000  H
  C7       1.0000 0.68176  0.52119  0.51643  Biso   1.000  C
  C8       1.0000 0.50316  0.41411  0.68330  Biso   1.000  C
  H2       1.0000 0.61881  0.47548  0.66678  Biso   1.000  H
  C9       1.0000 0.47263  0.29570  0.39760  Biso   1.000  C
  C10      1.0000 0.40034  0.27362  0.52469  Biso   1.000  C
  C11      1.0000 0.44774  0.35812  0.64490  Biso   1.000  C
  C12      1.0000 0.82216  0.36090  0.50281  Biso   1.000  C
  C13      1.0000 0.85132  0.44012  0.62072  Biso   1.000  C
  H3       1.0000 0.61087  0.53819  0.49693  Biso   1.000  H
  H4       1.0000 0.70521  0.53591  0.57809  Biso   1.000  H
  C14      1.0000 0.75205  0.55078  0.45833  Biso   1.000  C
  C15      1.0000 0.47928  0.44490  0.76810  Biso   1.000  C
  N1       1.0000 0.44565  0.24468  0.45219  Biso   1.000  N
  H5       1.0000 0.41110  0.32350  0.37678  Biso   1.000  H
  H6       1.0000 0.49408  0.27541  0.34499  Biso   1.000  H
  H7       1.0000 0.39770  0.23941  0.57062  Biso   1.000  H
  H8       1.0000 0.32892  0.28829  0.50189  Biso   1.000  H
  O2       1.0000 0.37347  0.32639  0.68324  Biso   1.000  O
  O3       1.0000 0.76532  0.33052  0.43124  Biso   1.000  O
  C16      1.0000 0.92146  0.33469  0.53083  Biso   1.000  C
  C17      1.0000 0.95066  0.41600  0.65118  Biso   1.000  C
  H9       1.0000 0.82683  0.47568  0.65191  Biso   1.000  H
  H10      1.0000 0.82384  0.53988  0.48292  Biso   1.000  H
  H11      1.0000 0.74350  0.59921  0.45589  Biso   1.000  H
  H12      1.0000 0.73415  0.53238  0.39852  Biso   1.000  H
  C18      1.0000 0.54946  0.41600  0.84879  Biso   1.000  C
  H13      1.0000 0.40684  0.43232  0.77252  Biso   1.000  H
  C19      1.0000 0.48356  0.52218  0.76492  Biso   1.000  C
  C20      1.0000 0.51569  0.19062  0.47267  Biso   1.000  C
  H14      1.0000 0.36855  0.34519  0.73102  Biso   1.000  H
  H15      1.0000 0.71500  0.34300  0.43097  Biso   1.000  H
  C21      1.0000 0.98373  0.36319  0.60373  Biso   1.000  C
  C22      1.0000 0.95757  0.27561  0.48193  Biso   1.000  C
  C23      1.0000 0.02085  0.44490  0.73188  Biso   1.000  C
  C24      1.0000 0.51633  0.36319  0.89631  Biso   1.000  C
  C25      1.0000 0.64874  0.44012  0.87933  Biso   1.000  C
  H16      1.0000 0.55575  0.53640  0.76631  Biso   1.000  H
  H17      1.0000 0.44226  0.53790  0.70842  Biso   1.000  H
  C26      1.0000 0.44312  0.55431  0.84080  Biso   1.000  C
  C27      1.0000 0.48994  0.13900  0.52508  Biso   1.000  C
  C28      1.0000 0.60654  0.18629  0.43963  Biso   1.000  C
  O4       1.0000 0.08212  0.33797  0.63473  Biso   1.000  O
  H18      1.0000 0.90100  0.24269  0.46858  Biso   1.000  H
  H19      1.0000 0.97530  0.29078  0.42522  Biso   1.000  H
  N2       1.0000 0.04716  0.24468  0.53553  Biso   1.000  N
  C29      1.0000 0.99698  0.41411  0.81674  Biso   1.000  C
  H20      1.0000 0.09322  0.43232  0.72752  Biso   1.000  H
  C30      1.0000 0.01658  0.52218  0.73512  Biso   1.000  C
  O5       1.0000 0.41794  0.33797  0.86531  Biso   1.000  O
  C31      1.0000 0.57868  0.33469  0.96921  Biso   1.000  C
  C32      1.0000 0.71359  0.41471  0.95328  Biso   1.000  C
  H21      1.0000 0.67323  0.47568  0.84813  Biso   1.000  H
  H22      1.0000 0.37127  0.54078  0.83921  Biso   1.000  H
  H23      1.0000 0.44678  0.60279  0.83571  Biso   1.000  H
  H24      1.0000 0.48508  0.53998  0.89684  Biso   1.000  H
  H25      1.0000 0.42965  0.14218  0.55093  Biso   1.000  H
  C33      1.0000 0.55224  0.08250  0.54009  Biso   1.000  C
  C34      1.0000 0.66757  0.12920  0.45582  Biso   1.000  C
  H26      1.0000 0.62719  0.22190  0.40599  Biso   1.000  H
  C35      1.0000 0.11934  0.29471  0.57121  Biso   1.000  C
  C36      1.0000 0.03091  0.18992  0.59058  Biso   1.000  C
  C37      1.0000 0.92163  0.43938  0.85983  Biso   1.000  C
  C38      1.0000 0.05240  0.35812  0.85514  Biso   1.000  C
  H27      1.0000 0.94431  0.53640  0.73373  Biso   1.000  H
  H28      1.0000 0.05787  0.53790  0.79162  Biso   1.000  H
  C39      1.0000 0.05693  0.55431  0.65918  Biso   1.000  C
  C40      1.0000 0.38072  0.29471  0.92883  Biso   1.000  C
  C41      1.0000 0.67798  0.36090  0.99723  Biso   1.000  C
  C42      1.0000 0.54249  0.27561  0.01811  Biso   1.000  C
  C43      1.0000 0.82034  0.44460  0.98652  Biso   1.000  C
  H29      1.0000 0.53306  0.04720  0.57498  Biso   1.000  H
  C44      1.0000 0.64073  0.07728  0.50519  Biso   1.000  C
  H30      1.0000 0.72926  0.12632  0.43203  Biso   1.000  H
  H31      1.0000 0.13606  0.32221  0.52218  Biso   1.000  H
  H32      1.0000 0.18388  0.27288  0.60043  Biso   1.000  H
  C45      1.0000 0.96801  0.13820  0.55231  Biso   1.000  C
  C46      1.0000 0.08003  0.18311  0.67590  Biso   1.000  C
  C47      1.0000 0.90154  0.41511  0.93940  Biso   1.000  C
  H33      1.0000 0.88123  0.47548  0.83319  Biso   1.000  H
  O6       1.0000 0.12667  0.32639  0.81680  Biso   1.000  O
  C48      1.0000 0.03624  0.33221  0.93504  Biso   1.000  C
  H34      1.0000 0.12887  0.54078  0.66083  Biso   1.000  H
  H35      1.0000 0.05336  0.60279  0.66434  Biso   1.000  H
  H36      1.0000 0.01506  0.53998  0.60320  Biso   1.000  H
  N3       1.0000 0.45297  0.24468  0.96452  Biso   1.000  N
  H37      1.0000 0.36406  0.32221  0.97780  Biso   1.000  H
  H38      1.0000 0.31626  0.27288  0.89962  Biso   1.000  H
  O7       1.0000 0.73467  0.33052  0.06881  Biso   1.000  O
  H39      1.0000 0.59897  0.24269  0.03140  Biso   1.000  H
  H40      1.0000 0.52468  0.29078  0.07482  Biso   1.000  H
  C49      1.0000 0.81837  0.52119  0.98362  Biso   1.000  C
  H41      1.0000 0.83970  0.43182  0.05010  Biso   1.000  H
  N4       1.0000 0.70373  0.01850  0.51914  Biso   1.000  N
  H42      1.0000 0.93562  0.14149  0.49224  Biso   1.000  H
  C50      1.0000 0.95167  0.08141  0.60102  Biso   1.000  C
  C51      1.0000 0.06587  0.12672  0.72448  Biso   1.000  C
  H43      1.0000 0.12453  0.21738  0.70254  Biso   1.000  H
  C52      1.0000 0.96195  0.36110  0.97661  Biso   1.000  C
  H44      1.0000 0.13158  0.34519  0.76902  Biso   1.000  H
  C53      1.0000 0.09978  0.27362  0.97529  Biso   1.000  C
  C54      1.0000 0.46913  0.18992  0.90940  Biso   1.000  C
  H45      1.0000 0.78497  0.34300  0.06900  Biso   1.000  H
  H46      1.0000 0.79483  0.53591  0.92189  Biso   1.000  H
  H47      1.0000 0.88919  0.53819  0.00311  Biso   1.000  H
  C55      1.0000 0.74801  0.55078  0.04171  Biso   1.000  C
  H48      1.0000 0.73903  0.01089  0.57234  Biso   1.000  H
  C56      1.0000 0.71089  0.97528  0.45569  Biso   1.000  C
  H49      1.0000 0.90714  0.04710  0.57459  Biso   1.000  H
  C57      1.0000 0.00074  0.07589  0.68760  Biso   1.000  C
  H50      1.0000 0.10111  0.12279  0.78369  Biso   1.000  H
  O8       1.0000 0.94428  0.33812  0.05803  Biso   1.000  O
  H51      1.0000 0.10236  0.23941  0.92942  Biso   1.000  H
  H52      1.0000 0.17113  0.28829  0.99809  Biso   1.000  H
  N5       1.0000 0.05440  0.24468  0.04779  Biso   1.000  N
  C58      1.0000 0.53205  0.13820  0.94773  Biso   1.000  C
  C59      1.0000 0.42003  0.18311  0.82414  Biso   1.000  C
  H53      1.0000 0.67622  0.53988  0.01712  Biso   1.000  H
  H54      1.0000 0.75647  0.59921  0.04409  Biso   1.000  H
  H55      1.0000 0.76591  0.53238  0.10152  Biso   1.000  H
  O9       1.0000 0.66165  0.98150  0.38008  Biso   1.000  O
  C60      1.0000 0.78420  0.91879  0.48028  Biso   1.000  C
  N6       1.0000 0.99001  0.01920  0.73961  Biso   1.000  N
  C61      1.0000 0.02742  0.29570  0.10238  Biso   1.000  C
  C62      1.0000 0.98428  0.19062  0.02730  Biso   1.000  C
  C63      1.0000 0.54847  0.08141  0.89902  Biso   1.000  C
  H56      1.0000 0.56436  0.14149  0.00780  Biso   1.000  H
  C64      1.0000 0.43426  0.12672  0.77550  Biso   1.000  C
  H57      1.0000 0.37553  0.21738  0.79751  Biso   1.000  H
  H58      1.0000 0.75741  0.87890  0.44743  Biso   1.000  H
  H59      1.0000 0.79171  0.91019  0.54379  Biso   1.000  H
  H60      1.0000 0.85167  0.93028  0.46574  Biso   1.000  H
  C65      1.0000 0.90814  0.97832  0.73320  Biso   1.000  C
  H61      1.0000 0.04303  0.00950  0.78112  Biso   1.000  H
  H62      1.0000 0.08887  0.32350  0.12320  Biso   1.000  H
  H63      1.0000 0.00589  0.27541  0.15499  Biso   1.000  H
  C66      1.0000 0.89352  0.18629  0.06041  Biso   1.000  C
  C67      1.0000 0.01019  0.13900  0.97489  Biso   1.000  C
  H64      1.0000 0.59299  0.04710  0.92539  Biso   1.000  H
  C68      1.0000 0.49931  0.07589  0.81238  Biso   1.000  C
  H65      1.0000 0.39893  0.12279  0.71628  Biso   1.000  H
  O10      1.0000 0.83053  0.98548  0.67769  Biso   1.000  O
  C69      1.0000 0.91467  0.92272  0.79638  Biso   1.000  C
  C70      1.0000 0.83249  0.12920  0.04422  Biso   1.000  C
  H66      1.0000 0.87279  0.22190  0.09399  Biso   1.000  H
  C71      1.0000 0.94788  0.08250  0.95989  Biso   1.000  C
  H67      1.0000 0.07049  0.14218  0.94912  Biso   1.000  H
  N7       1.0000 0.51005  0.01920  0.76043  Biso   1.000  N
  H68      1.0000 0.84778  0.91690  0.81522  Biso   1.000  H
  H69      1.0000 0.96756  0.93241  0.84800  Biso   1.000  H
  H70      1.0000 0.93276  0.88179  0.76803  Biso   1.000  H
  C72      1.0000 0.85939  0.07728  0.99478  Biso   1.000  C
  H71      1.0000 0.77080  0.12632  0.06801  Biso   1.000  H
  H72      1.0000 0.96706  0.04720  0.92499  Biso   1.000  H
  H73      1.0000 0.45703  0.00950  0.71893  Biso   1.000  H
  C73      1.0000 0.59191  0.97832  0.76677  Biso   1.000  C
  N8       1.0000 0.79633  0.01850  0.98091  Biso   1.000  N
  O11      1.0000 0.66952  0.98548  0.82229  Biso   1.000  O
  C74      1.0000 0.58545  0.92272  0.70359  Biso   1.000  C
  H74      1.0000 0.76103  0.01089  0.92770  Biso   1.000  H
  C75      1.0000 0.78908  0.97528  0.04429  Biso   1.000  C
  H75      1.0000 0.65236  0.91690  0.68482  Biso   1.000  H
  H76      1.0000 0.53256  0.93241  0.65198  Biso   1.000  H
  H77      1.0000 0.56738  0.88179  0.73201  Biso   1.000  H
  O12      1.0000 0.83840  0.98150  0.11989  Biso   1.000  O
  C76      1.0000 0.71577  0.91879  0.01970  Biso   1.000  C
  H78      1.0000 0.70834  0.91019  0.95619  Biso   1.000  H
  H79      1.0000 0.74258  0.87890  0.05261  Biso   1.000  H
  H80      1.0000 0.64839  0.93028  0.03431  Biso   1.000  H
  C77      1.0000 0.40150  0.58489  0.43943  Biso   1.000  C
  C78      1.0000 0.42166  0.56062  0.35979  Biso   1.000  C
  C79      1.0000 0.46190  0.63890  0.47657  Biso   1.000  C
  C80      1.0000 0.32036  0.55540  0.48649  Biso   1.000  C
  C81      1.0000 0.49693  0.58589  0.31670  Biso   1.000  C
  H81      1.0000 0.38120  0.52452  0.33323  Biso   1.000  H
  C82      1.0000 0.53619  0.66779  0.43500  Biso   1.000  C
  O13      1.0000 0.44431  0.66188  0.55800  Biso   1.000  O
  C83      1.0000 0.21355  0.58529  0.45331  Biso   1.000  C
  H82      1.0000 0.33974  0.56818  0.55013  Biso   1.000  H
  C84      1.0000 0.31832  0.47881  0.48358  Biso   1.000  C
  C85      1.0000 0.52081  0.55510  0.23191  Biso   1.000  C
  C86      1.0000 0.55235  0.64188  0.35510  Biso   1.000  C
  C87      1.0000 0.59975  0.72638  0.47532  Biso   1.000  C
  C88      1.0000 0.52746  0.70430  0.60241  Biso   1.000  C
  C89      1.0000 0.17793  0.63910  0.49719  Biso   1.000  C
  C90      1.0000 0.14869  0.55988  0.37929  Biso   1.000  C
  H83      1.0000 0.38922  0.46181  0.50308  Biso   1.000  H
  H84      1.0000 0.29480  0.46409  0.42192  Biso   1.000  H
  C91      1.0000 0.24803  0.44922  0.54167  Biso   1.000  C
  C92      1.0000 0.51653  0.47782  0.23508  Biso   1.000  C
  C93      1.0000 0.45063  0.58400  0.15121  Biso   1.000  C
  H85      1.0000 0.59324  0.56768  0.22748  Biso   1.000  H
  O14      1.0000 0.62663  0.67361  0.31683  Biso   1.000  O
  N9       1.0000 0.55444  0.75532  0.54782  Biso   1.000  N
  H86      1.0000 0.60231  0.76059  0.42939  Biso   1.000  H
  H87      1.0000 0.67117  0.71171  0.49812  Biso   1.000  H
  H88      1.0000 0.58891  0.67650  0.62323  Biso   1.000  H
  H89      1.0000 0.50593  0.72459  0.65502  Biso   1.000  H
  O15      1.0000 0.23471  0.66948  0.56884  Biso   1.000  O
  C94      1.0000 0.07863  0.66531  0.46917  Biso   1.000  C
  C95      1.0000 0.04942  0.58400  0.34882  Biso   1.000  C
  H90      1.0000 0.17318  0.52432  0.34810  Biso   1.000  H
  H91      1.0000 0.17624  0.46012  0.51709  Biso   1.000  H
  H92      1.0000 0.25651  0.40079  0.54412  Biso   1.000  H
  H93      1.0000 0.26594  0.46762  0.60148  Biso   1.000  H
  H94      1.0000 0.44434  0.46360  0.23369  Biso   1.000  H
  H95      1.0000 0.55782  0.46210  0.29159  Biso   1.000  H
  C96      1.0000 0.55689  0.44569  0.15921  Biso   1.000  C
  C97      1.0000 0.48368  0.63681  0.10369  Biso   1.000  C
  C98      1.0000 0.35127  0.55988  0.12068  Biso   1.000  C
  H96      1.0000 0.63153  0.65481  0.26899  Biso   1.000  H
  C99      1.0000 0.48432  0.80938  0.52733  Biso   1.000  C
  H97      1.0000 0.28501  0.65700  0.56903  Biso   1.000  H
  C100     1.0000 0.01635  0.63681  0.39627  Biso   1.000  C
  C101     1.0000 0.04252  0.72439  0.51808  Biso   1.000  C
  C102     1.0000 0.97924  0.55510  0.26813  Biso   1.000  C
  H98      1.0000 0.62882  0.45922  0.16080  Biso   1.000  H
  H99      1.0000 0.55331  0.39721  0.16430  Biso   1.000  H
  H100     1.0000 0.51502  0.46002  0.10323  Biso   1.000  H
  C103     1.0000 0.42141  0.66531  0.03080  Biso   1.000  C
  O16      1.0000 0.58207  0.66203  0.13469  Biso   1.000  O
  C104     1.0000 0.28650  0.58529  0.04673  Biso   1.000  C
  H101     1.0000 0.32678  0.52432  0.15187  Biso   1.000  H
  C105     1.0000 0.51015  0.86100  0.47492  Biso   1.000  C
  C106     1.0000 0.39355  0.81371  0.56038  Biso   1.000  C
  O17      1.0000 0.91789  0.66203  0.36528  Biso   1.000  O
  H102     1.0000 0.09901  0.75731  0.53143  Biso   1.000  H
  H103     1.0000 0.02471  0.70922  0.57478  Biso   1.000  H
  N10      1.0000 0.95292  0.75532  0.46448  Biso   1.000  N
  C107     1.0000 0.00312  0.58589  0.18333  Biso   1.000  C
  H104     1.0000 0.90679  0.56768  0.27249  Biso   1.000  H
  C108     1.0000 0.98351  0.47782  0.26489  Biso   1.000  C
  C109     1.0000 0.32211  0.63910  0.00278  Biso   1.000  C
  C110     1.0000 0.45760  0.72439  0.98189  Biso   1.000  C
  C111     1.0000 0.61929  0.70529  0.07118  Biso   1.000  C
  C112     1.0000 0.17967  0.55540  0.01348  Biso   1.000  C
  H105     1.0000 0.57044  0.85782  0.44908  Biso   1.000  H
  C113     1.0000 0.44785  0.91750  0.45992  Biso   1.000  C
  C114     1.0000 0.33252  0.87080  0.54418  Biso   1.000  C
  H106     1.0000 0.37283  0.77810  0.59402  Biso   1.000  H
  C115     1.0000 0.88075  0.70529  0.42879  Biso   1.000  C
  C116     1.0000 0.96910  0.81008  0.40943  Biso   1.000  C
  C117     1.0000 0.07838  0.56062  0.14018  Biso   1.000  C
  C118     1.0000 0.94769  0.64188  0.14487  Biso   1.000  C
  H107     1.0000 0.05570  0.46360  0.26628  Biso   1.000  H
  H108     1.0000 0.94221  0.46210  0.20838  Biso   1.000  H
  C119     1.0000 0.94316  0.44569  0.34083  Biso   1.000  C
  O18      1.0000 0.26534  0.66948  0.93120  Biso   1.000  O
  N11      1.0000 0.54711  0.75532  0.03549  Biso   1.000  N
  H109     1.0000 0.40111  0.75731  0.96861  Biso   1.000  H
  H110     1.0000 0.47540  0.70922  0.92519  Biso   1.000  H
  H111     1.0000 0.63603  0.67779  0.02221  Biso   1.000  H
  H112     1.0000 0.68383  0.72712  0.10039  Biso   1.000  H
  C120     1.0000 0.09847  0.58489  0.06060  Biso   1.000  C
  C121     1.0000 0.18171  0.47881  0.01639  Biso   1.000  C
  H113     1.0000 0.16039  0.56818  0.94990  Biso   1.000  H
  H114     1.0000 0.46702  0.95280  0.42502  Biso   1.000  H
  C122     1.0000 0.35935  0.92272  0.49481  Biso   1.000  C
  H115     1.0000 0.27082  0.87368  0.56798  Biso   1.000  H
  H116     1.0000 0.86402  0.67779  0.47783  Biso   1.000  H
  H117     1.0000 0.81621  0.72712  0.39958  Biso   1.000  H
  C123     1.0000 0.03200  0.86180  0.44769  Biso   1.000  C
  C124     1.0000 0.92006  0.81689  0.32410  Biso   1.000  C
  H118     1.0000 0.11878  0.52452  0.16681  Biso   1.000  H
  C125     1.0000 0.96378  0.66779  0.06503  Biso   1.000  C
  O19      1.0000 0.87342  0.67361  0.18320  Biso   1.000  O
  H119     1.0000 0.87122  0.45922  0.33917  Biso   1.000  H
  H120     1.0000 0.94673  0.39721  0.33567  Biso   1.000  H
  H121     1.0000 0.98503  0.46002  0.39680  Biso   1.000  H
  H122     1.0000 0.21504  0.65700  0.93100  Biso   1.000  H
  C126     1.0000 0.53088  0.81008  0.09061  Biso   1.000  C
  C127     1.0000 0.03814  0.63890  0.02340  Biso   1.000  C
  H123     1.0000 0.20518  0.46409  0.07812  Biso   1.000  H
  H124     1.0000 0.11089  0.46181  0.99689  Biso   1.000  H
  C128     1.0000 0.25208  0.44922  0.95830  Biso   1.000  C
  N12      1.0000 0.29637  0.98150  0.48094  Biso   1.000  N
  H125     1.0000 0.06440  0.85851  0.50783  Biso   1.000  H
  C129     1.0000 0.04842  0.91859  0.39898  Biso   1.000  C
  C130     1.0000 0.93422  0.87328  0.27553  Biso   1.000  C
  H126     1.0000 0.87548  0.78262  0.29747  Biso   1.000  H
  C131     1.0000 0.90030  0.72638  0.02472  Biso   1.000  C
  H127     1.0000 0.86850  0.65481  0.23098  Biso   1.000  H
  C132     1.0000 0.46803  0.86180  0.05228  Biso   1.000  C
  C133     1.0000 0.57999  0.81689  0.17593  Biso   1.000  C
  O20      1.0000 0.05580  0.66188  0.94197  Biso   1.000  O
  H128     1.0000 0.32387  0.46012  0.98288  Biso   1.000  H
  H129     1.0000 0.24354  0.40079  0.95592  Biso   1.000  H
  H130     1.0000 0.23417  0.46762  0.89849  Biso   1.000  H
  H131     1.0000 0.26107  0.98911  0.42773  Biso   1.000  H
  C134     1.0000 0.28912  0.02472  0.54432  Biso   1.000  C
  H132     1.0000 0.09295  0.95290  0.42542  Biso   1.000  H
  C135     1.0000 0.99935  0.92411  0.31241  Biso   1.000  C
  H133     1.0000 0.89890  0.87721  0.21631  Biso   1.000  H
  N13      1.0000 0.94569  0.75532  0.95222  Biso   1.000  N
  H134     1.0000 0.89773  0.76059  0.07058  Biso   1.000  H
  H135     1.0000 0.82888  0.71171  0.00192  Biso   1.000  H
  C136     1.0000 0.45162  0.91859  0.10099  Biso   1.000  C
  H136     1.0000 0.43565  0.85851  0.99220  Biso   1.000  H
  C137     1.0000 0.56583  0.87328  0.22451  Biso   1.000  C
  H137     1.0000 0.62448  0.78262  0.20250  Biso   1.000  H
  C138     1.0000 0.97266  0.70430  0.89763  Biso   1.000  C
  O21      1.0000 0.33844  0.01850  0.61992  Biso   1.000  O
  C139     1.0000 0.21581  0.08121  0.51973  Biso   1.000  C
  N14      1.0000 0.01000  0.98080  0.26039  Biso   1.000  N
  C140     1.0000 0.01580  0.80938  0.97270  Biso   1.000  C
  H138     1.0000 0.40710  0.95290  0.07462  Biso   1.000  H
  C141     1.0000 0.50070  0.92411  0.18763  Biso   1.000  C
  H139     1.0000 0.60115  0.87721  0.28372  Biso   1.000  H
  H140     1.0000 0.91114  0.67650  0.87681  Biso   1.000  H
  H141     1.0000 0.99420  0.72459  0.84502  Biso   1.000  H
  H142     1.0000 0.24260  0.12110  0.55258  Biso   1.000  H
  H143     1.0000 0.20830  0.08981  0.45622  Biso   1.000  H
  H144     1.0000 0.14843  0.06972  0.53434  Biso   1.000  H
  H145     1.0000 0.95698  0.99050  0.21889  Biso   1.000  H
  C142     1.0000 0.09194  0.02168  0.26680  Biso   1.000  C
  C143     1.0000 0.98990  0.86100  0.02511  Biso   1.000  C
  C144     1.0000 0.10656  0.81371  0.93959  Biso   1.000  C
  N15      1.0000 0.49004  0.98080  0.23958  Biso   1.000  N
  O22      1.0000 0.16956  0.01452  0.32232  Biso   1.000  O
  C145     1.0000 0.08542  0.07728  0.20362  Biso   1.000  C
  C146     1.0000 0.05220  0.91750  0.04012  Biso   1.000  C
  H146     1.0000 0.92960  0.85782  0.05089  Biso   1.000  H
  C147     1.0000 0.16759  0.87080  0.95579  Biso   1.000  C
  H147     1.0000 0.12730  0.77810  0.90602  Biso   1.000  H
  H148     1.0000 0.54298  0.99050  0.28108  Biso   1.000  H
  C148     1.0000 0.40811  0.02168  0.23323  Biso   1.000  C
  H149     1.0000 0.15231  0.08310  0.18479  Biso   1.000  H
  H150     1.0000 0.03252  0.06759  0.15201  Biso   1.000  H
  H151     1.0000 0.06733  0.11821  0.23198  Biso   1.000  H
  H152     1.0000 0.03303  0.95280  0.07501  Biso   1.000  H
  C149     1.0000 0.14070  0.92272  0.00522  Biso   1.000  C
  H153     1.0000 0.22929  0.87368  0.93199  Biso   1.000  H
  O23      1.0000 0.33049  0.01452  0.17772  Biso   1.000  O
  C150     1.0000 0.41463  0.07728  0.29641  Biso   1.000  C
  N16      1.0000 0.20368  0.98150  0.01910  Biso   1.000  N
  H154     1.0000 0.34773  0.08310  0.31518  Biso   1.000  H
  H155     1.0000 0.46753  0.06759  0.34803  Biso   1.000  H
  H156     1.0000 0.43271  0.11821  0.26799  Biso   1.000  H
  H157     1.0000 0.23898  0.98911  0.07230  Biso   1.000  H
  C151     1.0000 0.21101  0.02472  0.95572  Biso   1.000  C
  O24      1.0000 0.16169  0.01850  0.88011  Biso   1.000  O
  C152     1.0000 0.28424  0.08121  0.98031  Biso   1.000  C
  H158     1.0000 0.25751  0.12110  0.94739  Biso   1.000  H
  H159     1.0000 0.35170  0.06972  0.96570  Biso   1.000  H
  H160     1.0000 0.29167  0.08981  0.04382  Biso   1.000  H
  Ne1      1.0000 0.75004  0.24947  0.75001  Biso   1.000  Ne
  He1      1.0000 0.72431  0.21737  0.06518  Biso   1.000  He
  He2      1.0000 0.12103  0.21871  0.82350  Biso   1.000  He
  He3      1.0000 0.75018  0.48163  0.75012  Biso   1.000  He
  He4      1.0000 0.38099  0.21897  0.67686  Biso   1.000  He
  He5      1.0000 0.77276  0.22407  0.43723  Biso   1.000  He
  Ar1      1.0000 0.75043  0.23215  0.75055  Biso   1.000  Ar
  Ne2      1.0000 0.25003  0.75053  0.25000  Biso   1.000  Ne
  He6      1.0000 0.61005  0.78666  0.32438  Biso   1.000  He
  He7      1.0000 0.25018  0.51774  0.25011  Biso   1.000  He
  He8      1.0000 0.88835  0.78005  0.17798  Biso   1.000  He
  He9      1.0000 0.31844  0.91998  0.99206  Biso   1.000  He
  Ar2      1.0000 0.25018  0.76743  0.24977  Biso   1.000  Ar
