data_image0
_cell_length_a       12.473
_cell_length_b       14.546
_cell_length_c       17.781
_cell_angle_alpha    78.9
_cell_angle_beta     80.58
_cell_angle_gamma    74.37

_symmetry_space_group_name_H-M    "P 1"
_symmetry_int_tables_number       1

loop_
  _symmetry_equiv_pos_as_xyz
  'x, y, z'

loop_
  _atom_site_label
  _atom_site_occupancy
  _atom_site_fract_x
  _atom_site_fract_y
  _atom_site_fract_z
  _atom_site_thermal_displace_type
  _atom_site_B_iso_or_equiv
  _atom_site_type_symbol
  O1       1.0000 0.60473  0.38209  0.51293  Biso   1.000  O
  C1       1.0000 0.67670  0.38054  0.44090  Biso   1.000  C
  B1       1.0000 0.63371  0.43993  0.55518  Biso   1.000  B
  C2       1.0000 0.73887  0.27735  0.42578  Biso   1.000  C
  C3       1.0000 0.76592  0.43352  0.45071  Biso   1.000  C
  H1       1.0000 0.63339  0.41646  0.39710  Biso   1.000  H
  O2       1.0000 0.72366  0.47622  0.52038  Biso   1.000  O
  C4       1.0000 0.56948  0.46010  0.63524  Biso   1.000  C
  C5       1.0000 0.75188  0.27522  0.33851  Biso   1.000  C
  C6       1.0000 0.85366  0.26595  0.45048  Biso   1.000  C
  C7       1.0000 0.67916  0.20041  0.46988  Biso   1.000  C
  C8       1.0000 0.87022  0.35380  0.46122  Biso   1.000  C
  H2       1.0000 0.77740  0.48332  0.40489  Biso   1.000  H
  C9       1.0000 0.60226  0.51447  0.68060  Biso   1.000  C
  C10      1.0000 0.48060  0.41687  0.66721  Biso   1.000  C
  H3       1.0000 0.79635  0.21157  0.32778  Biso   1.000  H
  H4       1.0000 0.67767  0.28805  0.32149  Biso   1.000  H
  H5       1.0000 0.79000  0.32485  0.31069  Biso   1.000  H
  C11      1.0000 0.93740  0.18143  0.46105  Biso   1.000  C
  H6       1.0000 0.67533  0.19959  0.52552  Biso   1.000  H
  H7       1.0000 0.60307  0.21542  0.45550  Biso   1.000  H
  H8       1.0000 0.72086  0.13696  0.45701  Biso   1.000  H
  C12      1.0000 0.97125  0.35991  0.48177  Biso   1.000  C
  C13      1.0000 0.55011  0.52648  0.75535  Biso   1.000  C
  H9       1.0000 0.66203  0.54430  0.65988  Biso   1.000  H
  C14      1.0000 0.42541  0.42689  0.74115  Biso   1.000  C
  H10      1.0000 0.45736  0.37971  0.63749  Biso   1.000  H
  H11      1.0000 0.92699  0.12146  0.45412  Biso   1.000  H
  C15      1.0000 0.03734  0.18778  0.48223  Biso   1.000  C
  H12      1.0000 0.98214  0.42007  0.48812  Biso   1.000  H
  C16      1.0000 0.05480  0.27576  0.49267  Biso   1.000  C
  C17      1.0000 0.46145  0.48189  0.78438  Biso   1.000  C
  B2       1.0000 0.60272  0.56885  0.81024  Biso   1.000  B
  B3       1.0000 0.34392  0.36148  0.77918  Biso   1.000  B
  C18      1.0000 0.13469  0.10512  0.50410  Biso   1.000  C
  C19      1.0000 0.17197  0.26170  0.51455  Biso   1.000  C
  H13      1.0000 0.42464  0.48917  0.83477  Biso   1.000  H
  O3       1.0000 0.56601  0.56542  0.88763  Biso   1.000  O
  O4       1.0000 0.69709  0.60428  0.78825  Biso   1.000  O
  O5       1.0000 0.30231  0.31064  0.73838  Biso   1.000  O
  O6       1.0000 0.31817  0.34117  0.85745  Biso   1.000  O
  C20      1.0000 0.20271  0.15233  0.54451  Biso   1.000  C
  H14      1.0000 0.17944  0.07642  0.45851  Biso   1.000  H
  O7       1.0000 0.09593  0.03401  0.56361  Biso   1.000  O
  C21      1.0000 0.25038  0.28275  0.44050  Biso   1.000  C
  C22      1.0000 0.17914  0.32339  0.57325  Biso   1.000  C
  C23      1.0000 0.65732  0.57789  0.92313  Biso   1.000  C
  C24      1.0000 0.73128  0.62431  0.85664  Biso   1.000  C
  C25      1.0000 0.26222  0.23604  0.79384  Biso   1.000  C
  C26      1.0000 0.26319  0.26209  0.87453  Biso   1.000  C
  H15      1.0000 0.28519  0.12379  0.53458  Biso   1.000  H
  O8       1.0000 0.16101  0.13028  0.62542  Biso   1.000  O
  B4       1.0000 0.09905  0.06282  0.63235  Biso   1.000  B
  H16      1.0000 0.32705  0.27042  0.45320  Biso   1.000  H
  H17      1.0000 0.24879  0.24063  0.40402  Biso   1.000  H
  H18      1.0000 0.22534  0.35043  0.41712  Biso   1.000  H
  H19      1.0000 0.12932  0.30988  0.62040  Biso   1.000  H
  H20      1.0000 0.25644  0.30786  0.58548  Biso   1.000  H
  H21      1.0000 0.15625  0.39196  0.55149  Biso   1.000  H
  H22      1.0000 0.62990  0.61777  0.96561  Biso   1.000  H
  C27      1.0000 0.73272  0.48075  0.94933  Biso   1.000  C
  H23      1.0000 0.71670  0.69548  0.85629  Biso   1.000  H
  C28      1.0000 0.85403  0.57295  0.86703  Biso   1.000  C
  H24      1.0000 0.18627  0.23230  0.78559  Biso   1.000  H
  C29      1.0000 0.34707  0.14080  0.79246  Biso   1.000  C
  H25      1.0000 0.18523  0.28291  0.90056  Biso   1.000  H
  C30      1.0000 0.33226  0.17216  0.92330  Biso   1.000  C
  C31      1.0000 0.02876  0.03073  0.70848  Biso   1.000  C
  C32      1.0000 0.84180  0.47574  0.91291  Biso   1.000  C
  C33      1.0000 0.70199  0.40265  0.99787  Biso   1.000  C
  C34      1.0000 0.89618  0.62780  0.91834  Biso   1.000  C
  C35      1.0000 0.93012  0.56830  0.79078  Biso   1.000  C
  C36      1.0000 0.39077  0.10878  0.86305  Biso   1.000  C
  C37      1.0000 0.38660  0.09049  0.73030  Biso   1.000  C
  C38      1.0000 0.25494  0.11777  0.98021  Biso   1.000  C
  C39      1.0000 0.41301  0.19762  0.96798  Biso   1.000  C
  C40      1.0000 0.94855  0.97882  0.70744  Biso   1.000  C
  C41      1.0000 0.02727  0.06886  0.77555  Biso   1.000  C
  C42      1.0000 0.92273  0.38953  0.92336  Biso   1.000  C
  H26      1.0000 0.62780  0.40809  0.02298  Biso   1.000  H
  C43      1.0000 0.78317  0.31634  0.00844  Biso   1.000  C
  H27      1.0000 0.97110  0.59168  0.93110  Biso   1.000  H
  H28      1.0000 0.89941  0.69218  0.89029  Biso   1.000  H
  H29      1.0000 0.84449  0.63418  0.96601  Biso   1.000  H
  H30      1.0000 0.90297  0.53428  0.75817  Biso   1.000  H
  H31      1.0000 0.92963  0.63395  0.76429  Biso   1.000  H
  H32      1.0000 0.00673  0.53373  0.80077  Biso   1.000  H
  C44      1.0000 0.47418  0.02455  0.87361  Biso   1.000  C
  H33      1.0000 0.35677  0.11307  0.68239  Biso   1.000  H
  C45      1.0000 0.47070  0.00672  0.74069  Biso   1.000  C
  H34      1.0000 0.19866  0.10690  0.95257  Biso   1.000  H
  H35      1.0000 0.29955  0.05526  0.00342  Biso   1.000  H
  H36      1.0000 0.21735  0.15614  0.02090  Biso   1.000  H
  H37      1.0000 0.46056  0.23448  0.93208  Biso   1.000  H
  H38      1.0000 0.46025  0.13800  0.99320  Biso   1.000  H
  H39      1.0000 0.36990  0.23637  0.00711  Biso   1.000  H
  C46      1.0000 0.86895  0.96444  0.77070  Biso   1.000  C
  H40      1.0000 0.94863  0.95288  0.66231  Biso   1.000  H
  C47      1.0000 0.94867  0.05693  0.84019  Biso   1.000  C
  H41      1.0000 0.08107  0.10368  0.77711  Biso   1.000  H
  C48      1.0000 0.89171  0.31034  0.97052  Biso   1.000  C
  H42      1.0000 0.99742  0.38451  0.89900  Biso   1.000  H
  C49      1.0000 0.77206  0.22209  0.05963  Biso   1.000  C
  H43      1.0000 0.50432  0.00206  0.92140  Biso   1.000  H
  C50      1.0000 0.51251  0.97378  0.81202  Biso   1.000  C
  C51      1.0000 0.52766  0.93810  0.68349  Biso   1.000  C
  C52      1.0000 0.87119  0.00390  0.83650  Biso   1.000  C
  B5       1.0000 0.76833  0.92097  0.76776  Biso   1.000  B
  B6       1.0000 0.93878  0.10824  0.91141  Biso   1.000  B
  C53      1.0000 0.96230  0.20936  0.98679  Biso   1.000  C
  C54      1.0000 0.87921  0.14971  0.03152  Biso   1.000  C
  C55      1.0000 0.77944  0.23076  0.14378  Biso   1.000  C
  C56      1.0000 0.66462  0.19316  0.05461  Biso   1.000  C
  C57      1.0000 0.60289  0.88247  0.80949  Biso   1.000  C
  C58      1.0000 0.63084  0.87582  0.72268  Biso   1.000  C
  C59      1.0000 0.45148  0.87074  0.68078  Biso   1.000  C
  C60      1.0000 0.55781  0.99057  0.60286  Biso   1.000  C
  H44      1.0000 0.81817  0.99440  0.88030  Biso   1.000  H
  O9       1.0000 0.72912  0.91538  0.70109  Biso   1.000  O
  O10      1.0000 0.70453  0.89078  0.83378  Biso   1.000  O
  O11      1.0000 0.86179  0.09758  0.97467  Biso   1.000  O
  O12      1.0000 0.00511  0.16833  0.91626  Biso   1.000  O
  H45      1.0000 0.02397  0.20554  0.01761  Biso   1.000  H
  H46      1.0000 0.91247  0.10387  0.07608  Biso   1.000  H
  H47      1.0000 0.71602  0.28170  0.16110  Biso   1.000  H
  H48      1.0000 0.77695  0.16906  0.17709  Biso   1.000  H
  H49      1.0000 0.84985  0.24698  0.14661  Biso   1.000  H
  H50      1.0000 0.66057  0.18854  0.00088  Biso   1.000  H
  H51      1.0000 0.66489  0.13050  0.08699  Biso   1.000  H
  H52      1.0000 0.59949  0.24210  0.07268  Biso   1.000  H
  H53      1.0000 0.57729  0.82506  0.83950  Biso   1.000  H
  H54      1.0000 0.64848  0.80728  0.71362  Biso   1.000  H
  H55      1.0000 0.38100  0.90946  0.66202  Biso   1.000  H
  H56      1.0000 0.48957  0.82416  0.64591  Biso   1.000  H
  H57      1.0000 0.43574  0.83609  0.73272  Biso   1.000  H
  H58      1.0000 0.60693  0.03173  0.60592  Biso   1.000  H
  H59      1.0000 0.48917  0.03055  0.58202  Biso   1.000  H
  H60      1.0000 0.59654  0.94302  0.56892  Biso   1.000  H
  O13      1.0000 0.39511  0.61808  0.48708  Biso   1.000  O
  B7       1.0000 0.36616  0.56017  0.44483  Biso   1.000  B
  C61      1.0000 0.32317  0.61956  0.55905  Biso   1.000  C
  C62      1.0000 0.43038  0.54000  0.36477  Biso   1.000  C
  O14      1.0000 0.27620  0.52388  0.47963  Biso   1.000  O
  C63      1.0000 0.23395  0.56659  0.54924  Biso   1.000  C
  H61      1.0000 0.36656  0.58364  0.60291  Biso   1.000  H
  C64      1.0000 0.26099  0.72275  0.57423  Biso   1.000  C
  C65      1.0000 0.39768  0.48562  0.31941  Biso   1.000  C
  C66      1.0000 0.51934  0.58323  0.33280  Biso   1.000  C
  H62      1.0000 0.22255  0.51679  0.59507  Biso   1.000  H
  C67      1.0000 0.12974  0.64631  0.53873  Biso   1.000  C
  C68      1.0000 0.14620  0.73415  0.54953  Biso   1.000  C
  C69      1.0000 0.24798  0.72488  0.66150  Biso   1.000  C
  C70      1.0000 0.32071  0.79969  0.53013  Biso   1.000  C
  C71      1.0000 0.44984  0.47362  0.24466  Biso   1.000  C
  H63      1.0000 0.33785  0.45581  0.34007  Biso   1.000  H
  C72      1.0000 0.57452  0.57328  0.25886  Biso   1.000  C
  H64      1.0000 0.54256  0.62046  0.36252  Biso   1.000  H
  C73      1.0000 0.02862  0.64019  0.51819  Biso   1.000  C
  C74      1.0000 0.06246  0.81867  0.53896  Biso   1.000  C
  H65      1.0000 0.20350  0.78861  0.67218  Biso   1.000  H
  H66      1.0000 0.32221  0.71206  0.67847  Biso   1.000  H
  H67      1.0000 0.20994  0.67525  0.68932  Biso   1.000  H
  H68      1.0000 0.32451  0.80058  0.47449  Biso   1.000  H
  H69      1.0000 0.39679  0.78467  0.54451  Biso   1.000  H
  H70      1.0000 0.27901  0.86314  0.54300  Biso   1.000  H
  B8       1.0000 0.39715  0.43124  0.18977  Biso   1.000  B
  C75      1.0000 0.53849  0.51820  0.21563  Biso   1.000  C
  B9       1.0000 0.65594  0.63862  0.22083  Biso   1.000  B
  H71      1.0000 0.01773  0.58003  0.51189  Biso   1.000  H
  C76      1.0000 0.94515  0.72434  0.50734  Biso   1.000  C
  H72      1.0000 0.07295  0.87863  0.54589  Biso   1.000  H
  C77      1.0000 0.96262  0.81233  0.51772  Biso   1.000  C
  O15      1.0000 0.30286  0.39583  0.21171  Biso   1.000  O
  O16      1.0000 0.43394  0.43469  0.11232  Biso   1.000  O
  H73      1.0000 0.57523  0.51094  0.16519  Biso   1.000  H
  O17      1.0000 0.69755  0.68946  0.26163  Biso   1.000  O
  O18      1.0000 0.68169  0.65893  0.14256  Biso   1.000  O
  C78      1.0000 0.82791  0.73841  0.48540  Biso   1.000  C
  C79      1.0000 0.86526  0.89498  0.49591  Biso   1.000  C
  C80      1.0000 0.26858  0.37579  0.14337  Biso   1.000  C
  C81      1.0000 0.34256  0.42222  0.07682  Biso   1.000  C
  C82      1.0000 0.73765  0.76407  0.20611  Biso   1.000  C
  C83      1.0000 0.73667  0.73801  0.12548  Biso   1.000  C
  C84      1.0000 0.79725  0.84778  0.45545  Biso   1.000  C
  C85      1.0000 0.74947  0.71742  0.55951  Biso   1.000  C
  C86      1.0000 0.82073  0.67671  0.42676  Biso   1.000  C
  O19      1.0000 0.90402  0.96609  0.43640  Biso   1.000  O
  H74      1.0000 0.82043  0.92368  0.54150  Biso   1.000  H
  H75      1.0000 0.28317  0.30462  0.14372  Biso   1.000  H
  C87      1.0000 0.14583  0.42715  0.13298  Biso   1.000  C
  H76      1.0000 0.36996  0.38233  0.03440  Biso   1.000  H
  C88      1.0000 0.26723  0.51935  0.05068  Biso   1.000  C
  H77      1.0000 0.81367  0.76780  0.21442  Biso   1.000  H
  C89      1.0000 0.65281  0.85931  0.20749  Biso   1.000  C
  H78      1.0000 0.81464  0.71720  0.09939  Biso   1.000  H
  C90      1.0000 0.66761  0.82793  0.07671  Biso   1.000  C
  O20      1.0000 0.83894  0.86983  0.37453  Biso   1.000  O
  H79      1.0000 0.71475  0.87640  0.46537  Biso   1.000  H
  H80      1.0000 0.67281  0.72968  0.54681  Biso   1.000  H
  H81      1.0000 0.75115  0.75947  0.59599  Biso   1.000  H
  H82      1.0000 0.77452  0.64967  0.58289  Biso   1.000  H
  H83      1.0000 0.87054  0.69022  0.37961  Biso   1.000  H
  H84      1.0000 0.74343  0.69225  0.41447  Biso   1.000  H
  H85      1.0000 0.84361  0.60814  0.44852  Biso   1.000  H
  B10      1.0000 0.90080  0.93736  0.36760  Biso   1.000  B
  C91      1.0000 0.15814  0.52436  0.08710  Biso   1.000  C
  C92      1.0000 0.10377  0.37230  0.08167  Biso   1.000  C
  C93      1.0000 0.06974  0.43179  0.20923  Biso   1.000  C
  C94      1.0000 0.29787  0.59745  0.00214  Biso   1.000  C
  C95      1.0000 0.60910  0.89132  0.13696  Biso   1.000  C
  C96      1.0000 0.61328  0.90962  0.26966  Biso   1.000  C
  C97      1.0000 0.74501  0.88233  0.01980  Biso   1.000  C
  C98      1.0000 0.58693  0.80248  0.03203  Biso   1.000  C
  C99      1.0000 0.97119  0.96938  0.29147  Biso   1.000  C
  C100     1.0000 0.07713  0.61057  0.07665  Biso   1.000  C
  H86      1.0000 0.02877  0.40842  0.06891  Biso   1.000  H
  H87      1.0000 0.10045  0.30792  0.10972  Biso   1.000  H
  H88      1.0000 0.15538  0.36592  0.03400  Biso   1.000  H
  H89      1.0000 0.09699  0.46583  0.24178  Biso   1.000  H
  H90      1.0000 0.07024  0.36615  0.23572  Biso   1.000  H
  H91      1.0000 0.99313  0.46645  0.19918  Biso   1.000  H
  H92      1.0000 0.37214  0.59201  0.97703  Biso   1.000  H
  C101     1.0000 0.21678  0.68375  0.99157  Biso   1.000  C
  C102     1.0000 0.52569  0.97555  0.12640  Biso   1.000  C
  H93      1.0000 0.64318  0.88703  0.31762  Biso   1.000  H
  C103     1.0000 0.52917  0.99339  0.25927  Biso   1.000  C
  H94      1.0000 0.80130  0.89321  0.04739  Biso   1.000  H
  H95      1.0000 0.70032  0.94483  0.99659  Biso   1.000  H
  H96      1.0000 0.78251  0.84396  0.97911  Biso   1.000  H
  H97      1.0000 0.53940  0.76563  0.06788  Biso   1.000  H
  H98      1.0000 0.53969  0.86210  0.00681  Biso   1.000  H
  H99      1.0000 0.63005  0.76373  0.99290  Biso   1.000  H
  C104     1.0000 0.97269  0.93125  0.22440  Biso   1.000  C
  C105     1.0000 0.05133  0.02129  0.29251  Biso   1.000  C
  C106     1.0000 0.10815  0.68976  0.02949  Biso   1.000  C
  H100     1.0000 0.00245  0.61559  0.10101  Biso   1.000  H
  C107     1.0000 0.22782  0.77802  0.94032  Biso   1.000  C
  H101     1.0000 0.49554  0.99803  0.07861  Biso   1.000  H
  C108     1.0000 0.48743  0.02632  0.18799  Biso   1.000  C
  C109     1.0000 0.47221  0.06200  0.31652  Biso   1.000  C
  C110     1.0000 0.05120  0.94317  0.15982  Biso   1.000  C
  H102     1.0000 0.91888  0.89642  0.22290  Biso   1.000  H
  C111     1.0000 0.13098  0.03574  0.22925  Biso   1.000  C
  H103     1.0000 0.05124  0.04722  0.33770  Biso   1.000  H
  C112     1.0000 0.03757  0.79074  0.01322  Biso   1.000  C
  C113     1.0000 0.12075  0.85040  0.96843  Biso   1.000  C
  C114     1.0000 0.22051  0.76935  0.85617  Biso   1.000  C
  C115     1.0000 0.33532  0.80693  0.94540  Biso   1.000  C
  C116     1.0000 0.39707  0.11764  0.19047  Biso   1.000  C
  C117     1.0000 0.36910  0.12428  0.27733  Biso   1.000  C
  C118     1.0000 0.54838  0.12936  0.31923  Biso   1.000  C
  C119     1.0000 0.44214  0.00953  0.39715  Biso   1.000  C
  B11      1.0000 0.06118  0.89187  0.08854  Biso   1.000  B
  C120     1.0000 0.12868  0.99620  0.16351  Biso   1.000  C
  B12      1.0000 0.23162  0.07913  0.23225  Biso   1.000  B
  H104     1.0000 0.97589  0.79456  0.98240  Biso   1.000  H
  O21      1.0000 0.99476  0.83178  0.08369  Biso   1.000  O
  O22      1.0000 0.13808  0.90252  0.02534  Biso   1.000  O
  H105     1.0000 0.08739  0.89623  0.92393  Biso   1.000  H
  H106     1.0000 0.28384  0.71840  0.83891  Biso   1.000  H
  H107     1.0000 0.22292  0.83104  0.82292  Biso   1.000  H
  H108     1.0000 0.15002  0.75312  0.85340  Biso   1.000  H
  H109     1.0000 0.33930  0.81157  0.99908  Biso   1.000  H
  H110     1.0000 0.33503  0.86967  0.91302  Biso   1.000  H
  H111     1.0000 0.40044  0.75808  0.92728  Biso   1.000  H
  O23      1.0000 0.29540  0.10939  0.16623  Biso   1.000  O
  H112     1.0000 0.42266  0.17504  0.16051  Biso   1.000  H
  O24      1.0000 0.27075  0.08472  0.29892  Biso   1.000  O
  H113     1.0000 0.35147  0.19282  0.28639  Biso   1.000  H
  H114     1.0000 0.61895  0.09063  0.33799  Biso   1.000  H
  H115     1.0000 0.51030  0.17593  0.35410  Biso   1.000  H
  H116     1.0000 0.56410  0.16408  0.26729  Biso   1.000  H
  H117     1.0000 0.39293  0.96837  0.39409  Biso   1.000  H
  H118     1.0000 0.51077  0.96955  0.41799  Biso   1.000  H
  H119     1.0000 0.40333  0.05707  0.43109  Biso   1.000  H
  H120     1.0000 0.18177  0.00570  0.11971  Biso   1.000  H
  Ne1      1.0000 0.26792  0.75829  0.25561  Biso   1.000  Ne
  He1      1.0000 0.18889  0.96221  0.42509  Biso   1.000  He
  He2      1.0000 0.95753  0.69458  0.23404  Biso   1.000  He
  He3      1.0000 0.55514  0.59442  0.02496  Biso   1.000  He
  He4      1.0000 0.35350  0.85095  0.12585  Biso   1.000  He
  Ar1      1.0000 0.26850  0.75730  0.25599  Biso   1.000  Ar
  Ne2      1.0000 0.73198  0.24181  0.74438  Biso   1.000  Ne
  He5      1.0000 0.54789  0.35521  0.91723  Biso   1.000  He
  He6      1.0000 0.89763  0.49319  0.61936  Biso   1.000  He
  He7      1.0000 0.47008  0.22677  0.59099  Biso   1.000  He
  Ar2      1.0000 0.73247  0.24384  0.74479  Biso   1.000  Ar
