data_image0
_cell_length_a       14.356
_cell_length_b       37.538
_cell_length_c       9.4
_cell_angle_alpha    90
_cell_angle_beta     90
_cell_angle_gamma    90

_symmetry_space_group_name_H-M    "P 1"
_symmetry_int_tables_number       1

loop_
  _symmetry_equiv_pos_as_xyz
  'x, y, z'

loop_
  _atom_site_label
  _atom_site_occupancy
  _atom_site_fract_x
  _atom_site_fract_y
  _atom_site_fract_z
  _atom_site_thermal_displace_type
  _atom_site_B_iso_or_equiv
  _atom_site_type_symbol
  O1       1.0000 0.57237  0.49041  0.53213  Biso   1.000  O
  C1       1.0000 0.52173  0.47531  0.41681  Biso   1.000  C
  H1       1.0000 0.57203  0.47730  0.62489  Biso   1.000  H
  C2       1.0000 0.53831  0.43489  0.41883  Biso   1.000  C
  C3       1.0000 0.41913  0.48359  0.42702  Biso   1.000  C
  H2       1.0000 0.55022  0.48609  0.31617  Biso   1.000  H
  O2       1.0000 0.50787  0.42211  0.55500  Biso   1.000  O
  O3       1.0000 0.48579  0.41840  0.30957  Biso   1.000  O
  H3       1.0000 0.61250  0.42839  0.40053  Biso   1.000  H
  C4       1.0000 0.36312  0.46300  0.31979  Biso   1.000  C
  O4       1.0000 0.40659  0.52110  0.40266  Biso   1.000  O
  H4       1.0000 0.39391  0.47589  0.53351  Biso   1.000  H
  C5       1.0000 0.57230  0.40199  0.63745  Biso   1.000  C
  C6       1.0000 0.38667  0.42290  0.32330  Biso   1.000  C
  O5       1.0000 0.26651  0.46590  0.36064  Biso   1.000  O
  H5       1.0000 0.37483  0.47371  0.21362  Biso   1.000  H
  H6       1.0000 0.33902  0.52491  0.41479  Biso   1.000  H
  C7       1.0000 0.54737  0.41030  0.79170  Biso   1.000  C
  C8       1.0000 0.56151  0.36219  0.60447  Biso   1.000  C
  H7       1.0000 0.64447  0.41041  0.61489  Biso   1.000  H
  C9       1.0000 0.34327  0.40199  0.20191  Biso   1.000  C
  H8       1.0000 0.36271  0.41140  0.42745  Biso   1.000  H
  C10      1.0000 0.20632  0.48399  0.26798  Biso   1.000  C
  C11      1.0000 0.59919  0.38561  0.89362  Biso   1.000  C
  O6       1.0000 0.57377  0.44680  0.81840  Biso   1.000  O
  H9       1.0000 0.47151  0.40559  0.81085  Biso   1.000  H
  O7       1.0000 0.61507  0.34171  0.70819  Biso   1.000  O
  C12      1.0000 0.59961  0.35170  0.46011  Biso   1.000  C
  H10      1.0000 0.48558  0.35500  0.61149  Biso   1.000  H
  O8       1.0000 0.37880  0.41270  0.06574  Biso   1.000  O
  H11      1.0000 0.35490  0.37330  0.21447  Biso   1.000  H
  H12      1.0000 0.26721  0.40639  0.19819  Biso   1.000  H
  C13      1.0000 0.14210  0.50791  0.35809  Biso   1.000  C
  O9       1.0000 0.15102  0.46020  0.18617  Biso   1.000  O
  H13      1.0000 0.24833  0.50069  0.19628  Biso   1.000  H
  C14      1.0000 0.58331  0.34640  0.84883  Biso   1.000  C
  H14      1.0000 0.67519  0.39179  0.89128  Biso   1.000  H
  O10      1.0000 0.56262  0.39051  0.03340  Biso   1.000  O
  H15      1.0000 0.54249  0.46300  0.89117  Biso   1.000  H
  O11      1.0000 0.69748  0.36281  0.44840  Biso   1.000  O
  H16      1.0000 0.59641  0.32221  0.44904  Biso   1.000  H
  H17      1.0000 0.55552  0.36291  0.37415  Biso   1.000  H
  H18      1.0000 0.44560  0.40490  0.05500  Biso   1.000  H
  C15      1.0000 0.08087  0.48500  0.45330  Biso   1.000  C
  O12      1.0000 0.20222  0.53050  0.43777  Biso   1.000  O
  H19      1.0000 0.09843  0.52440  0.28606  Biso   1.000  H
  C16      1.0000 0.09703  0.43540  0.26968  Biso   1.000  C
  O13      1.0000 0.48739  0.33939  0.86064  Biso   1.000  O
  H20      1.0000 0.61932  0.32860  0.92234  Biso   1.000  H
  H21      1.0000 0.62281  0.40130  0.05798  Biso   1.000  H
  H22      1.0000 0.67282  0.38670  0.42266  Biso   1.000  H
  C17      1.0000 0.03121  0.45551  0.36883  Biso   1.000  C
  O14      1.0000 0.01303  0.50759  0.51979  Biso   1.000  O
  H23      1.0000 0.12469  0.47240  0.53404  Biso   1.000  H
  H24      1.0000 0.17219  0.55149  0.48543  Biso   1.000  H
  C18      1.0000 0.04590  0.41270  0.15883  Biso   1.000  C
  H25      1.0000 0.14419  0.41840  0.33330  Biso   1.000  H
  C19      1.0000 0.45890  0.30580  0.92170  Biso   1.000  C
  O15      1.0000 0.99861  0.43060  0.47660  Biso   1.000  O
  H26      1.0000 0.97151  0.46670  0.31021  Biso   1.000  H
  H27      1.0000 0.96789  0.49230  0.56798  Biso   1.000  H
  H28      1.0000 0.00432  0.39150  0.21106  Biso   1.000  H
  H29      1.0000 0.09703  0.39869  0.08904  Biso   1.000  H
  O16      1.0000 0.98753  0.43391  0.06989  Biso   1.000  O
  C20      1.0000 0.39948  0.28619  0.80851  Biso   1.000  C
  C21      1.0000 0.40339  0.31531  0.05404  Biso   1.000  C
  H30      1.0000 0.52097  0.29080  0.94649  Biso   1.000  H
  C22      1.0000 0.90422  0.42069  0.47723  Biso   1.000  C
  H31      1.0000 0.92909  0.43271  0.12457  Biso   1.000  H
  O17      1.0000 0.35212  0.25710  0.87766  Biso   1.000  O
  C23      1.0000 0.45577  0.27140  0.69000  Biso   1.000  C
  H32      1.0000 0.34731  0.30540  0.76777  Biso   1.000  H
  C24      1.0000 0.34947  0.28390  0.11000  Biso   1.000  C
  O18      1.0000 0.46712  0.32700  0.16351  Biso   1.000  O
  H33      1.0000 0.35421  0.33720  0.03202  Biso   1.000  H
  C25      1.0000 0.86828  0.42440  0.62734  Biso   1.000  C
  O19      1.0000 0.89517  0.38409  0.43383  Biso   1.000  O
  H34      1.0000 0.86333  0.43750  0.40330  Biso   1.000  H
  C26      1.0000 0.29172  0.26781  0.98904  Biso   1.000  C
  O20      1.0000 0.54193  0.25510  0.73585  Biso   1.000  O
  H35      1.0000 0.41223  0.25151  0.63255  Biso   1.000  H
  H36      1.0000 0.47081  0.29280  0.61096  Biso   1.000  H
  O21      1.0000 0.28970  0.29530  0.22457  Biso   1.000  O
  H37      1.0000 0.39893  0.26480  0.15213  Biso   1.000  H
  H38      1.0000 0.49861  0.34901  0.13436  Biso   1.000  H
  C27      1.0000 0.92129  0.40079  0.72809  Biso   1.000  C
  O22      1.0000 0.88082  0.46140  0.66532  Biso   1.000  O
  H39      1.0000 0.79409  0.41699  0.63053  Biso   1.000  H
  C28      1.0000 0.94713  0.35929  0.51872  Biso   1.000  C
  O23      1.0000 0.22813  0.29429  0.94064  Biso   1.000  O
  H40      1.0000 0.24909  0.24511  0.02585  Biso   1.000  H
  H41      1.0000 0.56088  0.23041  0.77553  Biso   1.000  H
  H42      1.0000 0.26087  0.27580  0.27830  Biso   1.000  H
  C29      1.0000 0.91760  0.36219  0.67521  Biso   1.000  C
  O24      1.0000 0.87887  0.40151  0.86702  Biso   1.000  O
  H43      1.0000 0.99512  0.40940  0.73500  Biso   1.000  H
  H44      1.0000 0.83268  0.46939  0.72904  Biso   1.000  H
  H45      1.0000 0.02187  0.36560  0.51021  Biso   1.000  H
  C30      1.0000 0.93020  0.32271  0.45606  Biso   1.000  C
  C31      1.0000 0.13089  0.28600  0.93011  Biso   1.000  C
  O25      1.0000 0.98370  0.34261  0.76032  Biso   1.000  O
  H46      1.0000 0.84801  0.35170  0.68894  Biso   1.000  H
  H47      1.0000 0.93041  0.38561  0.89691  Biso   1.000  H
  O26      1.0000 0.83589  0.31139  0.47277  Biso   1.000  O
  H48      1.0000 0.97513  0.30281  0.50191  Biso   1.000  H
  H49      1.0000 0.94699  0.32399  0.33766  Biso   1.000  H
  C32      1.0000 0.10449  0.28371  0.77383  Biso   1.000  C
  H50      1.0000 0.11417  0.26229  0.97957  Biso   1.000  H
  C33      1.0000 0.07843  0.31539  0.00511  Biso   1.000  C
  C34      1.0000 0.95528  0.30950  0.82043  Biso   1.000  C
  H51      1.0000 0.78539  0.33129  0.46436  Biso   1.000  H
  C35      1.0000 0.14391  0.25071  0.70021  Biso   1.000  C
  O27      1.0000 0.00418  0.28070  0.76085  Biso   1.000  O
  H52      1.0000 0.13033  0.30801  0.71851  Biso   1.000  H
  H53      1.0000 0.10267  0.34200  0.96266  Biso   1.000  H
  C36      1.0000 0.97597  0.31150  0.97989  Biso   1.000  C
  O28      1.0000 0.09620  0.31419  0.15553  Biso   1.000  O
  H54      1.0000 0.88047  0.30620  0.80660  Biso   1.000  H
  O29      1.0000 0.12859  0.21871  0.78074  Biso   1.000  O
  H55      1.0000 0.21872  0.25481  0.67628  Biso   1.000  H
  H56      1.0000 0.10880  0.24879  0.59213  Biso   1.000  H
  O30      1.0000 0.92421  0.34040  0.04298  Biso   1.000  O
  H57      1.0000 0.95242  0.28659  0.02702  Biso   1.000  H
  H58      1.0000 0.16181  0.30870  0.17628  Biso   1.000  H
  H59      1.0000 0.07272  0.20289  0.80000  Biso   1.000  H
  H60      1.0000 0.86828  0.32839  0.00532  Biso   1.000  H
  O31      1.0000 0.61918  0.53860  0.16532  Biso   1.000  O
  C37      1.0000 0.63172  0.57560  0.12734  Biso   1.000  C
  H61      1.0000 0.66732  0.53061  0.22904  Biso   1.000  H
  C38      1.0000 0.59578  0.57931  0.97723  Biso   1.000  C
  C39      1.0000 0.57871  0.59921  0.22809  Biso   1.000  C
  H62      1.0000 0.70591  0.58301  0.13053  Biso   1.000  H
  O32      1.0000 0.50139  0.56940  0.97660  Biso   1.000  O
  O33      1.0000 0.60483  0.61591  0.93383  Biso   1.000  O
  H63      1.0000 0.63667  0.56250  0.90330  Biso   1.000  H
  O34      1.0000 0.62113  0.59849  0.36702  Biso   1.000  O
  C40      1.0000 0.58240  0.63781  0.17521  Biso   1.000  C
  H64      1.0000 0.50488  0.59060  0.23500  Biso   1.000  H
  C41      1.0000 0.46879  0.54449  0.86883  Biso   1.000  C
  C42      1.0000 0.55287  0.64071  0.01872  Biso   1.000  C
  H65      1.0000 0.56959  0.61439  0.39691  Biso   1.000  H
  O35      1.0000 0.51630  0.65739  0.26032  Biso   1.000  O
  H66      1.0000 0.65199  0.64830  0.18894  Biso   1.000  H
  C43      1.0000 0.41913  0.51500  0.95330  Biso   1.000  C
  C44      1.0000 0.40297  0.56460  0.76968  Biso   1.000  C
  H67      1.0000 0.52849  0.53330  0.81021  Biso   1.000  H
  H68      1.0000 0.47813  0.63440  0.01021  Biso   1.000  H
  C45      1.0000 0.56980  0.67729  0.95606  Biso   1.000  C
  C46      1.0000 0.54472  0.69050  0.32043  Biso   1.000  C
  O36      1.0000 0.48697  0.49241  0.01979  Biso   1.000  O
  H69      1.0000 0.37531  0.52760  0.03404  Biso   1.000  H
  C47      1.0000 0.35790  0.49209  0.85809  Biso   1.000  C
  O37      1.0000 0.34898  0.53980  0.68617  Biso   1.000  O
  C48      1.0000 0.45410  0.58730  0.65883  Biso   1.000  C
  H70      1.0000 0.35581  0.58160  0.83330  Biso   1.000  H
  H71      1.0000 0.52487  0.69719  0.00191  Biso   1.000  H
  O38      1.0000 0.66411  0.68861  0.97277  Biso   1.000  O
  H72      1.0000 0.55301  0.67601  0.83766  Biso   1.000  H
  C49      1.0000 0.52403  0.68850  0.47989  Biso   1.000  C
  O39      1.0000 0.49582  0.71930  0.26085  Biso   1.000  O
  H73      1.0000 0.61953  0.69380  0.30660  Biso   1.000  H
  H74      1.0000 0.53211  0.50770  0.06798  Biso   1.000  H
  C50      1.0000 0.29368  0.51601  0.76798  Biso   1.000  C
  O40      1.0000 0.29778  0.46950  0.93777  Biso   1.000  O
  H75      1.0000 0.40157  0.47560  0.78606  Biso   1.000  H
  O41      1.0000 0.51247  0.56609  0.56989  Biso   1.000  O
  H76      1.0000 0.49568  0.60850  0.71106  Biso   1.000  H
  H77      1.0000 0.40297  0.60131  0.58904  Biso   1.000  H
  H78      1.0000 0.71461  0.66871  0.96436  Biso   1.000  H
  O42      1.0000 0.57579  0.65960  0.54298  Biso   1.000  O
  C51      1.0000 0.42157  0.68461  0.50511  Biso   1.000  C
  H79      1.0000 0.54758  0.71341  0.52702  Biso   1.000  H
  C52      1.0000 0.39551  0.71629  0.27383  Biso   1.000  C
  O43      1.0000 0.23349  0.53410  0.86064  Biso   1.000  O
  H80      1.0000 0.25167  0.49931  0.69628  Biso   1.000  H
  H81      1.0000 0.32781  0.44851  0.98543  Biso   1.000  H
  H82      1.0000 0.57091  0.56729  0.62457  Biso   1.000  H
  H83      1.0000 0.63172  0.67161  0.50532  Biso   1.000  H
  O44      1.0000 0.40380  0.68581  0.65553  Biso   1.000  O
  C53      1.0000 0.36911  0.71400  0.43011  Biso   1.000  C
  H84      1.0000 0.39733  0.65800  0.46266  Biso   1.000  H
  C54      1.0000 0.35609  0.74929  0.20021  Biso   1.000  C
  H85      1.0000 0.36967  0.69199  0.21851  Biso   1.000  H
  C55      1.0000 0.13688  0.53700  0.81979  Biso   1.000  C
  H86      1.0000 0.33819  0.69130  0.67628  Biso   1.000  H
  O45      1.0000 0.27187  0.70571  0.44064  Biso   1.000  O
  H87      1.0000 0.38583  0.73771  0.47957  Biso   1.000  H
  O46      1.0000 0.37141  0.78129  0.28074  Biso   1.000  O
  H88      1.0000 0.28128  0.74519  0.17628  Biso   1.000  H
  H89      1.0000 0.39120  0.75121  0.09213  Biso   1.000  H
  C56      1.0000 0.08087  0.51641  0.92702  Biso   1.000  C
  C57      1.0000 0.11333  0.57710  0.82330  Biso   1.000  C
  H90      1.0000 0.12517  0.52629  0.71362  Biso   1.000  H
  C58      1.0000 0.20828  0.73219  0.48904  Biso   1.000  C
  H91      1.0000 0.42728  0.79711  0.30000  Biso   1.000  H
  H92      1.0000 0.10609  0.52411  0.03351  Biso   1.000  H
  C59      1.0000 0.97827  0.52469  0.91681  Biso   1.000  C
  O47      1.0000 0.09341  0.47890  0.90266  Biso   1.000  O
  O48      1.0000 0.01421  0.58160  0.80957  Biso   1.000  O
  C60      1.0000 0.15673  0.59801  0.70191  Biso   1.000  C
  H93      1.0000 0.13729  0.58860  0.92745  Biso   1.000  H
  C61      1.0000 0.15053  0.71610  0.61000  Biso   1.000  C
  O49      1.0000 0.14788  0.74290  0.37766  Biso   1.000  O
  H94      1.0000 0.25091  0.75489  0.52585  Biso   1.000  H
  C62      1.0000 0.96169  0.56511  0.91883  Biso   1.000  C
  H95      1.0000 0.94978  0.51391  0.81617  Biso   1.000  H
  O50      1.0000 0.92763  0.50959  0.03213  Biso   1.000  O
  H96      1.0000 0.16098  0.47509  0.91479  Biso   1.000  H
  O51      1.0000 0.12120  0.58730  0.56574  Biso   1.000  O
  H97      1.0000 0.14510  0.62670  0.71447  Biso   1.000  H
  H98      1.0000 0.23279  0.59361  0.69819  Biso   1.000  H
  C63      1.0000 0.09661  0.68469  0.55404  Biso   1.000  C
  O52      1.0000 0.21030  0.70470  0.72457  Biso   1.000  O
  H99      1.0000 0.10107  0.73520  0.65213  Biso   1.000  H
  C64      1.0000 0.10052  0.71381  0.30851  Biso   1.000  C
  H100     1.0000 0.88750  0.57161  0.90053  Biso   1.000  H
  O53      1.0000 0.99213  0.57789  0.05500  Biso   1.000  O
  H101     1.0000 0.92797  0.52270  0.12489  Biso   1.000  H
  H102     1.0000 0.05440  0.59510  0.55500  Biso   1.000  H
  C65      1.0000 0.04110  0.69420  0.42170  Biso   1.000  C
  O54      1.0000 0.03288  0.67300  0.66351  Biso   1.000  O
  H103     1.0000 0.14579  0.66280  0.53202  Biso   1.000  H
  H104     1.0000 0.23913  0.72420  0.77830  Biso   1.000  H
  C66      1.0000 0.04423  0.72860  0.19000  Biso   1.000  C
  H105     1.0000 0.15269  0.69460  0.26777  Biso   1.000  H
  C67      1.0000 0.92770  0.59801  0.13745  Biso   1.000  C
  O55      1.0000 0.01261  0.66061  0.36064  Biso   1.000  O
  H106     1.0000 0.97903  0.70920  0.44649  Biso   1.000  H
  H107     1.0000 0.00139  0.65099  0.63436  Biso   1.000  H
  H108     1.0000 0.08777  0.74849  0.13245  Biso   1.000  H
  H109     1.0000 0.02919  0.70720  0.11096  Biso   1.000  H
  O56      1.0000 0.95807  0.74490  0.23585  Biso   1.000  O
  C68      1.0000 0.95263  0.58970  0.29170  Biso   1.000  C
  C69      1.0000 0.93849  0.63781  0.10447  Biso   1.000  C
  H110     1.0000 0.85553  0.58959  0.11489  Biso   1.000  H
  C70      1.0000 0.91669  0.65360  0.34883  Biso   1.000  C
  H111     1.0000 0.93912  0.76959  0.27553  Biso   1.000  H
  H112     1.0000 0.02849  0.59441  0.31085  Biso   1.000  H
  C71      1.0000 0.90081  0.61439  0.39362  Biso   1.000  C
  O57      1.0000 0.92623  0.55320  0.31840  Biso   1.000  O
  H113     1.0000 0.01442  0.64500  0.11149  Biso   1.000  H
  C72      1.0000 0.90039  0.64830  0.96011  Biso   1.000  C
  O58      1.0000 0.88493  0.65829  0.20819  Biso   1.000  O
  H114     1.0000 0.88068  0.67140  0.42234  Biso   1.000  H
  O59      1.0000 0.93738  0.60949  0.53340  Biso   1.000  O
  H115     1.0000 0.82481  0.60821  0.39128  Biso   1.000  H
  H116     1.0000 0.95751  0.53700  0.39117  Biso   1.000  H
  O60      1.0000 0.80252  0.63719  0.94840  Biso   1.000  O
  H117     1.0000 0.90359  0.67779  0.94904  Biso   1.000  H
  H118     1.0000 0.94448  0.63709  0.87415  Biso   1.000  H
  H119     1.0000 0.87719  0.59870  0.55798  Biso   1.000  H
  H120     1.0000 0.82718  0.61330  0.92266  Biso   1.000  H
  O61      1.0000 0.62859  0.28129  0.21926  Biso   1.000  O
  C73      1.0000 0.64391  0.24929  0.29979  Biso   1.000  C
  H121     1.0000 0.57272  0.29711  0.20000  Biso   1.000  H
  C74      1.0000 0.60449  0.21629  0.22617  Biso   1.000  C
  H122     1.0000 0.71872  0.24519  0.32372  Biso   1.000  H
  H123     1.0000 0.60880  0.25121  0.40787  Biso   1.000  H
  O62      1.0000 0.50418  0.21930  0.23915  Biso   1.000  O
  C75      1.0000 0.63089  0.21400  0.06989  Biso   1.000  C
  H124     1.0000 0.63033  0.19199  0.28149  Biso   1.000  H
  C76      1.0000 0.45528  0.19050  0.17957  Biso   1.000  C
  C77      1.0000 0.57843  0.18461  0.99489  Biso   1.000  C
  O63      1.0000 0.72813  0.20571  0.05936  Biso   1.000  O
  H125     1.0000 0.61417  0.23771  0.02043  Biso   1.000  H
  C78      1.0000 0.47597  0.18850  0.02011  Biso   1.000  C
  O64      1.0000 0.48370  0.15739  0.23968  Biso   1.000  O
  H126     1.0000 0.38047  0.19380  0.19340  Biso   1.000  H
  H127     1.0000 0.60267  0.15800  0.03734  Biso   1.000  H
  O65      1.0000 0.59620  0.18581  0.84447  Biso   1.000  O
  C79      1.0000 0.79172  0.23219  0.01096  Biso   1.000  C
  O66      1.0000 0.42421  0.15960  0.95702  Biso   1.000  O
  H128     1.0000 0.45242  0.21341  0.97298  Biso   1.000  H
  C80      1.0000 0.41760  0.13781  0.32479  Biso   1.000  C
  H129     1.0000 0.66181  0.19130  0.82372  Biso   1.000  H
  O67      1.0000 0.85212  0.24290  0.12234  Biso   1.000  O
  C81      1.0000 0.84947  0.21610  0.89000  Biso   1.000  C
  H130     1.0000 0.74909  0.25489  0.97415  Biso   1.000  H
  H131     1.0000 0.36828  0.17161  0.99468  Biso   1.000  H
  C82      1.0000 0.42129  0.09921  0.27191  Biso   1.000  C
  C83      1.0000 0.44713  0.14071  0.48128  Biso   1.000  C
  H132     1.0000 0.34801  0.14830  0.31106  Biso   1.000  H
  C84      1.0000 0.89948  0.21381  0.19149  Biso   1.000  C
  O68      1.0000 0.78970  0.20470  0.77543  Biso   1.000  O
  C85      1.0000 0.90339  0.18469  0.94596  Biso   1.000  C
  H133     1.0000 0.89893  0.23520  0.84787  Biso   1.000  H
  C86      1.0000 0.36828  0.07560  0.37266  Biso   1.000  C
  O69      1.0000 0.37887  0.09849  0.13298  Biso   1.000  O
  H134     1.0000 0.49512  0.09060  0.26500  Biso   1.000  H
  O70      1.0000 0.39517  0.11591  0.56617  Biso   1.000  O
  C87      1.0000 0.43020  0.17729  0.54394  Biso   1.000  C
  H135     1.0000 0.52187  0.13440  0.48979  Biso   1.000  H
  C88      1.0000 0.95890  0.19420  0.07830  Biso   1.000  C
  C89      1.0000 0.95577  0.22860  0.31000  Biso   1.000  C
  H136     1.0000 0.84731  0.19460  0.23223  Biso   1.000  H
  H137     1.0000 0.76087  0.22420  0.72170  Biso   1.000  H
  O71      1.0000 0.96712  0.17300  0.83649  Biso   1.000  O
  H138     1.0000 0.85421  0.16280  0.96798  Biso   1.000  H
  C90      1.0000 0.40422  0.07931  0.52277  Biso   1.000  C
  O72      1.0000 0.38082  0.03860  0.33468  Biso   1.000  O
  H139     1.0000 0.29409  0.08301  0.36947  Biso   1.000  H
  H140     1.0000 0.43041  0.11439  0.10309  Biso   1.000  H
  O73      1.0000 0.33589  0.18861  0.52723  Biso   1.000  O
  H141     1.0000 0.47513  0.19719  0.49809  Biso   1.000  H
  H142     1.0000 0.44699  0.17601  0.66234  Biso   1.000  H
  O74      1.0000 0.98739  0.16061  0.13936  Biso   1.000  O
  H143     1.0000 0.02097  0.20920  0.05351  Biso   1.000  H
  H144     1.0000 0.91223  0.24849  0.36755  Biso   1.000  H
  H145     1.0000 0.97081  0.20720  0.38904  Biso   1.000  H
  O75      1.0000 0.04193  0.24490  0.26415  Biso   1.000  O
  H146     1.0000 0.99861  0.15099  0.86564  Biso   1.000  H
  O76      1.0000 0.49861  0.06940  0.52340  Biso   1.000  O
  H147     1.0000 0.36333  0.06250  0.59670  Biso   1.000  H
  H148     1.0000 0.33268  0.03061  0.27096  Biso   1.000  H
  H149     1.0000 0.28539  0.16871  0.53564  Biso   1.000  H
  C91      1.0000 0.08331  0.15360  0.15117  Biso   1.000  C
  H150     1.0000 0.06088  0.26959  0.22447  Biso   1.000  H
  C92      1.0000 0.53121  0.04449  0.63117  Biso   1.000  C
  C93      1.0000 0.09919  0.11439  0.10638  Biso   1.000  C
  O77      1.0000 0.11507  0.15829  0.29181  Biso   1.000  O
  H151     1.0000 0.11932  0.17140  0.07766  Biso   1.000  H
  C94      1.0000 0.58087  0.01500  0.54670  Biso   1.000  C
  C95      1.0000 0.59703  0.06460  0.73032  Biso   1.000  C
  H152     1.0000 0.47151  0.03330  0.68979  Biso   1.000  H
  O78      1.0000 0.06262  0.10949  0.96660  Biso   1.000  O
  C96      1.0000 0.04737  0.08970  0.20830  Biso   1.000  C
  H153     1.0000 0.17519  0.10821  0.10872  Biso   1.000  H
  C97      1.0000 0.06151  0.13781  0.39553  Biso   1.000  C
  H154     1.0000 0.62469  0.02760  0.46596  Biso   1.000  H
  C98      1.0000 0.64210  0.99209  0.64191  Biso   1.000  C
  O79      1.0000 0.51303  0.99241  0.48021  Biso   1.000  O
  O80      1.0000 0.65102  0.03980  0.81383  Biso   1.000  O
  C99      1.0000 0.54590  0.08730  0.84117  Biso   1.000  C
  H155     1.0000 0.64419  0.08160  0.66670  Biso   1.000  H
  H156     1.0000 0.12281  0.09870  0.94202  Biso   1.000  H
  H157     1.0000 0.97151  0.09441  0.18915  Biso   1.000  H
  O81      1.0000 0.07377  0.05320  0.18160  Biso   1.000  O
  C100     1.0000 0.07230  0.09801  0.36255  Biso   1.000  C
  H158     1.0000 0.98558  0.14500  0.38851  Biso   1.000  H
  C101     1.0000 0.09961  0.14830  0.53989  Biso   1.000  C
  C102     1.0000 0.70632  0.01601  0.73202  Biso   1.000  C
  O82      1.0000 0.70222  0.96950  0.56223  Biso   1.000  O
  H159     1.0000 0.59843  0.97560  0.71394  Biso   1.000  H
  H160     1.0000 0.46789  0.00770  0.43202  Biso   1.000  H
  O83      1.0000 0.48753  0.06609  0.93011  Biso   1.000  O
  H161     1.0000 0.50432  0.10850  0.78894  Biso   1.000  H
  H162     1.0000 0.59703  0.10131  0.91096  Biso   1.000  H
  H163     1.0000 0.04249  0.03700  0.10883  Biso   1.000  H
  O84      1.0000 0.00787  0.07789  0.44500  Biso   1.000  O
  H164     1.0000 0.14447  0.08959  0.38511  Biso   1.000  H
  O85      1.0000 0.19748  0.13719  0.55160  Biso   1.000  O
  H165     1.0000 0.09641  0.17779  0.55096  Biso   1.000  H
  H166     1.0000 0.05552  0.13709  0.62585  Biso   1.000  H
  O86      1.0000 0.76651  0.03410  0.63936  Biso   1.000  O
  H167     1.0000 0.74833  0.99931  0.80372  Biso   1.000  H
  H168     1.0000 0.67219  0.94851  0.51457  Biso   1.000  H
  H169     1.0000 0.42909  0.06729  0.87543  Biso   1.000  H
  C103     1.0000 0.03831  0.06511  0.58117  Biso   1.000  C
  H170     1.0000 0.17282  0.11330  0.57734  Biso   1.000  H
  C104     1.0000 0.86312  0.03700  0.68021  Biso   1.000  C
  C105     1.0000 0.02173  0.02469  0.58319  Biso   1.000  C
  O87      1.0000 0.98579  0.08160  0.69043  Biso   1.000  O
  H171     1.0000 0.11250  0.07161  0.59947  Biso   1.000  H
  C106     1.0000 0.91913  0.01641  0.57298  Biso   1.000  C
  C107     1.0000 0.88667  0.07710  0.67670  Biso   1.000  C
  H172     1.0000 0.87483  0.02629  0.78638  Biso   1.000  H
  O88      1.0000 0.07237  0.00959  0.46787  Biso   1.000  O
  H173     1.0000 0.05022  0.01391  0.68383  Biso   1.000  H
  H174     1.0000 0.89391  0.02411  0.46649  Biso   1.000  H
  O89      1.0000 0.90659  0.97890  0.59734  Biso   1.000  O
  C108     1.0000 0.84327  0.09801  0.79809  Biso   1.000  C
  H175     1.0000 0.86271  0.08860  0.57255  Biso   1.000  H
  H176     1.0000 0.07203  0.02270  0.37511  Biso   1.000  H
  H177     1.0000 0.83902  0.97509  0.58521  Biso   1.000  H
  O90      1.0000 0.87880  0.08730  0.93426  Biso   1.000  O
  H178     1.0000 0.85490  0.12670  0.78553  Biso   1.000  H
  H179     1.0000 0.76721  0.09361  0.80181  Biso   1.000  H
  H180     1.0000 0.94560  0.09510  0.94500  Biso   1.000  H
  O91      1.0000 0.45807  0.75510  0.76415  Biso   1.000  O
  C109     1.0000 0.54423  0.77140  0.81000  Biso   1.000  C
  H181     1.0000 0.43912  0.73041  0.72447  Biso   1.000  H
  C110     1.0000 0.60052  0.78619  0.69149  Biso   1.000  C
  H182     1.0000 0.58777  0.75151  0.86755  Biso   1.000  H
  H183     1.0000 0.52919  0.79280  0.88904  Biso   1.000  H
  C111     1.0000 0.54110  0.80580  0.57830  Biso   1.000  C
  O92      1.0000 0.64788  0.75710  0.62234  Biso   1.000  O
  H184     1.0000 0.65269  0.80540  0.73223  Biso   1.000  H
  C112     1.0000 0.59661  0.81531  0.44596  Biso   1.000  C
  O93      1.0000 0.51261  0.83939  0.63936  Biso   1.000  O
  H185     1.0000 0.47903  0.79080  0.55351  Biso   1.000  H
  C113     1.0000 0.70828  0.76781  0.51096  Biso   1.000  C
  C114     1.0000 0.65053  0.78390  0.39000  Biso   1.000  C
  O94      1.0000 0.53288  0.82700  0.33649  Biso   1.000  O
  H186     1.0000 0.64579  0.83720  0.46798  Biso   1.000  H
  C115     1.0000 0.41669  0.84640  0.65117  Biso   1.000  C
  O95      1.0000 0.77187  0.79429  0.55936  Biso   1.000  O
  H187     1.0000 0.75091  0.74511  0.47415  Biso   1.000  H
  O96      1.0000 0.71030  0.79530  0.27543  Biso   1.000  O
  H188     1.0000 0.60107  0.76480  0.34787  Biso   1.000  H
  H189     1.0000 0.50139  0.84901  0.36564  Biso   1.000  H
  C116     1.0000 0.40081  0.88561  0.60638  Biso   1.000  C
  O97      1.0000 0.38493  0.84171  0.79181  Biso   1.000  O
  H190     1.0000 0.38068  0.82860  0.57766  Biso   1.000  H
  C117     1.0000 0.86911  0.78600  0.56989  Biso   1.000  C
  H191     1.0000 0.73913  0.77580  0.22170  Biso   1.000  H
  O98      1.0000 0.43738  0.89051  0.46660  Biso   1.000  O
  C118     1.0000 0.45263  0.91030  0.70830  Biso   1.000  C
  H192     1.0000 0.32481  0.89179  0.60872  Biso   1.000  H
  C119     1.0000 0.43849  0.86219  0.89553  Biso   1.000  C
  C120     1.0000 0.92157  0.81539  0.49489  Biso   1.000  C
  C121     1.0000 0.89551  0.78371  0.72617  Biso   1.000  C
  H193     1.0000 0.88583  0.76229  0.52043  Biso   1.000  H
  H194     1.0000 0.37719  0.90130  0.44202  Biso   1.000  H
  O99      1.0000 0.42623  0.94680  0.68160  Biso   1.000  O
  C122     1.0000 0.42770  0.90199  0.86245  Biso   1.000  C
  H195     1.0000 0.52849  0.90559  0.68915  Biso   1.000  H
  H196     1.0000 0.51442  0.85500  0.88851  Biso   1.000  H
  C123     1.0000 0.40039  0.85170  0.03989  Biso   1.000  C
  O100     1.0000 0.90380  0.81419  0.34447  Biso   1.000  O
  H197     1.0000 0.89733  0.84200  0.53734  Biso   1.000  H
  C124     1.0000 0.02403  0.81150  0.52011  Biso   1.000  C
  O101     1.0000 0.99582  0.78070  0.73915  Biso   1.000  O
  C125     1.0000 0.85609  0.75071  0.79979  Biso   1.000  C
  H198     1.0000 0.86967  0.80801  0.78149  Biso   1.000  H
  H199     1.0000 0.45751  0.96300  0.60883  Biso   1.000  H
  O102     1.0000 0.49213  0.92211  0.94500  Biso   1.000  O
  H200     1.0000 0.35553  0.91041  0.88511  Biso   1.000  H
  O103     1.0000 0.30252  0.86281  0.05160  Biso   1.000  O
  H201     1.0000 0.40359  0.82221  0.05096  Biso   1.000  H
  H202     1.0000 0.44448  0.86291  0.12585  Biso   1.000  H
  H203     1.0000 0.83819  0.80870  0.32372  Biso   1.000  H
  C126     1.0000 0.04472  0.80950  0.67957  Biso   1.000  C
  O104     1.0000 0.07579  0.84040  0.45702  Biso   1.000  O
  H204     1.0000 0.04758  0.78659  0.47298  Biso   1.000  H
  O105     1.0000 0.87141  0.71871  0.71926  Biso   1.000  O
  H205     1.0000 0.78128  0.75481  0.82372  Biso   1.000  H
  H206     1.0000 0.89120  0.74879  0.90787  Biso   1.000  H
  C127     1.0000 0.46169  0.93489  0.08117  Biso   1.000  C
  H207     1.0000 0.32718  0.88670  0.07734  Biso   1.000  H
  O106     1.0000 0.01630  0.84261  0.73968  Biso   1.000  O
  H208     1.0000 0.11953  0.80620  0.69340  Biso   1.000  H
  H209     1.0000 0.13172  0.82839  0.49468  Biso   1.000  H
  H210     1.0000 0.92728  0.70289  0.70000  Biso   1.000  H
  C128     1.0000 0.47827  0.97531  0.08319  Biso   1.000  C
  O107     1.0000 0.51421  0.91840  0.19043  Biso   1.000  O
  H211     1.0000 0.38750  0.92839  0.09947  Biso   1.000  H
  C129     1.0000 0.08240  0.86219  0.82479  Biso   1.000  C
  O108     1.0000 0.42763  0.99041  0.96787  Biso   1.000  O
  C130     1.0000 0.58087  0.98359  0.07298  Biso   1.000  C
  H212     1.0000 0.44978  0.98609  0.18383  Biso   1.000  H
  C131     1.0000 0.61333  0.92290  0.17670  Biso   1.000  C
  C132     1.0000 0.07871  0.90079  0.77191  Biso   1.000  C
  C133     1.0000 0.05287  0.85929  0.98128  Biso   1.000  C
  H213     1.0000 0.15199  0.85170  0.81106  Biso   1.000  H
  H214     1.0000 0.42797  0.97730  0.87511  Biso   1.000  H
  H215     1.0000 0.60609  0.97589  0.96649  Biso   1.000  H
  C134     1.0000 0.63688  0.96300  0.18021  Biso   1.000  C
  O109     1.0000 0.59341  0.02110  0.09734  Biso   1.000  O
  C135     1.0000 0.65673  0.90199  0.29809  Biso   1.000  C
  H216     1.0000 0.63729  0.91140  0.07255  Biso   1.000  H
  C136     1.0000 0.13172  0.92440  0.87266  Biso   1.000  C
  O110     1.0000 0.12113  0.90151  0.63298  Biso   1.000  O
  H217     1.0000 0.00488  0.90940  0.76500  Biso   1.000  H
  H218     1.0000 0.97813  0.86560  0.98979  Biso   1.000  H
  O111     1.0000 0.10483  0.88409  0.06617  Biso   1.000  O
  C137     1.0000 0.06980  0.82271  0.04394  Biso   1.000  C
  O112     1.0000 0.73349  0.96590  0.13936  Biso   1.000  O
  H219     1.0000 0.62517  0.97371  0.28638  Biso   1.000  H
  H220     1.0000 0.66098  0.02491  0.08521  Biso   1.000  H
  O113     1.0000 0.62120  0.91270  0.43426  Biso   1.000  O
  H221     1.0000 0.64510  0.87330  0.28553  Biso   1.000  H
  H222     1.0000 0.73279  0.90639  0.30181  Biso   1.000  H
  O114     1.0000 0.11918  0.96140  0.83468  Biso   1.000  O
  H223     1.0000 0.20591  0.91699  0.86947  Biso   1.000  H
  C138     1.0000 0.09578  0.92069  0.02277  Biso   1.000  C
  H224     1.0000 0.06959  0.88561  0.60309  Biso   1.000  H
  H225     1.0000 0.02487  0.80281  0.99809  Biso   1.000  H
  O115     1.0000 0.16411  0.81139  0.02723  Biso   1.000  O
  H226     1.0000 0.05301  0.82399  0.16234  Biso   1.000  H
  C139     1.0000 0.79368  0.98399  0.23202  Biso   1.000  C
  H227     1.0000 0.55440  0.90490  0.44500  Biso   1.000  H
  H228     1.0000 0.16732  0.96939  0.77096  Biso   1.000  H
  O116     1.0000 0.00139  0.93060  0.02340  Biso   1.000  O
  H229     1.0000 0.13667  0.93750  0.09670  Biso   1.000  H
  H230     1.0000 0.21461  0.83129  0.03564  Biso   1.000  H
  O117     1.0000 0.84898  0.96020  0.31383  Biso   1.000  O
  C140     1.0000 0.85790  0.00791  0.14191  Biso   1.000  C
  H231     1.0000 0.75167  0.00069  0.30372  Biso   1.000  H
  C141     1.0000 0.96879  0.95551  0.13117  Biso   1.000  C
  C142     1.0000 0.90297  0.93540  0.23032  Biso   1.000  C
  C143     1.0000 0.91913  0.98500  0.04670  Biso   1.000  C
  O118     1.0000 0.79778  0.03050  0.06223  Biso   1.000  O
  H232     1.0000 0.90157  0.02440  0.21394  Biso   1.000  H
  H233     1.0000 0.02849  0.96670  0.18979  Biso   1.000  H
  C144     1.0000 0.95410  0.91270  0.34117  Biso   1.000  C
  H234     1.0000 0.85581  0.91840  0.16670  Biso   1.000  H
  H235     1.0000 0.87531  0.97240  0.96596  Biso   1.000  H
  O119     1.0000 0.98697  0.00759  0.98021  Biso   1.000  O
  H236     1.0000 0.82781  0.05149  0.01457  Biso   1.000  H
  H237     1.0000 0.99568  0.89150  0.28894  Biso   1.000  H
  H238     1.0000 0.90297  0.89869  0.41096  Biso   1.000  H
  O120     1.0000 0.01247  0.93391  0.43011  Biso   1.000  O
  H239     1.0000 0.03211  0.99230  0.93202  Biso   1.000  H
  H240     1.0000 0.07091  0.93271  0.37543  Biso   1.000  H
  Ne1      1.0000 0.74661  0.12168  0.36001  Biso   1.000  Ne
  He1      1.0000 0.72437  0.13748  0.45229  Biso   1.000  He
  He2      1.0000 0.73324  0.09807  0.23047  Biso   1.000  He
  Ar1      1.0000 0.73944  0.10886  0.26744  Biso   1.000  Ar
  Ne2      1.0000 0.24661  0.37832  0.63999  Biso   1.000  Ne
  He3      1.0000 0.23543  0.40257  0.73798  Biso   1.000  He
  He4      1.0000 0.20400  0.31540  0.37222  Biso   1.000  He
  Ar2      1.0000 0.22948  0.39129  0.72029  Biso   1.000  Ar
  Ne3      1.0000 0.25339  0.62168  0.13999  Biso   1.000  Ne
  He5      1.0000 0.26442  0.59380  0.23875  Biso   1.000  He
  He6      1.0000 0.23535  0.65777  0.00779  Biso   1.000  He
  Ar3      1.0000 0.26055  0.60886  0.23256  Biso   1.000  Ar
  Ne4      1.0000 0.75339  0.87832  0.86001  Biso   1.000  Ne
  He7      1.0000 0.73690  0.84613  0.97303  Biso   1.000  He
  He8      1.0000 0.76438  0.90926  0.75938  Biso   1.000  He
  Ar4      1.0000 0.76764  0.89240  0.77286  Biso   1.000  Ar
