data_image0
_cell_length_a       8.356
_cell_length_b       17.029
_cell_length_c       11.059
_cell_angle_alpha    90
_cell_angle_beta     111.26
_cell_angle_gamma    90

_symmetry_space_group_name_H-M    "P 1"
_symmetry_int_tables_number       1

loop_
  _symmetry_equiv_pos_as_xyz
  'x, y, z'

loop_
  _atom_site_label
  _atom_site_occupancy
  _atom_site_fract_x
  _atom_site_fract_y
  _atom_site_fract_z
  _atom_site_thermal_displace_type
  _atom_site_B_iso_or_equiv
  _atom_site_type_symbol
  C1       1.0000 0.99312  0.86541  0.92781  Biso   1.000  C
  O1       1.0000 0.04372  0.78572  0.92975  Biso   1.000  O
  O2       1.0000 0.04376  0.78572  0.92985  Biso   1.000  O
  C2       1.0000 0.90164  0.89001  0.78955  Biso   1.000  C
  H1       1.0000 0.91799  0.87098  0.97400  Biso   1.000  H
  H2       1.0000 0.09105  0.89700  0.96604  Biso   1.000  H
  C3       1.0000 0.02679  0.74068  0.03163  Biso   1.000  C
  C4       1.0000 0.75579  0.83522  0.71930  Biso   1.000  C
  C5       1.0000 0.94279  0.95373  0.73715  Biso   1.000  C
  C6       1.0000 0.17295  0.74819  0.15689  Biso   1.000  C
  H3       1.0000 0.01797  0.68700  0.00602  Biso   1.000  H
  H4       1.0000 0.92499  0.75700  0.04395  Biso   1.000  H
  H5       1.0000 0.92504  0.75700  0.04405  Biso   1.000  H
  C7       1.0000 0.84975  0.97980  0.59889  Biso   1.000  C
  C8       1.0000 0.08320  0.00981  0.80954  Biso   1.000  C
  O3       1.0000 0.64812  0.82142  0.79120  Biso   1.000  O
  H6       1.0000 0.68901  0.85801  0.63799  Biso   1.000  H
  H7       1.0000 0.80196  0.78701  0.70504  Biso   1.000  H
  H8       1.0000 0.27697  0.73798  0.14399  Biso   1.000  H
  O4       1.0000 0.17792  0.82500  0.20715  Biso   1.000  O
  O5       1.0000 0.17796  0.82500  0.20725  Biso   1.000  O
  H9       1.0000 0.15897  0.71102  0.21705  Biso   1.000  H
  H10      1.0000 0.74399  0.95202  0.56503  Biso   1.000  H
  H11      1.0000 0.91905  0.96800  0.54902  Biso   1.000  H
  O6       1.0000 0.81589  0.06148  0.59142  Biso   1.000  O
  H12      1.0000 0.14996  0.98802  0.89104  Biso   1.000  H
  O7       1.0000 0.18965  0.02331  0.73609  Biso   1.000  O
  H13      1.0000 0.03404  0.05802  0.82205  Biso   1.000  H
  O8       1.0000 0.18970  0.02331  0.73618  Biso   1.000  O
  C9       1.0000 0.55038  0.88801  0.79799  Biso   1.000  C
  C10      1.0000 0.30901  0.83428  0.32970  Biso   1.000  C
  C11      1.0000 0.68022  0.08127  0.63314  Biso   1.000  C
  C12      1.0000 0.25399  0.10083  0.74647  Biso   1.000  C
  C13      1.0000 0.49165  0.87968  0.90928  Biso   1.000  C
  H14      1.0000 0.61898  0.93399  0.81002  Biso   1.000  H
  H15      1.0000 0.45298  0.89201  0.71998  Biso   1.000  H
  C14      1.0000 0.49169  0.87968  0.90938  Biso   1.000  C
  H16      1.0000 0.45303  0.89201  0.72008  Biso   1.000  H
  H17      1.0000 0.41495  0.81802  0.32601  Biso   1.000  H
  H18      1.0000 0.28302  0.80398  0.39199  Biso   1.000  H
  C15      1.0000 0.31983  0.91873  0.36696  Biso   1.000  C
  C16      1.0000 0.69099  0.16572  0.67030  Biso   1.000  C
  H19      1.0000 0.68802  0.04997  0.70601  Biso   1.000  H
  H20      1.0000 0.57405  0.07199  0.56503  Biso   1.000  H
  C17      1.0000 0.41055  0.11422  0.86348  Biso   1.000  C
  H21      1.0000 0.28099  0.11099  0.67205  Biso   1.000  H
  H22      1.0000 0.16700  0.13600  0.74899  Biso   1.000  H
  C18      1.0000 0.41060  0.11422  0.86358  Biso   1.000  C
  H23      1.0000 0.40700  0.91902  0.90297  Biso   1.000  H
  H24      1.0000 0.44401  0.82900  0.90802  Biso   1.000  H
  H25      1.0000 0.40705  0.91902  0.90307  Biso   1.000  H
  O9       1.0000 0.63329  0.89013  0.02513  Biso   1.000  O
  H26      1.0000 0.31198  0.95003  0.29399  Biso   1.000  H
  H27      1.0000 0.42595  0.92801  0.43497  Biso   1.000  H
  O10      1.0000 0.18416  0.93852  0.40868  Biso   1.000  O
  H28      1.0000 0.42600  0.92801  0.43507  Biso   1.000  H
  O11      1.0000 0.82208  0.17500  0.79285  Biso   1.000  O
  H29      1.0000 0.58505  0.18198  0.67399  Biso   1.000  H
  H30      1.0000 0.71698  0.19602  0.60801  Biso   1.000  H
  O12      1.0000 0.36671  0.10987  0.97487  Biso   1.000  O
  H31      1.0000 0.49304  0.07499  0.86804  Biso   1.000  H
  H32      1.0000 0.45604  0.16501  0.85902  Biso   1.000  H
  O13      1.0000 0.36676  0.10987  0.97497  Biso   1.000  O
  C19      1.0000 0.58945  0.88578  0.13652  Biso   1.000  C
  C20      1.0000 0.15025  0.02020  0.40111  Biso   1.000  C
  C21      1.0000 0.82705  0.25181  0.84311  Biso   1.000  C
  C22      1.0000 0.50835  0.12032  0.09072  Biso   1.000  C
  C23      1.0000 0.74606  0.89917  0.25363  Biso   1.000  C
  H33      1.0000 0.50701  0.92501  0.13205  Biso   1.000  H
  H34      1.0000 0.54401  0.83499  0.14108  Biso   1.000  H
  C24      1.0000 0.05725  0.04627  0.26294  Biso   1.000  C
  H35      1.0000 0.25601  0.04798  0.43497  Biso   1.000  H
  H36      1.0000 0.08095  0.03200  0.45098  Biso   1.000  H
  H37      1.0000 0.25606  0.04798  0.43507  Biso   1.000  H
  H38      1.0000 0.08100  0.03200  0.45108  Biso   1.000  H
  C25      1.0000 0.97321  0.25932  0.96837  Biso   1.000  C
  C26      1.0000 0.97326  0.25932  0.96847  Biso   1.000  C
  H39      1.0000 0.72303  0.26202  0.85601  Biso   1.000  H
  H40      1.0000 0.84107  0.28898  0.78305  Biso   1.000  H
  C27      1.0000 0.44962  0.11199  0.20201  Biso   1.000  C
  H41      1.0000 0.59300  0.08098  0.09703  Biso   1.000  H
  H42      1.0000 0.55599  0.17100  0.09198  Biso   1.000  H
  H43      1.0000 0.55604  0.17100  0.09208  Biso   1.000  H
  O14      1.0000 0.81035  0.97669  0.26391  Biso   1.000  O
  H44      1.0000 0.83300  0.86400  0.25101  Biso   1.000  H
  H45      1.0000 0.71906  0.88901  0.32805  Biso   1.000  H
  C28      1.0000 0.91684  0.99019  0.19056  Biso   1.000  C
  C29      1.0000 0.09841  0.10999  0.21055  Biso   1.000  C
  O15      1.0000 0.95628  0.21428  0.07025  Biso   1.000  O
  H46      1.0000 0.98203  0.31300  0.99398  Biso   1.000  H
  H47      1.0000 0.98208  0.31300  0.99408  Biso   1.000  H
  H48      1.0000 0.07501  0.24300  0.95605  Biso   1.000  H
  O16      1.0000 0.35188  0.17858  0.20880  Biso   1.000  O
  H49      1.0000 0.38102  0.06601  0.18998  Biso   1.000  H
  H50      1.0000 0.54702  0.10799  0.28002  Biso   1.000  H
  H51      1.0000 0.38107  0.06601  0.19008  Biso   1.000  H
  H52      1.0000 0.96601  0.94198  0.17805  Biso   1.000  H
  H53      1.0000 0.85004  0.01198  0.10896  Biso   1.000  H
  H54      1.0000 0.85009  0.01198  0.10906  Biso   1.000  H
  C30      1.0000 0.00688  0.13459  0.07219  Biso   1.000  C
  C31      1.0000 0.24421  0.16478  0.28070  Biso   1.000  C
  H55      1.0000 0.90895  0.10300  0.03396  Biso   1.000  H
  H56      1.0000 0.90900  0.10300  0.03406  Biso   1.000  H
  H57      1.0000 0.08201  0.12902  0.02600  Biso   1.000  H
  H58      1.0000 0.31099  0.14199  0.36201  Biso   1.000  H
  H59      1.0000 0.19808  0.21299  0.29506  Biso   1.000  H
  O17      1.0000 0.64811  0.67855  0.29118  Biso   1.000  O
  C32      1.0000 0.75578  0.66481  0.21928  Biso   1.000  C
  C33      1.0000 0.55037  0.61201  0.29797  Biso   1.000  C
  C34      1.0000 0.90163  0.61002  0.28953  Biso   1.000  C
  H60      1.0000 0.68900  0.64202  0.13797  Biso   1.000  H
  H61      1.0000 0.80195  0.71302  0.20502  Biso   1.000  H
  C35      1.0000 0.49164  0.62029  0.40926  Biso   1.000  C
  H62      1.0000 0.61897  0.56598  0.31000  Biso   1.000  H
  H63      1.0000 0.45297  0.60802  0.21996  Biso   1.000  H
  C36      1.0000 0.94278  0.54630  0.23713  Biso   1.000  C
  C37      1.0000 0.99311  0.63462  0.42779  Biso   1.000  C
  O18      1.0000 0.63328  0.60990  0.52511  Biso   1.000  O
  H64      1.0000 0.40699  0.58101  0.40295  Biso   1.000  H
  H65      1.0000 0.44400  0.67097  0.40800  Biso   1.000  H
  C38      1.0000 0.84975  0.52017  0.09887  Biso   1.000  C
  C39      1.0000 0.08319  0.49022  0.30952  Biso   1.000  C
  H66      1.0000 0.91798  0.62899  0.47398  Biso   1.000  H
  O19      1.0000 0.04376  0.71431  0.42983  Biso   1.000  O
  H67      1.0000 0.09104  0.60297  0.46602  Biso   1.000  H
  C40      1.0000 0.58944  0.61419  0.63650  Biso   1.000  C
  O20      1.0000 0.81588  0.43849  0.09140  Biso   1.000  O
  H68      1.0000 0.74398  0.54801  0.06501  Biso   1.000  H
  H69      1.0000 0.91904  0.53197  0.04900  Biso   1.000  H
  O21      1.0000 0.18964  0.47672  0.23607  Biso   1.000  O
  H70      1.0000 0.03403  0.44201  0.32203  Biso   1.000  H
  H71      1.0000 0.14995  0.51201  0.39102  Biso   1.000  H
  C41      1.0000 0.02678  0.75929  0.53161  Biso   1.000  C
  C42      1.0000 0.74605  0.60080  0.75361  Biso   1.000  C
  H72      1.0000 0.50700  0.57502  0.63204  Biso   1.000  H
  H73      1.0000 0.54395  0.66498  0.64096  Biso   1.000  H
  C43      1.0000 0.68021  0.41870  0.13312  Biso   1.000  C
  C44      1.0000 0.25393  0.39920  0.24635  Biso   1.000  C
  H74      1.0000 0.92503  0.74303  0.54403  Biso   1.000  H
  C45      1.0000 0.17294  0.75178  0.65687  Biso   1.000  C
  H75      1.0000 0.01796  0.81302  0.50600  Biso   1.000  H
  O22      1.0000 0.81034  0.52328  0.76390  Biso   1.000  O
  H76      1.0000 0.71905  0.61102  0.82803  Biso   1.000  H
  H77      1.0000 0.83299  0.63597  0.75099  Biso   1.000  H
  C46      1.0000 0.69098  0.33431  0.17028  Biso   1.000  C
  H78      1.0000 0.68801  0.45000  0.20599  Biso   1.000  H
  H79      1.0000 0.57404  0.42798  0.06501  Biso   1.000  H
  C47      1.0000 0.41054  0.38581  0.36346  Biso   1.000  C
  H80      1.0000 0.28098  0.38898  0.17203  Biso   1.000  H
  H81      1.0000 0.16699  0.36403  0.24897  Biso   1.000  H
  O23      1.0000 0.17796  0.67502  0.70723  Biso   1.000  O
  H82      1.0000 0.27697  0.76199  0.64397  Biso   1.000  H
  H83      1.0000 0.15896  0.78901  0.71703  Biso   1.000  H
  C48      1.0000 0.91684  0.50978  0.69054  Biso   1.000  C
  O24      1.0000 0.82207  0.32498  0.29283  Biso   1.000  O
  H84      1.0000 0.58504  0.31799  0.17397  Biso   1.000  H
  H85      1.0000 0.71698  0.30401  0.10799  Biso   1.000  H
  O25      1.0000 0.36670  0.39010  0.47485  Biso   1.000  O
  H86      1.0000 0.49303  0.42498  0.36802  Biso   1.000  H
  H87      1.0000 0.45603  0.33502  0.35900  Biso   1.000  H
  C49      1.0000 0.30900  0.66569  0.82968  Biso   1.000  C
  C50      1.0000 0.05724  0.45370  0.76293  Biso   1.000  C
  H88      1.0000 0.96600  0.55799  0.67803  Biso   1.000  H
  H89      1.0000 0.85008  0.48799  0.60904  Biso   1.000  H
  C51      1.0000 0.82704  0.24822  0.34309  Biso   1.000  C
  C52      1.0000 0.50834  0.37971  0.59070  Biso   1.000  C
  C53      1.0000 0.31982  0.58130  0.86694  Biso   1.000  C
  H90      1.0000 0.41494  0.68201  0.82599  Biso   1.000  H
  H91      1.0000 0.28301  0.69599  0.89197  Biso   1.000  H
  C54      1.0000 0.09840  0.38998  0.71053  Biso   1.000  C
  C55      1.0000 0.15024  0.47983  0.90109  Biso   1.000  C
  C56      1.0000 0.97325  0.24071  0.46845  Biso   1.000  C
  H92      1.0000 0.72302  0.23801  0.35599  Biso   1.000  H
  H93      1.0000 0.84107  0.21099  0.28303  Biso   1.000  H
  C57      1.0000 0.44962  0.38799  0.70199  Biso   1.000  C
  H94      1.0000 0.59299  0.41899  0.59701  Biso   1.000  H
  H95      1.0000 0.55598  0.32903  0.59196  Biso   1.000  H
  O26      1.0000 0.18410  0.56151  0.90856  Biso   1.000  O
  H96      1.0000 0.31197  0.55000  0.79397  Biso   1.000  H
  H97      1.0000 0.42594  0.57202  0.93496  Biso   1.000  H
  C58      1.0000 0.00687  0.36538  0.57217  Biso   1.000  C
  C59      1.0000 0.24420  0.33519  0.78068  Biso   1.000  C
  H98      1.0000 0.25600  0.45199  0.93496  Biso   1.000  H
  H99      1.0000 0.08094  0.46803  0.95096  Biso   1.000  H
  O27      1.0000 0.95627  0.28569  0.57023  Biso   1.000  O
  H100     1.0000 0.98203  0.18698  0.49397  Biso   1.000  H
  H101     1.0000 0.07500  0.25697  0.45603  Biso   1.000  H
  O28      1.0000 0.35187  0.32145  0.70878  Biso   1.000  O
  H102     1.0000 0.38101  0.43402  0.68996  Biso   1.000  H
  H103     1.0000 0.54701  0.39198  0.78000  Biso   1.000  H
  H104     1.0000 0.90899  0.39703  0.53404  Biso   1.000  H
  H105     1.0000 0.08200  0.37101  0.52599  Biso   1.000  H
  H106     1.0000 0.31098  0.35798  0.86199  Biso   1.000  H
  H107     1.0000 0.19808  0.28698  0.79504  Biso   1.000  H
  Ne1      1.0000 1.00000  0.50000  0.50000  Biso   1.000  Ne
  He1      1.0000 0.13352  0.50366  0.56623  Biso   1.000  He
  He2      1.0000 0.83285  0.56562  0.51370  Biso   1.000  He
  He3      1.0000 0.63319  0.44579  0.41733  Biso   1.000  He
  Ar1      1.0000 1.00000  0.50000  0.50000  Biso   1.000  Ar
  Ne2      1.0000 0.01627  0.99882  0.99403  Biso   1.000  Ne
  He4      1.0000 0.13477  0.99648  0.06618  Biso   1.000  He
  He5      1.0000 0.86875  0.00397  0.93372  Biso   1.000  He
  Ar2      1.0000 0.01135  0.00002  0.00249  Biso   1.000  Ar
