data_image0
_cell_length_a       19.574
_cell_length_b       15.805
_cell_length_c       15.84
_cell_angle_alpha    90
_cell_angle_beta     90
_cell_angle_gamma    90

_symmetry_space_group_name_H-M    "P 1"
_symmetry_int_tables_number       1

loop_
  _symmetry_equiv_pos_as_xyz
  'x, y, z'

loop_
  _atom_site_label
  _atom_site_occupancy
  _atom_site_fract_x
  _atom_site_fract_y
  _atom_site_fract_z
  _atom_site_thermal_displace_type
  _atom_site_B_iso_or_equiv
  _atom_site_type_symbol
  C1       1.0000 0.70660  0.45599  0.52348  Biso   1.000  C
  N1       1.0000 0.67002  0.39741  0.47083  Biso   1.000  N
  N2       1.0000 0.66752  0.50180  0.58460  Biso   1.000  N
  C2       1.0000 0.75370  0.39722  0.57980  Biso   1.000  C
  H1       1.0000 0.73490  0.49541  0.48864  Biso   1.000  H
  C3       1.0000 0.62450  0.42037  0.40309  Biso   1.000  C
  C4       1.0000 0.68642  0.31648  0.48611  Biso   1.000  C
  C5       1.0000 0.62552  0.57469  0.56471  Biso   1.000  C
  C6       1.0000 0.68663  0.48497  0.66540  Biso   1.000  C
  N3       1.0000 0.73220  0.31401  0.55278  Biso   1.000  N
  N4       1.0000 0.73501  0.42170  0.66604  Biso   1.000  N
  H2       1.0000 0.80331  0.40702  0.56818  Biso   1.000  H
  N5       1.0000 0.55671  0.44378  0.43018  Biso   1.000  N
  H3       1.0000 0.64468  0.46840  0.37172  Biso   1.000  H
  H4       1.0000 0.62093  0.37210  0.36357  Biso   1.000  H
  O1       1.0000 0.66782  0.25448  0.44470  Biso   1.000  O
  N6       1.0000 0.55640  0.55191  0.53990  Biso   1.000  N
  H5       1.0000 0.62343  0.61208  0.61484  Biso   1.000  H
  H6       1.0000 0.64729  0.60677  0.51831  Biso   1.000  H
  O2       1.0000 0.66818  0.52332  0.73011  Biso   1.000  O
  C7       1.0000 0.76561  0.23670  0.57872  Biso   1.000  C
  C8       1.0000 0.76203  0.38361  0.73952  Biso   1.000  C
  C9       1.0000 0.50000  0.39760  0.41351  Biso   1.000  C
  C10      1.0000 0.53959  0.53028  0.45549  Biso   1.000  C
  C11      1.0000 0.50000  0.57102  0.58668  Biso   1.000  C
  N7       1.0000 0.73659  0.19892  0.65429  Biso   1.000  N
  H7       1.0000 0.76270  0.19519  0.53201  Biso   1.000  H
  H8       1.0000 0.81450  0.24872  0.58889  Biso   1.000  H
  N8       1.0000 0.72903  0.30560  0.76509  Biso   1.000  N
  H9       1.0000 0.81113  0.37191  0.72999  Biso   1.000  H
  H10      1.0000 0.75861  0.42461  0.78662  Biso   1.000  H
  N9       1.0000 0.44329  0.44378  0.43018  Biso   1.000  N
  O3       1.0000 0.50000  0.32458  0.38592  Biso   1.000  O
  C12      1.0000 0.46041  0.53028  0.45549  Biso   1.000  C
  H11      1.0000 0.55819  0.57260  0.41458  Biso   1.000  H
  N10      1.0000 0.44360  0.55191  0.53990  Biso   1.000  N
  O4       1.0000 0.50000  0.60089  0.65751  Biso   1.000  O
  C13      1.0000 0.68862  0.13673  0.64931  Biso   1.000  C
  C14      1.0000 0.75212  0.22158  0.73838  Biso   1.000  C
  C15      1.0000 0.68489  0.30218  0.82860  Biso   1.000  C
  C16      1.0000 0.37550  0.42037  0.40309  Biso   1.000  C
  H12      1.0000 0.44181  0.57260  0.41458  Biso   1.000  H
  C17      1.0000 0.37453  0.57469  0.56471  Biso   1.000  C
  N11      1.0000 0.66691  0.11838  0.72992  Biso   1.000  N
  O5       1.0000 0.66869  0.10212  0.58491  Biso   1.000  O
  C18      1.0000 0.70772  0.16242  0.79160  Biso   1.000  C
  H13      1.0000 0.80173  0.21329  0.75088  Biso   1.000  H
  N12      1.0000 0.67033  0.21949  0.84722  Biso   1.000  N
  O6       1.0000 0.66343  0.36216  0.87109  Biso   1.000  O
  N13      1.0000 0.32998  0.39741  0.47083  Biso   1.000  N
  H14      1.0000 0.35532  0.46840  0.37172  Biso   1.000  H
  H15      1.0000 0.37913  0.37210  0.36357  Biso   1.000  H
  N14      1.0000 0.33248  0.50180  0.58460  Biso   1.000  N
  H16      1.0000 0.37662  0.61208  0.61484  Biso   1.000  H
  H17      1.0000 0.35271  0.60677  0.51831  Biso   1.000  H
  C19      1.0000 0.62399  0.04600  0.74710  Biso   1.000  C
  H18      1.0000 0.73649  0.12211  0.82481  Biso   1.000  H
  C20      1.0000 0.62420  0.19317  0.91471  Biso   1.000  C
  C21      1.0000 0.31358  0.31648  0.48611  Biso   1.000  C
  C22      1.0000 0.29340  0.45599  0.52348  Biso   1.000  C
  C23      1.0000 0.31343  0.48497  0.66540  Biso   1.000  C
  N15      1.0000 0.55589  0.06650  0.77374  Biso   1.000  N
  H19      1.0000 0.64591  0.01152  0.79173  Biso   1.000  H
  H20      1.0000 0.62128  0.01088  0.69552  Biso   1.000  H
  N16      1.0000 0.55671  0.17058  0.88504  Biso   1.000  N
  H21      1.0000 0.62001  0.23992  0.95600  Biso   1.000  H
  H22      1.0000 0.64432  0.14407  0.94432  Biso   1.000  H
  O7       1.0000 0.33223  0.25448  0.44470  Biso   1.000  O
  N17      1.0000 0.26780  0.31401  0.55278  Biso   1.000  N
  C24      1.0000 0.24630  0.39722  0.57980  Biso   1.000  C
  H23      1.0000 0.26510  0.49541  0.48864  Biso   1.000  H
  N18      1.0000 0.26499  0.42170  0.66604  Biso   1.000  N
  O8       1.0000 0.33182  0.52332  0.73011  Biso   1.000  O
  C25      1.0000 0.50000  0.05112  0.72500  Biso   1.000  C
  C26      1.0000 0.53832  0.08643  0.86130  Biso   1.000  C
  C27      1.0000 0.50000  0.21759  0.90928  Biso   1.000  C
  C28      1.0000 0.23439  0.23670  0.57872  Biso   1.000  C
  H24      1.0000 0.19669  0.40702  0.56818  Biso   1.000  H
  C29      1.0000 0.23802  0.38361  0.73952  Biso   1.000  C
  N19      1.0000 0.44411  0.06650  0.77374  Biso   1.000  N
  O9       1.0000 0.50000  0.02847  0.65120  Biso   1.000  O
  C30      1.0000 0.46168  0.08643  0.86130  Biso   1.000  C
  H25      1.0000 0.55722  0.04353  0.90152  Biso   1.000  H
  N20      1.0000 0.44329  0.17058  0.88504  Biso   1.000  N
  O10      1.0000 0.50000  0.28580  0.94343  Biso   1.000  O
  N21      1.0000 0.26341  0.19892  0.65429  Biso   1.000  N
  H26      1.0000 0.23730  0.19519  0.53201  Biso   1.000  H
  H27      1.0000 0.18550  0.24872  0.58889  Biso   1.000  H
  N22      1.0000 0.27102  0.30560  0.76509  Biso   1.000  N
  H28      1.0000 0.18892  0.37191  0.72999  Biso   1.000  H
  H29      1.0000 0.24139  0.42461  0.78662  Biso   1.000  H
  C31      1.0000 0.37601  0.04600  0.74710  Biso   1.000  C
  H30      1.0000 0.44278  0.04353  0.90152  Biso   1.000  H
  C32      1.0000 0.37580  0.19317  0.91471  Biso   1.000  C
  C33      1.0000 0.31138  0.13673  0.64931  Biso   1.000  C
  C34      1.0000 0.24788  0.22158  0.73838  Biso   1.000  C
  C35      1.0000 0.31511  0.30218  0.82860  Biso   1.000  C
  N23      1.0000 0.33309  0.11838  0.72992  Biso   1.000  N
  H31      1.0000 0.35409  0.01152  0.79173  Biso   1.000  H
  H32      1.0000 0.37872  0.01088  0.69552  Biso   1.000  H
  N24      1.0000 0.32972  0.21949  0.84722  Biso   1.000  N
  H33      1.0000 0.37999  0.23992  0.95600  Biso   1.000  H
  H34      1.0000 0.35573  0.14407  0.94432  Biso   1.000  H
  O11      1.0000 0.33131  0.10212  0.58491  Biso   1.000  O
  C36      1.0000 0.29233  0.16242  0.79160  Biso   1.000  C
  H35      1.0000 0.19832  0.21329  0.75088  Biso   1.000  H
  O12      1.0000 0.33662  0.36216  0.87109  Biso   1.000  O
  H36      1.0000 0.26351  0.12211  0.82481  Biso   1.000  H
  O13      1.0000 0.66343  0.63777  0.37109  Biso   1.000  O
  C37      1.0000 0.68489  0.69782  0.32860  Biso   1.000  C
  N25      1.0000 0.67033  0.78051  0.34722  Biso   1.000  N
  N26      1.0000 0.72903  0.69440  0.26509  Biso   1.000  N
  C38      1.0000 0.62420  0.80677  0.41471  Biso   1.000  C
  C39      1.0000 0.70772  0.83758  0.29160  Biso   1.000  C
  C40      1.0000 0.76203  0.61639  0.23952  Biso   1.000  C
  C41      1.0000 0.75212  0.77836  0.23838  Biso   1.000  C
  N27      1.0000 0.55671  0.82942  0.38497  Biso   1.000  N
  H37      1.0000 0.62001  0.76008  0.45600  Biso   1.000  H
  H38      1.0000 0.64432  0.85587  0.44432  Biso   1.000  H
  N28      1.0000 0.66691  0.88162  0.22992  Biso   1.000  N
  H39      1.0000 0.73649  0.87789  0.32481  Biso   1.000  H
  N29      1.0000 0.73501  0.57830  0.16597  Biso   1.000  N
  H40      1.0000 0.81113  0.62809  0.22999  Biso   1.000  H
  H41      1.0000 0.75861  0.57539  0.28662  Biso   1.000  H
  N30      1.0000 0.73659  0.80108  0.15429  Biso   1.000  N
  H42      1.0000 0.80173  0.78671  0.25088  Biso   1.000  H
  C42      1.0000 0.50000  0.78241  0.40928  Biso   1.000  C
  C43      1.0000 0.53832  0.91357  0.36130  Biso   1.000  C
  C44      1.0000 0.62399  0.95400  0.24710  Biso   1.000  C
  C45      1.0000 0.68862  0.86327  0.14931  Biso   1.000  C
  C46      1.0000 0.68663  0.51496  0.16540  Biso   1.000  C
  C47      1.0000 0.75370  0.60278  0.07980  Biso   1.000  C
  C48      1.0000 0.76561  0.76330  0.07872  Biso   1.000  C
  N31      1.0000 0.44329  0.82942  0.38497  Biso   1.000  N
  O14      1.0000 0.50000  0.71420  0.44343  Biso   1.000  O
  C49      1.0000 0.46168  0.91357  0.36130  Biso   1.000  C
  N32      1.0000 0.55589  0.93350  0.27367  Biso   1.000  N
  H43      1.0000 0.55722  0.95647  0.40152  Biso   1.000  H
  H44      1.0000 0.64591  0.98848  0.29173  Biso   1.000  H
  H45      1.0000 0.62128  0.98912  0.19552  Biso   1.000  H
  O15      1.0000 0.66869  0.89788  0.08491  Biso   1.000  O
  N33      1.0000 0.66752  0.49820  0.08460  Biso   1.000  N
  O16      1.0000 0.66818  0.47668  0.23011  Biso   1.000  O
  C50      1.0000 0.70660  0.54401  0.02348  Biso   1.000  C
  N34      1.0000 0.73220  0.68599  0.05278  Biso   1.000  N
  H46      1.0000 0.80331  0.59298  0.06818  Biso   1.000  H
  H47      1.0000 0.76270  0.80481  0.03201  Biso   1.000  H
  H48      1.0000 0.81450  0.75128  0.08889  Biso   1.000  H
  C51      1.0000 0.37580  0.80677  0.41471  Biso   1.000  C
  N35      1.0000 0.44411  0.93350  0.27367  Biso   1.000  N
  H49      1.0000 0.44278  0.95647  0.40152  Biso   1.000  H
  C52      1.0000 0.50000  0.94888  0.22500  Biso   1.000  C
  C53      1.0000 0.62552  0.42531  0.06471  Biso   1.000  C
  N36      1.0000 0.67002  0.60259  0.97077  Biso   1.000  N
  H50      1.0000 0.73490  0.50459  0.98857  Biso   1.000  H
  C54      1.0000 0.68642  0.68352  0.98611  Biso   1.000  C
  N37      1.0000 0.32972  0.78051  0.34722  Biso   1.000  N
  H51      1.0000 0.37999  0.76008  0.45600  Biso   1.000  H
  H52      1.0000 0.35573  0.85587  0.44432  Biso   1.000  H
  C55      1.0000 0.37601  0.95400  0.24710  Biso   1.000  C
  O17      1.0000 0.50000  0.97146  0.15120  Biso   1.000  O
  N38      1.0000 0.55640  0.44809  0.03990  Biso   1.000  N
  H53      1.0000 0.62343  0.38792  0.11477  Biso   1.000  H
  H54      1.0000 0.64729  0.39317  0.01831  Biso   1.000  H
  C56      1.0000 0.62450  0.57956  0.90309  Biso   1.000  C
  O18      1.0000 0.66782  0.74546  0.94470  Biso   1.000  O
  C57      1.0000 0.31511  0.69782  0.32860  Biso   1.000  C
  C58      1.0000 0.29233  0.83758  0.29160  Biso   1.000  C
  N39      1.0000 0.33309  0.88162  0.22992  Biso   1.000  N
  H55      1.0000 0.35409  0.98848  0.29173  Biso   1.000  H
  H56      1.0000 0.37872  0.98912  0.19552  Biso   1.000  H
  C59      1.0000 0.50000  0.42898  0.08668  Biso   1.000  C
  C60      1.0000 0.53959  0.46972  0.95549  Biso   1.000  C
  N40      1.0000 0.55671  0.55622  0.93018  Biso   1.000  N
  H57      1.0000 0.64468  0.53160  0.87172  Biso   1.000  H
  H58      1.0000 0.62093  0.62790  0.86357  Biso   1.000  H
  N41      1.0000 0.27102  0.69440  0.26509  Biso   1.000  N
  O19      1.0000 0.33662  0.63777  0.37109  Biso   1.000  O
  C61      1.0000 0.24788  0.77836  0.23838  Biso   1.000  C
  H59      1.0000 0.26351  0.87789  0.32481  Biso   1.000  H
  C62      1.0000 0.31138  0.86327  0.14931  Biso   1.000  C
  N42      1.0000 0.44360  0.44809  0.03990  Biso   1.000  N
  O20      1.0000 0.50000  0.39911  0.15751  Biso   1.000  O
  C63      1.0000 0.46041  0.46972  0.95549  Biso   1.000  C
  H60      1.0000 0.55819  0.42740  0.91458  Biso   1.000  H
  C64      1.0000 0.50000  0.60240  0.91351  Biso   1.000  C
  C65      1.0000 0.23802  0.61639  0.23952  Biso   1.000  C
  N43      1.0000 0.26341  0.80108  0.15429  Biso   1.000  N
  H61      1.0000 0.19832  0.78671  0.25088  Biso   1.000  H
  O21      1.0000 0.33131  0.89788  0.08491  Biso   1.000  O
  C66      1.0000 0.37453  0.42531  0.06471  Biso   1.000  C
  N44      1.0000 0.44329  0.55622  0.93018  Biso   1.000  N
  H62      1.0000 0.44181  0.42740  0.91458  Biso   1.000  H
  O22      1.0000 0.50000  0.67542  0.88592  Biso   1.000  O
  N45      1.0000 0.26499  0.57830  0.16597  Biso   1.000  N
  H63      1.0000 0.18892  0.62809  0.22999  Biso   1.000  H
  H64      1.0000 0.24139  0.57539  0.28662  Biso   1.000  H
  C67      1.0000 0.23439  0.76330  0.07872  Biso   1.000  C
  N46      1.0000 0.33248  0.49820  0.08460  Biso   1.000  N
  H65      1.0000 0.37662  0.38792  0.11477  Biso   1.000  H
  H66      1.0000 0.35271  0.39317  0.01831  Biso   1.000  H
  C68      1.0000 0.37550  0.57956  0.90309  Biso   1.000  C
  C69      1.0000 0.31343  0.51496  0.16540  Biso   1.000  C
  C70      1.0000 0.24630  0.60278  0.07980  Biso   1.000  C
  N47      1.0000 0.26780  0.68599  0.05278  Biso   1.000  N
  H67      1.0000 0.23730  0.80481  0.03201  Biso   1.000  H
  H68      1.0000 0.18550  0.75128  0.08889  Biso   1.000  H
  C71      1.0000 0.29340  0.54401  0.02348  Biso   1.000  C
  N48      1.0000 0.32998  0.60259  0.97077  Biso   1.000  N
  H69      1.0000 0.35532  0.53160  0.87172  Biso   1.000  H
  H70      1.0000 0.37913  0.62790  0.86357  Biso   1.000  H
  O23      1.0000 0.33182  0.47668  0.23011  Biso   1.000  O
  H71      1.0000 0.19669  0.59298  0.06818  Biso   1.000  H
  C72      1.0000 0.31358  0.68352  0.98611  Biso   1.000  C
  H72      1.0000 0.26510  0.50459  0.98857  Biso   1.000  H
  O24      1.0000 0.33223  0.74546  0.94470  Biso   1.000  O
  O25      1.0000 0.83131  0.60209  0.58491  Biso   1.000  O
  C73      1.0000 0.81143  0.63670  0.64931  Biso   1.000  C
  N49      1.0000 0.76341  0.69889  0.65429  Biso   1.000  N
  N50      1.0000 0.83309  0.61841  0.72992  Biso   1.000  N
  C74      1.0000 0.73439  0.73667  0.57872  Biso   1.000  C
  C75      1.0000 0.74788  0.72161  0.73838  Biso   1.000  C
  C76      1.0000 0.74793  0.72161  0.73838  Biso   1.000  C
  C77      1.0000 0.79228  0.66239  0.79160  Biso   1.000  C
  C78      1.0000 0.79233  0.66239  0.79160  Biso   1.000  C
  C79      1.0000 0.87601  0.54597  0.74710  Biso   1.000  C
  N51      1.0000 0.76780  0.81398  0.55278  Biso   1.000  N
  H73      1.0000 0.73730  0.69516  0.53201  Biso   1.000  H
  H74      1.0000 0.68550  0.74869  0.58889  Biso   1.000  H
  N52      1.0000 0.77102  0.80557  0.76509  Biso   1.000  N
  H75      1.0000 0.69827  0.71332  0.75088  Biso   1.000  H
  H76      1.0000 0.69832  0.71332  0.75088  Biso   1.000  H
  N53      1.0000 0.82972  0.71952  0.84722  Biso   1.000  N
  H77      1.0000 0.76351  0.62208  0.82481  Biso   1.000  H
  N54      1.0000 0.94411  0.56647  0.77374  Biso   1.000  N
  H78      1.0000 0.85409  0.51148  0.79173  Biso   1.000  H
  H79      1.0000 0.87872  0.51091  0.69552  Biso   1.000  H
  C80      1.0000 0.74630  0.89718  0.57980  Biso   1.000  C
  C81      1.0000 0.81363  0.81651  0.48611  Biso   1.000  C
  C82      1.0000 0.81511  0.80221  0.82860  Biso   1.000  C
  C83      1.0000 0.73802  0.88358  0.73952  Biso   1.000  C
  C84      1.0000 0.87580  0.69320  0.91471  Biso   1.000  C
  C85      1.0000 0.00000  0.55109  0.72500  Biso   1.000  C
  C86      1.0000 0.96173  0.58640  0.86130  Biso   1.000  C
  N55      1.0000 0.76499  0.92167  0.66604  Biso   1.000  N
  H80      1.0000 0.69669  0.90699  0.56818  Biso   1.000  H
  C87      1.0000 0.79340  0.95596  0.52348  Biso   1.000  C
  N56      1.0000 0.82998  0.89737  0.47083  Biso   1.000  N
  O26      1.0000 0.83223  0.75451  0.44470  Biso   1.000  O
  N57      1.0000 0.83003  0.89737  0.47083  Biso   1.000  N
  O27      1.0000 0.83662  0.86220  0.87109  Biso   1.000  O
  H81      1.0000 0.74139  0.92458  0.78662  Biso   1.000  H
  H82      1.0000 0.68892  0.87188  0.72999  Biso   1.000  H
  N58      1.0000 0.94329  0.67061  0.88504  Biso   1.000  N
  H83      1.0000 0.87999  0.73989  0.95600  Biso   1.000  H
  H84      1.0000 0.85568  0.64410  0.94432  Biso   1.000  H
  H85      1.0000 0.85573  0.64410  0.94432  Biso   1.000  H
  H86      1.0000 0.94283  0.54350  0.90152  Biso   1.000  H
  C88      1.0000 0.03832  0.58640  0.86130  Biso   1.000  C
  O28      1.0000 0.00000  0.52850  0.65120  Biso   1.000  O
  N59      1.0000 0.05589  0.56647  0.77374  Biso   1.000  N
  C89      1.0000 0.81337  0.98500  0.66540  Biso   1.000  C
  C90      1.0000 0.81343  0.98500  0.66540  Biso   1.000  C
  H87      1.0000 0.76510  0.99538  0.48864  Biso   1.000  H
  N60      1.0000 0.83253  0.00177  0.58460  Biso   1.000  N
  C91      1.0000 0.87550  0.92040  0.40309  Biso   1.000  C
  C92      1.0000 0.00000  0.71762  0.90928  Biso   1.000  C
  N61      1.0000 0.05671  0.67061  0.88504  Biso   1.000  N
  H88      1.0000 0.05722  0.54350  0.90152  Biso   1.000  H
  C93      1.0000 0.12399  0.54597  0.74710  Biso   1.000  C
  O29      1.0000 0.83182  0.02328  0.73011  Biso   1.000  O
  C94      1.0000 0.87453  0.07466  0.56471  Biso   1.000  C
  N62      1.0000 0.94329  0.94382  0.43018  Biso   1.000  N
  H89      1.0000 0.85532  0.96836  0.37172  Biso   1.000  H
  H90      1.0000 0.87913  0.87207  0.36357  Biso   1.000  H
  O30      1.0000 0.00000  0.78576  0.94343  Biso   1.000  O
  C95      1.0000 0.12420  0.69320  0.91471  Biso   1.000  C
  N63      1.0000 0.16691  0.61841  0.72992  Biso   1.000  N
  H91      1.0000 0.14591  0.51148  0.79173  Biso   1.000  H
  H92      1.0000 0.12128  0.51091  0.69552  Biso   1.000  H
  H93      1.0000 0.12133  0.51091  0.69552  Biso   1.000  H
  N64      1.0000 0.94360  0.05188  0.53990  Biso   1.000  N
  H94      1.0000 0.87662  0.11212  0.61484  Biso   1.000  H
  H95      1.0000 0.85271  0.10680  0.51831  Biso   1.000  H
  C96      1.0000 0.00000  0.89756  0.41351  Biso   1.000  C
  C97      1.0000 0.96041  0.03031  0.45549  Biso   1.000  C
  N65      1.0000 0.17028  0.71952  0.84722  Biso   1.000  N
  H96      1.0000 0.12001  0.73989  0.95600  Biso   1.000  H
  H97      1.0000 0.14432  0.64410  0.94432  Biso   1.000  H
  N66      1.0000 0.17033  0.71952  0.84722  Biso   1.000  N
  C98      1.0000 0.20772  0.66239  0.79160  Biso   1.000  C
  C99      1.0000 0.18862  0.63670  0.64931  Biso   1.000  C
  C100     1.0000 0.00000  0.07099  0.58668  Biso   1.000  C
  O31      1.0000 0.00000  0.82461  0.38592  Biso   1.000  O
  N67      1.0000 0.05671  0.94382  0.43018  Biso   1.000  N
  H98      1.0000 0.94181  0.07257  0.41458  Biso   1.000  H
  C101     1.0000 0.03959  0.03031  0.45549  Biso   1.000  C
  C102     1.0000 0.18489  0.80221  0.82860  Biso   1.000  C
  H99      1.0000 0.23649  0.62208  0.82481  Biso   1.000  H
  C103     1.0000 0.25212  0.72161  0.73838  Biso   1.000  C
  O32      1.0000 0.16869  0.60209  0.58491  Biso   1.000  O
  N68      1.0000 0.23659  0.69889  0.65429  Biso   1.000  N
  O33      1.0000 0.00000  0.10092  0.65751  Biso   1.000  O
  N69      1.0000 0.05640  0.05188  0.53990  Biso   1.000  N
  C104     1.0000 0.12450  0.92040  0.40309  Biso   1.000  C
  H100     1.0000 0.05819  0.07257  0.41458  Biso   1.000  H
  O34      1.0000 0.16338  0.86220  0.87109  Biso   1.000  O
  O35      1.0000 0.16343  0.86220  0.87109  Biso   1.000  O
  N70      1.0000 0.22903  0.80557  0.76509  Biso   1.000  N
  H101     1.0000 0.30173  0.71332  0.75088  Biso   1.000  H
  C105     1.0000 0.26561  0.73667  0.57872  Biso   1.000  C
  C106     1.0000 0.12552  0.07466  0.56471  Biso   1.000  C
  N71      1.0000 0.17002  0.89737  0.47083  Biso   1.000  N
  H102     1.0000 0.14468  0.96836  0.37172  Biso   1.000  H
  H103     1.0000 0.12093  0.87207  0.36357  Biso   1.000  H
  H104     1.0000 0.14473  0.96836  0.37172  Biso   1.000  H
  C107     1.0000 0.26203  0.88358  0.73952  Biso   1.000  C
  N72      1.0000 0.23220  0.81398  0.55278  Biso   1.000  N
  H105     1.0000 0.26270  0.69516  0.53201  Biso   1.000  H
  H106     1.0000 0.31450  0.74869  0.58889  Biso   1.000  H
  N73      1.0000 0.16752  0.00177  0.58460  Biso   1.000  N
  H107     1.0000 0.14729  0.10680  0.51831  Biso   1.000  H
  H108     1.0000 0.12343  0.11212  0.61484  Biso   1.000  H
  C108     1.0000 0.18642  0.81651  0.48611  Biso   1.000  C
  C109     1.0000 0.20660  0.95596  0.52348  Biso   1.000  C
  N74      1.0000 0.23501  0.92167  0.66604  Biso   1.000  N
  H109     1.0000 0.31113  0.87188  0.72999  Biso   1.000  H
  H110     1.0000 0.25861  0.92458  0.78662  Biso   1.000  H
  C110     1.0000 0.25370  0.89718  0.57980  Biso   1.000  C
  C111     1.0000 0.18663  0.98500  0.66540  Biso   1.000  C
  O36      1.0000 0.16782  0.75451  0.44470  Biso   1.000  O
  H111     1.0000 0.23490  0.99538  0.48864  Biso   1.000  H
  H112     1.0000 0.30331  0.90699  0.56818  Biso   1.000  H
  O37      1.0000 0.16818  0.02328  0.73011  Biso   1.000  O
  O38      1.0000 0.16823  0.02328  0.73011  Biso   1.000  O
  C112     1.0000 0.79228  0.33761  0.29160  Biso   1.000  C
  C113     1.0000 0.74788  0.27839  0.23838  Biso   1.000  C
  C114     1.0000 0.74793  0.27839  0.23838  Biso   1.000  C
  N75      1.0000 0.82972  0.28048  0.34722  Biso   1.000  N
  N76      1.0000 0.83309  0.38159  0.22992  Biso   1.000  N
  H113     1.0000 0.76351  0.37792  0.32481  Biso   1.000  H
  N77      1.0000 0.77102  0.19437  0.26509  Biso   1.000  N
  N78      1.0000 0.76341  0.30111  0.15429  Biso   1.000  N
  H114     1.0000 0.69827  0.28668  0.25088  Biso   1.000  H
  C115     1.0000 0.79233  0.33761  0.29160  Biso   1.000  C
  H115     1.0000 0.69832  0.28668  0.25088  Biso   1.000  H
  C116     1.0000 0.81511  0.19779  0.32860  Biso   1.000  C
  C117     1.0000 0.87580  0.30680  0.41471  Biso   1.000  C
  C118     1.0000 0.81143  0.36330  0.14931  Biso   1.000  C
  C119     1.0000 0.87601  0.45397  0.24710  Biso   1.000  C
  C120     1.0000 0.73802  0.11642  0.23952  Biso   1.000  C
  C121     1.0000 0.73439  0.26327  0.07872  Biso   1.000  C
  O39      1.0000 0.83662  0.13780  0.37109  Biso   1.000  O
  N79      1.0000 0.94329  0.32939  0.38497  Biso   1.000  N
  H116     1.0000 0.87999  0.26011  0.45600  Biso   1.000  H
  H117     1.0000 0.85568  0.35590  0.44432  Biso   1.000  H
  H118     1.0000 0.85573  0.35590  0.44432  Biso   1.000  H
  O40      1.0000 0.83131  0.39791  0.08491  Biso   1.000  O
  N80      1.0000 0.94411  0.43347  0.27367  Biso   1.000  N
  H119     1.0000 0.85409  0.48852  0.29173  Biso   1.000  H
  H120     1.0000 0.87872  0.48909  0.19552  Biso   1.000  H
  N81      1.0000 0.76499  0.07833  0.16597  Biso   1.000  N
  H121     1.0000 0.74139  0.07542  0.28662  Biso   1.000  H
  H122     1.0000 0.68892  0.12812  0.22999  Biso   1.000  H
  N82      1.0000 0.76780  0.18602  0.05278  Biso   1.000  N
  H123     1.0000 0.73730  0.30478  0.03201  Biso   1.000  H
  H124     1.0000 0.68550  0.25131  0.08889  Biso   1.000  H
  C122     1.0000 0.00000  0.28238  0.40928  Biso   1.000  C
  C123     1.0000 0.96173  0.41360  0.36130  Biso   1.000  C
  C124     1.0000 0.00000  0.44891  0.22500  Biso   1.000  C
  C125     1.0000 0.74630  0.10282  0.07980  Biso   1.000  C
  C126     1.0000 0.81337  0.01500  0.16540  Biso   1.000  C
  C127     1.0000 0.81343  0.01500  0.16540  Biso   1.000  C
  C128     1.0000 0.81363  0.18349  0.98611  Biso   1.000  C
  H125     1.0000 0.94283  0.45650  0.40152  Biso   1.000  H
  C129     1.0000 0.03832  0.41360  0.36130  Biso   1.000  C
  O41      1.0000 0.00000  0.21417  0.44343  Biso   1.000  O
  N83      1.0000 0.05671  0.32939  0.38497  Biso   1.000  N
  N84      1.0000 0.05589  0.43347  0.27367  Biso   1.000  N
  O42      1.0000 0.00000  0.47150  0.15120  Biso   1.000  O
  H126     1.0000 0.69669  0.09301  0.06818  Biso   1.000  H
  C130     1.0000 0.79340  0.04397  0.02348  Biso   1.000  C
  O43      1.0000 0.83182  0.97672  0.23011  Biso   1.000  O
  N85      1.0000 0.83253  0.99823  0.08460  Biso   1.000  N
  N86      1.0000 0.82998  0.10263  0.97077  Biso   1.000  N
  N87      1.0000 0.83003  0.10263  0.97077  Biso   1.000  N
  O44      1.0000 0.83223  0.24549  0.94470  Biso   1.000  O
  H127     1.0000 0.05722  0.45650  0.40152  Biso   1.000  H
  C131     1.0000 0.12420  0.30680  0.41471  Biso   1.000  C
  C132     1.0000 0.12399  0.45397  0.24710  Biso   1.000  C
  H128     1.0000 0.76510  0.00462  0.98857  Biso   1.000  H
  C133     1.0000 0.87453  0.92528  0.06471  Biso   1.000  C
  C134     1.0000 0.87550  0.07960  0.90309  Biso   1.000  C
  N88      1.0000 0.17028  0.28048  0.34722  Biso   1.000  N
  H129     1.0000 0.12001  0.26011  0.45600  Biso   1.000  H
  H130     1.0000 0.14432  0.35590  0.44432  Biso   1.000  H
  N89      1.0000 0.17033  0.28048  0.34722  Biso   1.000  N
  N90      1.0000 0.16691  0.38159  0.22992  Biso   1.000  N
  H131     1.0000 0.14591  0.48852  0.29173  Biso   1.000  H
  H132     1.0000 0.12128  0.48909  0.19552  Biso   1.000  H
  H133     1.0000 0.12133  0.48909  0.19552  Biso   1.000  H
  N91      1.0000 0.94360  0.94812  0.03990  Biso   1.000  N
  H134     1.0000 0.87662  0.88788  0.11477  Biso   1.000  H
  H135     1.0000 0.85271  0.89320  0.01831  Biso   1.000  H
  N92      1.0000 0.94329  0.05618  0.93018  Biso   1.000  N
  H136     1.0000 0.85532  0.03157  0.87172  Biso   1.000  H
  H137     1.0000 0.87913  0.12787  0.86357  Biso   1.000  H
  C135     1.0000 0.20772  0.33761  0.29160  Biso   1.000  C
  C136     1.0000 0.18489  0.19779  0.32860  Biso   1.000  C
  C137     1.0000 0.18862  0.36330  0.14931  Biso   1.000  C
  C138     1.0000 0.96041  0.96969  0.95549  Biso   1.000  C
  C139     1.0000 0.00000  0.92901  0.08668  Biso   1.000  C
  C140     1.0000 0.00000  0.10237  0.91351  Biso   1.000  C
  H138     1.0000 0.23649  0.37792  0.32481  Biso   1.000  H
  C141     1.0000 0.25212  0.27839  0.23838  Biso   1.000  C
  O45      1.0000 0.16338  0.13780  0.37109  Biso   1.000  O
  O46      1.0000 0.16343  0.13780  0.37109  Biso   1.000  O
  N93      1.0000 0.22903  0.19437  0.26509  Biso   1.000  N
  O47      1.0000 0.16869  0.39791  0.08491  Biso   1.000  O
  N94      1.0000 0.23659  0.30111  0.15429  Biso   1.000  N
  H139     1.0000 0.94181  0.92743  0.91458  Biso   1.000  H
  C142     1.0000 0.03959  0.96969  0.95549  Biso   1.000  C
  O48      1.0000 0.00000  0.89908  0.15751  Biso   1.000  O
  N95      1.0000 0.05640  0.94812  0.03990  Biso   1.000  N
  O49      1.0000 0.00000  0.17539  0.88592  Biso   1.000  O
  N96      1.0000 0.05671  0.05618  0.93018  Biso   1.000  N
  H140     1.0000 0.30173  0.28668  0.25088  Biso   1.000  H
  C143     1.0000 0.26203  0.11642  0.23952  Biso   1.000  C
  C144     1.0000 0.26561  0.26327  0.07872  Biso   1.000  C
  H141     1.0000 0.05819  0.92743  0.91458  Biso   1.000  H
  C145     1.0000 0.12552  0.92528  0.06471  Biso   1.000  C
  C146     1.0000 0.12450  0.07960  0.90309  Biso   1.000  C
  N97      1.0000 0.23501  0.07833  0.16597  Biso   1.000  N
  H142     1.0000 0.31113  0.12812  0.22999  Biso   1.000  H
  H143     1.0000 0.25861  0.07542  0.28662  Biso   1.000  H
  N98      1.0000 0.23220  0.18602  0.05278  Biso   1.000  N
  H144     1.0000 0.26270  0.30478  0.03201  Biso   1.000  H
  H145     1.0000 0.31450  0.25131  0.08889  Biso   1.000  H
  N99      1.0000 0.16752  0.99823  0.08460  Biso   1.000  N
  H146     1.0000 0.14729  0.89320  0.01831  Biso   1.000  H
  H147     1.0000 0.12343  0.88788  0.11477  Biso   1.000  H
  N100     1.0000 0.17002  0.10263  0.97077  Biso   1.000  N
  H148     1.0000 0.14468  0.03157  0.87172  Biso   1.000  H
  H149     1.0000 0.12093  0.12787  0.86357  Biso   1.000  H
  H150     1.0000 0.14473  0.03157  0.87172  Biso   1.000  H
  C147     1.0000 0.18663  0.01500  0.16540  Biso   1.000  C
  C148     1.0000 0.25370  0.10282  0.07980  Biso   1.000  C
  C149     1.0000 0.18642  0.18349  0.98611  Biso   1.000  C
  C150     1.0000 0.20660  0.04397  0.02348  Biso   1.000  C
  O50      1.0000 0.16818  0.97672  0.23011  Biso   1.000  O
  O51      1.0000 0.16823  0.97672  0.23011  Biso   1.000  O
  H151     1.0000 0.30331  0.09301  0.06818  Biso   1.000  H
  O52      1.0000 0.16782  0.24549  0.94470  Biso   1.000  O
  H152     1.0000 0.23490  0.00462  0.98857  Biso   1.000  H
  Ne1      1.0000 0.50001  0.30944  0.65817  Biso   1.000  Ne
  He1      1.0000 0.48553  0.45265  0.81069  Biso   1.000  He
  He2      1.0000 0.47292  0.17228  0.51384  Biso   1.000  He
  Ar1      1.0000 0.50001  0.30820  0.66162  Biso   1.000  Ar
  Ne2      1.0000 0.50001  0.69055  0.15816  Biso   1.000  Ne
  He3      1.0000 0.51453  0.54440  0.31393  Biso   1.000  He
  He4      1.0000 0.52710  0.82860  0.01283  Biso   1.000  He
  Ar2      1.0000 0.50001  0.69179  0.16162  Biso   1.000  Ar
  Ne3      1.0000 0.99760  0.18771  0.16488  Biso   1.000  Ne
  He5      1.0000 0.98540  0.03782  0.32111  Biso   1.000  He
  He6      1.0000 0.02705  0.35424  0.98433  Biso   1.000  He
  Ar3      1.0000 0.99759  0.18710  0.16330  Biso   1.000  Ar
  Ne4      1.0000 0.99760  0.81228  0.66489  Biso   1.000  Ne
  He7      1.0000 0.98563  0.94765  0.80520  Biso   1.000  He
  He8      1.0000 0.02711  0.68081  0.52328  Biso   1.000  He
  Ar4      1.0000 0.99758  0.81290  0.66331  Biso   1.000  Ar
