data_image0
_cell_length_a       22.312
_cell_length_b       8.293
_cell_length_c       16.171
_cell_angle_alpha    90
_cell_angle_beta     122.53
_cell_angle_gamma    90

_symmetry_space_group_name_H-M    "P 1"
_symmetry_int_tables_number       1

loop_
  _symmetry_equiv_pos_as_xyz
  'x, y, z'

loop_
  _atom_site_label
  _atom_site_occupancy
  _atom_site_fract_x
  _atom_site_fract_y
  _atom_site_fract_z
  _atom_site_thermal_displace_type
  _atom_site_B_iso_or_equiv
  _atom_site_type_symbol
  C1       1.0000 0.69834  0.52599  0.50396  Biso   1.000  C
  N1       1.0000 0.63040  0.56228  0.49340  Biso   1.000  N
  H1       1.0000 0.70129  0.40902  0.49428  Biso   1.000  H
  H2       1.0000 0.73787  0.55444  0.57100  Biso   1.000  H
  C2       1.0000 0.70545  0.62028  0.42930  Biso   1.000  C
  C3       1.0000 0.58980  0.44495  0.48123  Biso   1.000  C
  N2       1.0000 0.65399  0.56481  0.32889  Biso   1.000  N
  H3       1.0000 0.69757  0.73628  0.43472  Biso   1.000  H
  H4       1.0000 0.75429  0.60738  0.44353  Biso   1.000  H
  C4       1.0000 0.52212  0.47606  0.47294  Biso   1.000  C
  H5       1.0000 0.60318  0.33775  0.47749  Biso   1.000  H
  C5       1.0000 0.68191  0.42783  0.30219  Biso   1.000  C
  C6       1.0000 0.62973  0.69637  0.25708  Biso   1.000  C
  N3       1.0000 0.48595  0.36115  0.47638  Biso   1.000  N
  H6       1.0000 0.50508  0.58362  0.46487  Biso   1.000  H
  C7       1.0000 0.62301  0.32087  0.22547  Biso   1.000  C
  H7       1.0000 0.71358  0.36320  0.36160  Biso   1.000  H
  H8       1.0000 0.71057  0.46883  0.27659  Biso   1.000  H
  C8       1.0000 0.57426  0.80188  0.25701  Biso   1.000  C
  H9       1.0000 0.60949  0.64983  0.19077  Biso   1.000  H
  H10      1.0000 0.67098  0.76378  0.27197  Biso   1.000  H
  C9       1.0000 0.42194  0.40396  0.47521  Biso   1.000  C
  N4       1.0000 0.58421  0.24768  0.26529  Biso   1.000  N
  H11      1.0000 0.58997  0.38575  0.16679  Biso   1.000  H
  H12      1.0000 0.64356  0.23538  0.20530  Biso   1.000  H
  N5       1.0000 0.50785  0.71361  0.21806  Biso   1.000  N
  H13      1.0000 0.59190  0.83769  0.32470  Biso   1.000  H
  H14      1.0000 0.56577  0.89895  0.21637  Biso   1.000  H
  C10      1.0000 0.35850  0.30978  0.39673  Biso   1.000  C
  H15      1.0000 0.41268  0.52092  0.46238  Biso   1.000  H
  H16      1.0000 0.42940  0.38056  0.54012  Biso   1.000  H
  C11      1.0000 0.51788  0.27107  0.21953  Biso   1.000  C
  C12      1.0000 0.47293  0.73315  0.25840  Biso   1.000  C
  N6       1.0000 0.33661  0.36296  0.29801  Biso   1.000  N
  H17      1.0000 0.37067  0.19366  0.40392  Biso   1.000  H
  H18      1.0000 0.31829  0.32341  0.40590  Biso   1.000  H
  C13      1.0000 0.47550  0.19872  0.25429  Biso   1.000  C
  H19      1.0000 0.49539  0.33595  0.16217  Biso   1.000  H
  C14      1.0000 0.40336  0.65802  0.21549  Biso   1.000  C
  H20      1.0000 0.49200  0.79645  0.31620  Biso   1.000  H
  C15      1.0000 0.30922  0.23092  0.22715  Biso   1.000  C
  C16      1.0000 0.28738  0.49861  0.26610  Biso   1.000  C
  N7       1.0000 0.40805  0.20644  0.20244  Biso   1.000  N
  H21      1.0000 0.49846  0.14554  0.31598  Biso   1.000  H
  N8       1.0000 0.36312  0.68781  0.24666  Biso   1.000  N
  H22      1.0000 0.38768  0.58471  0.16261  Biso   1.000  H
  H23      1.0000 0.28178  0.27602  0.15997  Biso   1.000  H
  H24      1.0000 0.27651  0.16448  0.23662  Biso   1.000  H
  C17      1.0000 0.36829  0.12444  0.23750  Biso   1.000  C
  H25      1.0000 0.29709  0.56096  0.32426  Biso   1.000  H
  H26      1.0000 0.23821  0.45713  0.23309  Biso   1.000  H
  C18      1.0000 0.29342  0.61051  0.19605  Biso   1.000  C
  H27      1.0000 0.40088  0.09478  0.30732  Biso   1.000  H
  H28      1.0000 0.34759  0.02375  0.19958  Biso   1.000  H
  H29      1.0000 0.28670  0.54769  0.13958  Biso   1.000  H
  H30      1.0000 0.25580  0.69372  0.17082  Biso   1.000  H
  C19      1.0000 0.80917  0.26914  0.72716  Biso   1.000  C
  N9       1.0000 0.83661  0.13698  0.79801  Biso   1.000  N
  H31      1.0000 0.78178  0.22404  0.65997  Biso   1.000  H
  H32      1.0000 0.77647  0.33546  0.73662  Biso   1.000  H
  C20      1.0000 0.86828  0.37562  0.73750  Biso   1.000  C
  C21      1.0000 0.78733  0.00133  0.76610  Biso   1.000  C
  C22      1.0000 0.85845  0.19016  0.89673  Biso   1.000  C
  H33      1.0000 0.90085  0.40516  0.80725  Biso   1.000  H
  H34      1.0000 0.84754  0.47618  0.69958  Biso   1.000  H
  N10      1.0000 0.90802  0.29350  0.70237  Biso   1.000  N
  H35      1.0000 0.73816  0.04293  0.73310  Biso   1.000  H
  H36      1.0000 0.79705  0.93898  0.82427  Biso   1.000  H
  C23      1.0000 0.79342  0.88955  0.69606  Biso   1.000  C
  H37      1.0000 0.87067  0.30628  0.90392  Biso   1.000  H
  H38      1.0000 0.81828  0.17653  0.90590  Biso   1.000  H
  C24      1.0000 0.92191  0.09598  0.97514  Biso   1.000  C
  C25      1.0000 0.97545  0.30134  0.75429  Biso   1.000  C
  H39      1.0000 0.78665  0.95225  0.63958  Biso   1.000  H
  H40      1.0000 0.75577  0.80622  0.67075  Biso   1.000  H
  N11      1.0000 0.86312  0.81225  0.74667  Biso   1.000  N
  N12      1.0000 0.98592  0.13879  0.97631  Biso   1.000  N
  H41      1.0000 0.91268  0.97902  0.96238  Biso   1.000  H
  H42      1.0000 0.92932  0.11938  0.04005  Biso   1.000  H
  H43      1.0000 0.99846  0.35440  0.81598  Biso   1.000  H
  C26      1.0000 0.01788  0.22887  0.71953  Biso   1.000  C
  C27      1.0000 0.90336  0.84191  0.71549  Biso   1.000  C
  C28      1.0000 0.02212  0.02388  0.97294  Biso   1.000  C
  H44      1.0000 0.99534  0.16399  0.66217  Biso   1.000  H
  N13      1.0000 0.08421  0.25226  0.76530  Biso   1.000  N
  H45      1.0000 0.88768  0.91535  0.66261  Biso   1.000  H
  C29      1.0000 0.97288  0.76679  0.75840  Biso   1.000  C
  H46      1.0000 0.00504  0.91644  0.96487  Biso   1.000  H
  C30      1.0000 0.08980  0.05499  0.98123  Biso   1.000  C
  C31      1.0000 0.12301  0.17907  0.72547  Biso   1.000  C
  H47      1.0000 0.99196  0.70348  0.81620  Biso   1.000  H
  N14      1.0000 0.00785  0.78633  0.71806  Biso   1.000  N
  N15      1.0000 0.13040  0.93766  0.99340  Biso   1.000  N
  H48      1.0000 0.10318  0.16218  0.97749  Biso   1.000  H
  H49      1.0000 0.08997  0.11419  0.66679  Biso   1.000  H
  H50      1.0000 0.14356  0.26456  0.70530  Biso   1.000  H
  C32      1.0000 0.18191  0.07211  0.80219  Biso   1.000  C
  C33      1.0000 0.07418  0.69806  0.75693  Biso   1.000  C
  C34      1.0000 0.19838  0.97395  0.00397  Biso   1.000  C
  N16      1.0000 0.15399  0.93513  0.82889  Biso   1.000  N
  H51      1.0000 0.21358  0.13674  0.86160  Biso   1.000  H
  H52      1.0000 0.21056  0.03111  0.77659  Biso   1.000  H
  H53      1.0000 0.09186  0.66237  0.82471  Biso   1.000  H
  H54      1.0000 0.06577  0.60099  0.71637  Biso   1.000  H
  C35      1.0000 0.12970  0.80357  0.75701  Biso   1.000  C
  C36      1.0000 0.20538  0.87966  0.92923  Biso   1.000  C
  H55      1.0000 0.23791  0.94550  0.07100  Biso   1.000  H
  H56      1.0000 0.20124  0.09092  0.99428  Biso   1.000  H
  H57      1.0000 0.10944  0.85011  0.69078  Biso   1.000  H
  H58      1.0000 0.17094  0.73616  0.77197  Biso   1.000  H
  H59      1.0000 0.19754  0.76366  0.93465  Biso   1.000  H
  H60      1.0000 0.25426  0.89256  0.94345  Biso   1.000  H
  C37      1.0000 0.62301  0.67901  0.72547  Biso   1.000  C
  C38      1.0000 0.68191  0.57205  0.80219  Biso   1.000  C
  N17      1.0000 0.58421  0.75220  0.76530  Biso   1.000  N
  H61      1.0000 0.58997  0.61413  0.66679  Biso   1.000  H
  H62      1.0000 0.64356  0.76450  0.70530  Biso   1.000  H
  N18      1.0000 0.65399  0.43507  0.82889  Biso   1.000  N
  H63      1.0000 0.71358  0.63680  0.86160  Biso   1.000  H
  H64      1.0000 0.71056  0.53105  0.77659  Biso   1.000  H
  C39      1.0000 0.51788  0.72881  0.71953  Biso   1.000  C
  C40      1.0000 0.62970  0.30363  0.75701  Biso   1.000  C
  C41      1.0000 0.70542  0.37972  0.92923  Biso   1.000  C
  C42      1.0000 0.47545  0.80128  0.75429  Biso   1.000  C
  H65      1.0000 0.49534  0.66393  0.66217  Biso   1.000  H
  C43      1.0000 0.57423  0.19812  0.75693  Biso   1.000  C
  H66      1.0000 0.60949  0.35005  0.69078  Biso   1.000  H
  H67      1.0000 0.67098  0.23622  0.77197  Biso   1.000  H
  H68      1.0000 0.69754  0.26372  0.93465  Biso   1.000  H
  H69      1.0000 0.75426  0.39262  0.94345  Biso   1.000  H
  C44      1.0000 0.69834  0.47401  0.00397  Biso   1.000  C
  N19      1.0000 0.40802  0.79344  0.70237  Biso   1.000  N
  H70      1.0000 0.49846  0.85433  0.81598  Biso   1.000  H
  N20      1.0000 0.50785  0.28627  0.71806  Biso   1.000  N
  H71      1.0000 0.59186  0.16231  0.82471  Biso   1.000  H
  H72      1.0000 0.56577  0.10105  0.71637  Biso   1.000  H
  N21      1.0000 0.63040  0.43772  0.99340  Biso   1.000  N
  H73      1.0000 0.70124  0.59086  0.99428  Biso   1.000  H
  H74      1.0000 0.73787  0.44544  0.07100  Biso   1.000  H
  C45      1.0000 0.36828  0.87556  0.73750  Biso   1.000  C
  C46      1.0000 0.47288  0.26673  0.75840  Biso   1.000  C
  C47      1.0000 0.58980  0.55493  0.98123  Biso   1.000  C
  C48      1.0000 0.30917  0.76908  0.72716  Biso   1.000  C
  H75      1.0000 0.40085  0.90510  0.80725  Biso   1.000  H
  H76      1.0000 0.34759  0.97612  0.69958  Biso   1.000  H
  C49      1.0000 0.40336  0.34185  0.71549  Biso   1.000  C
  H77      1.0000 0.49196  0.20355  0.81620  Biso   1.000  H
  C50      1.0000 0.52212  0.52382  0.97294  Biso   1.000  C
  H78      1.0000 0.60318  0.66212  0.97749  Biso   1.000  H
  N22      1.0000 0.33661  0.63692  0.79801  Biso   1.000  N
  H79      1.0000 0.28178  0.72398  0.65997  Biso   1.000  H
  H80      1.0000 0.27647  0.83540  0.73662  Biso   1.000  H
  N23      1.0000 0.36312  0.31219  0.74667  Biso   1.000  N
  H81      1.0000 0.38768  0.41529  0.66261  Biso   1.000  H
  N24      1.0000 0.48592  0.63873  0.97631  Biso   1.000  N
  H82      1.0000 0.50508  0.41638  0.96487  Biso   1.000  H
  C51      1.0000 0.28737  0.50127  0.76610  Biso   1.000  C
  C52      1.0000 0.35850  0.69010  0.89673  Biso   1.000  C
  C53      1.0000 0.29342  0.38949  0.69606  Biso   1.000  C
  C54      1.0000 0.42191  0.59592  0.97514  Biso   1.000  C
  H83      1.0000 0.29705  0.43892  0.82427  Biso   1.000  H
  H84      1.0000 0.23816  0.54287  0.73310  Biso   1.000  H
  H85      1.0000 0.37067  0.80622  0.90392  Biso   1.000  H
  H86      1.0000 0.31828  0.67659  0.90590  Biso   1.000  H
  H87      1.0000 0.28669  0.45231  0.63958  Biso   1.000  H
  H88      1.0000 0.25577  0.30616  0.67075  Biso   1.000  H
  H89      1.0000 0.41268  0.47896  0.96238  Biso   1.000  H
  H90      1.0000 0.42937  0.61932  0.04005  Biso   1.000  H
  C55      1.0000 0.85850  0.80972  0.39673  Biso   1.000  C
  N25      1.0000 0.83661  0.86290  0.29801  Biso   1.000  N
  H91      1.0000 0.87067  0.69372  0.40392  Biso   1.000  H
  H92      1.0000 0.81829  0.82334  0.40590  Biso   1.000  H
  C56      1.0000 0.92194  0.90389  0.47521  Biso   1.000  C
  C57      1.0000 0.80917  0.73086  0.22715  Biso   1.000  C
  C58      1.0000 0.78738  0.99867  0.26610  Biso   1.000  C
  H93      1.0000 0.92940  0.88050  0.54012  Biso   1.000  H
  N26      1.0000 0.98595  0.86121  0.47638  Biso   1.000  N
  H94      1.0000 0.91268  0.02110  0.46238  Biso   1.000  H
  H95      1.0000 0.78178  0.77596  0.15997  Biso   1.000  H
  H96      1.0000 0.77647  0.66442  0.23662  Biso   1.000  H
  C59      1.0000 0.86829  0.62438  0.23750  Biso   1.000  C
  H97      1.0000 0.73817  0.95707  0.23309  Biso   1.000  H
  H98      1.0000 0.79705  0.06102  0.32426  Biso   1.000  H
  C60      1.0000 0.79342  0.11045  0.19605  Biso   1.000  C
  C61      1.0000 0.02212  0.97600  0.47294  Biso   1.000  C
  H99      1.0000 0.90088  0.59472  0.30732  Biso   1.000  H
  H100     1.0000 0.84759  0.52382  0.19958  Biso   1.000  H
  N27      1.0000 0.90805  0.70650  0.20244  Biso   1.000  N
  H101     1.0000 0.78670  0.04775  0.13958  Biso   1.000  H
  H102     1.0000 0.75580  0.19390  0.17082  Biso   1.000  H
  N28      1.0000 0.86312  0.18787  0.24666  Biso   1.000  N
  C62      1.0000 0.08980  0.94489  0.48123  Biso   1.000  C
  H103     1.0000 0.00508  0.08369  0.46487  Biso   1.000  H
  C63      1.0000 0.97545  0.69866  0.25429  Biso   1.000  C
  C64      1.0000 0.90336  0.15809  0.21549  Biso   1.000  C
  H104     1.0000 0.10318  0.83769  0.47749  Biso   1.000  H
  N29      1.0000 0.13040  0.06222  0.49340  Biso   1.000  N
  H105     1.0000 0.99846  0.64560  0.31598  Biso   1.000  H
  C65      1.0000 0.01788  0.77101  0.21953  Biso   1.000  C
  H106     1.0000 0.88768  0.08465  0.16261  Biso   1.000  H
  C66      1.0000 0.97293  0.23321  0.25840  Biso   1.000  C
  C67      1.0000 0.19834  0.02593  0.50396  Biso   1.000  C
  H107     1.0000 0.99539  0.83601  0.16217  Biso   1.000  H
  N30      1.0000 0.08421  0.74762  0.26529  Biso   1.000  N
  H108     1.0000 0.99196  0.29639  0.31620  Biso   1.000  H
  N31      1.0000 0.00785  0.21367  0.21806  Biso   1.000  N
  H109     1.0000 0.20125  0.90908  0.49428  Biso   1.000  H
  H110     1.0000 0.23787  0.05450  0.57100  Biso   1.000  H
  C68      1.0000 0.20545  0.12022  0.42930  Biso   1.000  C
  C69      1.0000 0.12301  0.82081  0.22547  Biso   1.000  C
  C70      1.0000 0.07426  0.30182  0.25701  Biso   1.000  C
  N32      1.0000 0.15399  0.06487  0.32889  Biso   1.000  N
  H111     1.0000 0.19757  0.23622  0.43472  Biso   1.000  H
  H112     1.0000 0.25429  0.10732  0.44353  Biso   1.000  H
  H113     1.0000 0.08997  0.88569  0.16679  Biso   1.000  H
  H114     1.0000 0.14356  0.73532  0.20530  Biso   1.000  H
  C71      1.0000 0.18191  0.92789  0.30219  Biso   1.000  C
  H115     1.0000 0.09186  0.33763  0.32470  Biso   1.000  H
  H116     1.0000 0.06577  0.39889  0.21637  Biso   1.000  H
  C72      1.0000 0.12973  0.19631  0.25708  Biso   1.000  C
  H117     1.0000 0.21358  0.86314  0.36160  Biso   1.000  H
  H118     1.0000 0.21057  0.96889  0.27659  Biso   1.000  H
  H119     1.0000 0.10949  0.15001  0.19077  Biso   1.000  H
  H120     1.0000 0.17098  0.26372  0.27197  Biso   1.000  H
