data_image0
_cell_length_a       21.25
_cell_length_b       10.28
_cell_length_c       15.3
_cell_angle_alpha    90
_cell_angle_beta     113.25
_cell_angle_gamma    90

_symmetry_space_group_name_H-M    "P 1"
_symmetry_int_tables_number       1

loop_
  _symmetry_equiv_pos_as_xyz
  'x, y, z'

loop_
  _atom_site_label
  _atom_site_occupancy
  _atom_site_fract_x
  _atom_site_fract_y
  _atom_site_fract_z
  _atom_site_thermal_displace_type
  _atom_site_B_iso_or_equiv
  _atom_site_type_symbol
  O1       1.0000 0.58979  0.17296  0.40121  Biso   1.000  O
  C1       1.0000 0.60891  0.29397  0.37162  Biso   1.000  C
  C2       1.0000 0.57420  0.31109  0.26420  Biso   1.000  C
  C3       1.0000 0.68689  0.29698  0.40953  Biso   1.000  C
  O2       1.0000 0.50289  0.32208  0.23567  Biso   1.000  O
  C4       1.0000 0.60410  0.42588  0.23134  Biso   1.000  C
  O3       1.0000 0.70890  0.40506  0.37290  Biso   1.000  O
  O4       1.0000 0.70981  0.17879  0.38122  Biso   1.000  O
  C5       1.0000 0.68087  0.40700  0.26897  Biso   1.000  C
  O5       1.0000 0.57270  0.42772  0.12961  Biso   1.000  O
  C6       1.0000 0.75399  0.09650  0.45371  Biso   1.000  C
  C7       1.0000 0.71867  0.51196  0.24037  Biso   1.000  C
  C8       1.0000 0.55008  0.54903  0.08166  Biso   1.000  C
  C9       1.0000 0.82852  0.11381  0.46609  Biso   1.000  C
  C10      1.0000 0.72922  0.95992  0.42120  Biso   1.000  C
  O6       1.0000 0.70400  0.64047  0.26427  Biso   1.000  O
  C11      1.0000 0.47970  0.52588  0.00341  Biso   1.000  C
  O7       1.0000 0.59520  0.59591  0.04453  Biso   1.000  O
  C12      1.0000 0.85768  0.24056  0.51489  Biso   1.000  C
  O8       1.0000 0.86990  0.01469  0.53039  Biso   1.000  O
  C13      1.0000 0.77688  0.86128  0.48607  Biso   1.000  C
  O9       1.0000 0.66292  0.94300  0.42091  Biso   1.000  O
  O10      1.0000 0.43541  0.47500  0.04361  Biso   1.000  O
  C14      1.0000 0.48548  0.43492  0.93121  Biso   1.000  C
  C15      1.0000 0.60468  0.50778  0.97738  Biso   1.000  C
  O11      1.0000 0.85852  0.24494  0.60793  Biso   1.000  O
  C16      1.0000 0.85029  0.88716  0.49731  Biso   1.000  C
  O12      1.0000 0.75788  0.73210  0.44837  Biso   1.000  O
  C17      1.0000 0.53608  0.48541  0.89628  Biso   1.000  C
  O13      1.0000 0.41990  0.42043  0.84848  Biso   1.000  O
  C18      1.0000 0.65950  0.57062  0.94707  Biso   1.000  C
  O14      1.0000 0.85140  0.86732  0.40569  Biso   1.000  O
  O15      1.0000 0.54357  0.38716  0.83126  Biso   1.000  O
  O16      1.0000 0.63590  0.68580  0.89450  Biso   1.000  O
  C19      1.0000 0.91078  0.81021  0.40121  Biso   1.000  C
  C20      1.0000 0.52309  0.42014  0.73303  Biso   1.000  C
  C21      1.0000 0.88740  0.68152  0.34843  Biso   1.000  C
  C22      1.0000 0.93710  0.90049  0.34643  Biso   1.000  C
  C23      1.0000 0.48317  0.30934  0.67107  Biso   1.000  C
  O17      1.0000 0.58130  0.44883  0.71282  Biso   1.000  O
  O18      1.0000 0.87332  0.59056  0.40932  Biso   1.000  O
  C24      1.0000 0.94191  0.62529  0.32033  Biso   1.000  C
  C25      1.0000 0.97551  0.01693  0.40690  Biso   1.000  C
  O19      1.0000 0.98789  0.83667  0.32232  Biso   1.000  O
  C26      1.0000 0.52919  0.19018  0.68679  Biso   1.000  C
  O20      1.0000 0.42690  0.27733  0.69362  Biso   1.000  O
  C27      1.0000 0.62912  0.34095  0.73238  Biso   1.000  C
  C28      1.0000 0.96373  0.72432  0.26513  Biso   1.000  C
  O21      1.0000 0.91738  0.51518  0.26000  Biso   1.000  O
  O22      1.0000 0.98749  0.11556  0.35170  Biso   1.000  O
  C29      1.0000 0.59181  0.22481  0.67199  Biso   1.000  C
  O23      1.0000 0.49081  0.09047  0.62077  Biso   1.000  O
  C30      1.0000 0.68741  0.38881  0.71147  Biso   1.000  C
  O24      1.0000 0.90683  0.75311  0.18182  Biso   1.000  O
  O25      1.0000 0.63529  0.11654  0.70279  Biso   1.000  O
  O26      1.0000 0.66449  0.41595  0.61231  Biso   1.000  O
  C31      1.0000 0.91571  0.74591  0.09269  Biso   1.000  C
  C32      1.0000 0.66200  0.05837  0.64112  Biso   1.000  C
  C33      1.0000 0.85570  0.66712  0.02412  Biso   1.000  C
  C34      1.0000 0.91348  0.87986  0.05207  Biso   1.000  C
  C35      1.0000 0.64981  0.91089  0.64261  Biso   1.000  C
  O27      1.0000 0.73068  0.08638  0.66850  Biso   1.000  O
  C36      1.0000 0.86281  0.65963  0.92758  Biso   1.000  C
  O28      1.0000 0.85652  0.54056  0.06011  Biso   1.000  O
  O29      1.0000 0.91882  0.86654  0.95910  Biso   1.000  O
  C37      1.0000 0.97239  0.96411  0.11097  Biso   1.000  C
  C38      1.0000 0.69017  0.86352  0.73957  Biso   1.000  C
  O30      1.0000 0.57871  0.89358  0.61231  Biso   1.000  O
  C39      1.0000 0.77350  0.04368  0.76468  Biso   1.000  C
  O31      1.0000 0.80581  0.58979  0.86050  Biso   1.000  O
  C40      1.0000 0.86418  0.79416  0.88938  Biso   1.000  C
  O32      1.0000 0.03521  0.90049  0.12570  Biso   1.000  O
  C41      1.0000 0.76659  0.89757  0.77251  Biso   1.000  C
  O33      1.0000 0.68351  0.72461  0.74263  Biso   1.000  O
  C42      1.0000 0.84600  0.08706  0.78830  Biso   1.000  C
  O34      1.0000 0.80252  0.85564  0.86861  Biso   1.000  O
  O35      1.0000 0.87669  0.02636  0.73402  Biso   1.000  O
  O36      1.0000 0.33711  0.44300  0.57912  Biso   1.000  O
  C43      1.0000 0.27080  0.45992  0.57877  Biso   1.000  C
  C44      1.0000 0.22309  0.36128  0.51389  Biso   1.000  C
  C45      1.0000 0.24600  0.59650  0.54633  Biso   1.000  C
  C46      1.0000 0.14970  0.38716  0.50272  Biso   1.000  C
  O37      1.0000 0.24209  0.23210  0.55159  Biso   1.000  O
  C47      1.0000 0.17150  0.61381  0.53388  Biso   1.000  C
  O38      1.0000 0.29018  0.67879  0.61882  Biso   1.000  O
  O39      1.0000 0.13007  0.51469  0.46957  Biso   1.000  O
  O40      1.0000 0.14857  0.36732  0.59427  Biso   1.000  O
  C48      1.0000 0.14229  0.74056  0.48508  Biso   1.000  C
  C49      1.0000 0.31310  0.79698  0.59050  Biso   1.000  C
  C50      1.0000 0.08921  0.31021  0.59883  Biso   1.000  C
  O41      1.0000 0.14151  0.74494  0.39210  Biso   1.000  O
  C51      1.0000 0.39112  0.79397  0.62842  Biso   1.000  C
  O42      1.0000 0.29107  0.90506  0.62707  Biso   1.000  O
  C52      1.0000 0.11259  0.18152  0.65161  Biso   1.000  C
  C53      1.0000 0.06289  0.40049  0.65360  Biso   1.000  C
  C54      1.0000 0.42579  0.81109  0.73583  Biso   1.000  C
  O43      1.0000 0.41020  0.67296  0.59883  Biso   1.000  O
  C55      1.0000 0.31910  0.90700  0.73100  Biso   1.000  C
  O44      1.0000 0.12671  0.09056  0.59072  Biso   1.000  O
  C56      1.0000 0.05812  0.12529  0.67971  Biso   1.000  C
  O45      1.0000 0.01210  0.33667  0.67772  Biso   1.000  O
  C57      1.0000 0.02453  0.51693  0.59314  Biso   1.000  C
  C58      1.0000 0.39589  0.92588  0.76870  Biso   1.000  C
  O46      1.0000 0.49708  0.82208  0.76429  Biso   1.000  O
  C59      1.0000 0.28130  0.01196  0.75959  Biso   1.000  C
  C60      1.0000 0.03631  0.22432  0.73491  Biso   1.000  C
  O47      1.0000 0.08261  0.01518  0.74003  Biso   1.000  O
  O48      1.0000 0.01248  0.61556  0.64827  Biso   1.000  O
  O49      1.0000 0.42729  0.92772  0.87042  Biso   1.000  O
  O50      1.0000 0.29601  0.14047  0.73569  Biso   1.000  O
  O51      1.0000 0.09321  0.25311  0.81821  Biso   1.000  O
  C61      1.0000 0.44989  0.04903  0.91830  Biso   1.000  C
  C62      1.0000 0.08431  0.24591  0.90727  Biso   1.000  C
  C63      1.0000 0.52029  0.02588  0.99662  Biso   1.000  C
  O52      1.0000 0.40479  0.09591  0.95550  Biso   1.000  O
  C64      1.0000 0.14429  0.16712  0.97592  Biso   1.000  C
  C65      1.0000 0.08649  0.37986  0.94789  Biso   1.000  C
  O53      1.0000 0.56458  0.97500  0.95643  Biso   1.000  O
  C66      1.0000 0.51451  0.93492  0.06882  Biso   1.000  C
  C67      1.0000 0.39529  0.00778  0.02259  Biso   1.000  C
  O54      1.0000 0.14352  0.04056  0.93992  Biso   1.000  O
  C68      1.0000 0.13721  0.15963  0.07238  Biso   1.000  C
  C69      1.0000 0.02758  0.46411  0.88899  Biso   1.000  C
  O55      1.0000 0.08120  0.36654  0.04087  Biso   1.000  O
  C70      1.0000 0.46390  0.98541  0.10368  Biso   1.000  C
  O56      1.0000 0.58012  0.92043  0.15148  Biso   1.000  O
  C71      1.0000 0.34052  0.07062  0.05289  Biso   1.000  C
  O57      1.0000 0.19423  0.08979  0.13953  Biso   1.000  O
  C72      1.0000 0.13579  0.29416  0.11058  Biso   1.000  C
  O58      1.0000 0.96481  0.40049  0.87427  Biso   1.000  O
  O59      1.0000 0.45640  0.88716  0.16870  Biso   1.000  O
  O60      1.0000 0.36409  0.18580  0.10553  Biso   1.000  O
  O61      1.0000 0.19752  0.35564  0.13142  Biso   1.000  O
  C73      1.0000 0.47690  0.92014  0.26701  Biso   1.000  C
  C74      1.0000 0.23340  0.39757  0.22753  Biso   1.000  C
  C75      1.0000 0.51680  0.80934  0.32890  Biso   1.000  C
  O62      1.0000 0.41869  0.94883  0.28721  Biso   1.000  O
  C76      1.0000 0.30980  0.36352  0.26039  Biso   1.000  C
  C77      1.0000 0.22647  0.54368  0.23528  Biso   1.000  C
  C78      1.0000 0.47078  0.69018  0.31318  Biso   1.000  C
  O63      1.0000 0.57309  0.77733  0.30642  Biso   1.000  O
  C79      1.0000 0.37090  0.84095  0.26758  Biso   1.000  C
  C80      1.0000 0.35022  0.41089  0.35742  Biso   1.000  C
  O64      1.0000 0.31648  0.22461  0.25741  Biso   1.000  O
  C81      1.0000 0.15397  0.58706  0.21167  Biso   1.000  C
  O65      1.0000 0.26931  0.58638  0.33153  Biso   1.000  O
  C82      1.0000 0.40821  0.72481  0.32797  Biso   1.000  C
  O66      1.0000 0.50921  0.59047  0.37919  Biso   1.000  O
  C83      1.0000 0.31261  0.88881  0.28849  Biso   1.000  C
  C84      1.0000 0.33799  0.55837  0.35892  Biso   1.000  C
  O67      1.0000 0.42128  0.39358  0.38773  Biso   1.000  O
  O68      1.0000 0.12330  0.52636  0.26601  Biso   1.000  O
  O69      1.0000 0.36468  0.61654  0.29717  Biso   1.000  O
  O70      1.0000 0.33550  0.91595  0.38773  Biso   1.000  O
  Ne1      1.0000 0.27379  0.60032  0.92839  Biso   1.000  Ne
  He1      1.0000 0.41532  0.23159  0.95979  Biso   1.000  He
  He2      1.0000 0.22212  0.70496  0.92453  Biso   1.000  He
  Ar1      1.0000 0.42778  0.30938  0.97498  Biso   1.000  Ar
  Ne2      1.0000 0.72621  0.10032  0.07161  Biso   1.000  Ne
  He3      1.0000 0.52565  0.83250  0.00596  Biso   1.000  He
  He4      1.0000 0.85759  0.34344  0.10273  Biso   1.000  He
  Ar2      1.0000 0.57223  0.80941  0.02500  Biso   1.000  Ar
