data_image0
_cell_length_a       12.086
_cell_length_b       20.278
_cell_length_c       12.588
_cell_angle_alpha    90
_cell_angle_beta     112.18
_cell_angle_gamma    90

_symmetry_space_group_name_H-M    "P 1"
_symmetry_int_tables_number       1

loop_
  _symmetry_equiv_pos_as_xyz
  'x, y, z'

loop_
  _atom_site_label
  _atom_site_occupancy
  _atom_site_fract_x
  _atom_site_fract_y
  _atom_site_fract_z
  _atom_site_thermal_displace_type
  _atom_site_B_iso_or_equiv
  _atom_site_type_symbol
  C1       1.0000 0.70762  0.80491  0.88577  Biso   1.000  C
  N1       1.0000 0.83153  0.78805  0.91640  Biso   1.000  N
  N2       1.0000 0.67750  0.87124  0.83987  Biso   1.000  N
  H1       1.0000 0.69043  0.80121  0.95526  Biso   1.000  H
  H2       1.0000 0.65694  0.77330  0.82632  Biso   1.000  H
  C2       1.0000 0.88388  0.76945  0.83447  Biso   1.000  C
  C3       1.0000 0.91177  0.78716  0.02767  Biso   1.000  C
  C4       1.0000 0.62704  0.88273  0.71659  Biso   1.000  C
  C5       1.0000 0.63766  0.91750  0.89744  Biso   1.000  C
  N3       1.0000 0.88928  0.82266  0.75940  Biso   1.000  N
  H3       1.0000 0.84201  0.73178  0.78754  Biso   1.000  H
  C6       1.0000 0.01746  0.75732  0.91159  Biso   1.000  C
  N4       1.0000 0.02023  0.76763  0.02595  Biso   1.000  N
  O1       1.0000 0.89064  0.79909  0.11303  Biso   1.000  O
  N5       1.0000 0.71447  0.89042  0.66435  Biso   1.000  N
  C7       1.0000 0.57143  0.95271  0.70604  Biso   1.000  C
  H4       1.0000 0.56974  0.84949  0.67799  Biso   1.000  H
  C8       1.0000 0.57134  0.95271  0.70604  Biso   1.000  C
  H5       1.0000 0.56966  0.84949  0.67799  Biso   1.000  H
  N6       1.0000 0.57900  0.96627  0.82126  Biso   1.000  N
  O2       1.0000 0.65067  0.91577  0.99850  Biso   1.000  O
  C9       1.0000 0.79065  0.83815  0.65354  Biso   1.000  C
  C10      1.0000 0.00377  0.84190  0.77913  Biso   1.000  C
  N7       1.0000 0.07959  0.80718  0.87179  Biso   1.000  N
  H6       1.0000 0.04842  0.71338  0.90216  Biso   1.000  H
  C11      1.0000 0.12423  0.75791  0.12967  Biso   1.000  C
  C12      1.0000 0.73266  0.95493  0.64496  Biso   1.000  C
  N8       1.0000 0.64898  0.99211  0.66675  Biso   1.000  N
  H7       1.0000 0.48985  0.95581  0.65345  Biso   1.000  H
  C13      1.0000 0.52625  0.02308  0.85377  Biso   1.000  C
  H8       1.0000 0.82263  0.85191  0.59726  Biso   1.000  H
  H9       1.0000 0.74244  0.79899  0.62712  Biso   1.000  H
  O3       1.0000 0.03423  0.88179  0.72234  Biso   1.000  O
  C14      1.0000 0.20761  0.80703  0.90173  Biso   1.000  C
  H10      1.0000 0.09441  0.75471  0.19041  Biso   1.000  H
  H11      1.0000 0.16555  0.71792  0.12135  Biso   1.000  H
  N9       1.0000 0.20889  0.81177  0.15918  Biso   1.000  N
  O4       1.0000 0.80743  0.97628  0.60996  Biso   1.000  O
  O5       1.0000 0.80735  0.97628  0.60996  Biso   1.000  O
  C15      1.0000 0.63527  0.06179  0.64093  Biso   1.000  C
  N10      1.0000 0.60487  0.07969  0.88706  Biso   1.000  N
  H12      1.0000 0.50601  0.01050  0.91803  Biso   1.000  H
  H13      1.0000 0.45446  0.03472  0.78797  Biso   1.000  H
  H14      1.0000 0.23583  0.76038  0.91185  Biso   1.000  H
  H15      1.0000 0.22120  0.82691  0.83927  Biso   1.000  H
  N11      1.0000 0.27339  0.84426  0.00399  Biso   1.000  N
  C16      1.0000 0.30576  0.81798  0.11894  Biso   1.000  C
  C17      1.0000 0.21783  0.85600  0.24505  Biso   1.000  C
  H16      1.0000 0.67641  0.07032  0.59006  Biso   1.000  H
  H17      1.0000 0.54835  0.07210  0.60232  Biso   1.000  H
  N12      1.0000 0.68656  0.10331  0.74087  Biso   1.000  N
  C18      1.0000 0.61648  0.12629  0.80504  Biso   1.000  C
  C19      1.0000 0.66606  0.09873  0.99807  Biso   1.000  C
  C20      1.0000 0.33400  0.90127  0.00201  Biso   1.000  C
  C21      1.0000 0.38359  0.87371  0.19504  Biso   1.000  C
  H18      1.0000 0.34693  0.77631  0.12581  Biso   1.000  H
  O6       1.0000 0.15329  0.85783  0.29953  Biso   1.000  O
  N13      1.0000 0.31342  0.89669  0.25921  Biso   1.000  N
  C22      1.0000 0.78223  0.14400  0.75503  Biso   1.000  C
  C23      1.0000 0.69430  0.18202  0.88114  Biso   1.000  C
  H19      1.0000 0.54004  0.14040  0.75331  Biso   1.000  H
  N14      1.0000 0.72660  0.15574  0.99610  Biso   1.000  N
  O7       1.0000 0.66508  0.07106  0.08437  Biso   1.000  O
  O8       1.0000 0.33499  0.92894  0.91571  Biso   1.000  O
  N15      1.0000 0.39519  0.92031  0.11303  Biso   1.000  N
  H20      1.0000 0.46003  0.85960  0.24677  Biso   1.000  H
  C24      1.0000 0.36480  0.93821  0.35915  Biso   1.000  C
  O9       1.0000 0.84678  0.14217  0.70055  Biso   1.000  O
  N16      1.0000 0.79109  0.18823  0.84090  Biso   1.000  N
  H21      1.0000 0.65313  0.22369  0.87427  Biso   1.000  H
  C25      1.0000 0.79245  0.19297  0.09836  Biso   1.000  C
  C26      1.0000 0.47381  0.97692  0.14631  Biso   1.000  C
  H22      1.0000 0.32366  0.92968  0.41003  Biso   1.000  H
  H23      1.0000 0.45171  0.92790  0.39776  Biso   1.000  H
  N17      1.0000 0.35109  0.00789  0.33333  Biso   1.000  N
  C27      1.0000 0.87584  0.24209  0.87041  Biso   1.000  C
  N18      1.0000 0.92048  0.19282  0.12830  Biso   1.000  N
  H24      1.0000 0.77878  0.17309  0.16081  Biso   1.000  H
  H25      1.0000 0.76423  0.23962  0.08823  Biso   1.000  H
  H26      1.0000 0.49405  0.98950  0.08206  Biso   1.000  H
  H27      1.0000 0.54561  0.96528  0.21211  Biso   1.000  H
  N19      1.0000 0.42107  0.03373  0.17883  Biso   1.000  N
  C28      1.0000 0.42864  0.04729  0.29404  Biso   1.000  C
  C29      1.0000 0.26740  0.04507  0.35512  Biso   1.000  C
  N20      1.0000 0.97983  0.23237  0.97413  Biso   1.000  N
  H28      1.0000 0.90565  0.24529  0.80968  Biso   1.000  H
  H29      1.0000 0.83451  0.28208  0.87874  Biso   1.000  H
  H30      1.0000 0.90562  0.24529  0.80959  Biso   1.000  H
  C30      1.0000 0.98260  0.24268  0.08849  Biso   1.000  C
  C31      1.0000 0.99621  0.15810  0.22095  Biso   1.000  C
  C32      1.0000 0.36240  0.08250  0.10264  Biso   1.000  C
  C33      1.0000 0.37302  0.11727  0.28349  Biso   1.000  C
  H31      1.0000 0.51021  0.04419  0.34663  Biso   1.000  H
  O10      1.0000 0.19263  0.02372  0.39012  Biso   1.000  O
  N21      1.0000 0.28559  0.10958  0.33573  Biso   1.000  N
  C34      1.0000 0.08829  0.21284  0.97242  Biso   1.000  C
  H32      1.0000 0.95164  0.28662  0.09793  Biso   1.000  H
  C35      1.0000 0.11619  0.23055  0.16561  Biso   1.000  C
  N22      1.0000 0.11078  0.17734  0.24068  Biso   1.000  N
  O11      1.0000 0.96583  0.11821  0.27774  Biso   1.000  O
  O12      1.0000 0.34931  0.08423  0.00159  Biso   1.000  O
  N23      1.0000 0.32253  0.12876  0.16012  Biso   1.000  N
  H33      1.0000 0.43032  0.15051  0.32209  Biso   1.000  H
  C36      1.0000 0.20934  0.16185  0.34654  Biso   1.000  C
  N24      1.0000 0.16845  0.21195  0.08369  Biso   1.000  N
  O13      1.0000 0.10942  0.20091  0.88706  Biso   1.000  O
  H34      1.0000 0.15805  0.26822  0.21254  Biso   1.000  H
  C37      1.0000 0.29244  0.19509  0.11431  Biso   1.000  C
  H35      1.0000 0.17743  0.14809  0.40282  Biso   1.000  H
  H36      1.0000 0.25762  0.20101  0.37297  Biso   1.000  H
  H37      1.0000 0.30963  0.19879  0.04482  Biso   1.000  H
  H38      1.0000 0.34312  0.22670  0.17376  Biso   1.000  H
  C38      1.0000 0.30573  0.68202  0.61888  Biso   1.000  C
  C39      1.0000 0.38359  0.62629  0.69506  Biso   1.000  C
  N25      1.0000 0.27335  0.65574  0.50392  Biso   1.000  N
  N26      1.0000 0.20897  0.68823  0.65920  Biso   1.000  N
  H39      1.0000 0.34694  0.72369  0.62583  Biso   1.000  H
  N27      1.0000 0.39519  0.57969  0.61305  Biso   1.000  N
  N28      1.0000 0.31339  0.60331  0.75915  Biso   1.000  N
  H40      1.0000 0.45999  0.64040  0.74671  Biso   1.000  H
  C40      1.0000 0.33400  0.59873  0.50204  Biso   1.000  C
  C41      1.0000 0.20761  0.69297  0.40175  Biso   1.000  C
  C42      1.0000 0.21783  0.64400  0.74508  Biso   1.000  C
  C43      1.0000 0.12423  0.74209  0.62969  Biso   1.000  C
  C44      1.0000 0.47381  0.52308  0.64633  Biso   1.000  C
  C45      1.0000 0.36480  0.56179  0.85918  Biso   1.000  C
  O14      1.0000 0.33495  0.57106  0.41565  Biso   1.000  O
  N29      1.0000 0.07959  0.69282  0.37181  Biso   1.000  N
  H41      1.0000 0.22116  0.67309  0.33921  Biso   1.000  H
  H42      1.0000 0.23580  0.73962  0.41179  Biso   1.000  H
  O15      1.0000 0.15325  0.64217  0.79947  Biso   1.000  O
  N30      1.0000 0.02023  0.73237  0.52597  Biso   1.000  N
  H43      1.0000 0.09441  0.74529  0.69043  Biso   1.000  H
  H44      1.0000 0.16552  0.78208  0.62128  Biso   1.000  H
  N31      1.0000 0.42107  0.46627  0.67885  Biso   1.000  N
  H45      1.0000 0.49402  0.51050  0.58199  Biso   1.000  H
  H46      1.0000 0.54561  0.53472  0.71213  Biso   1.000  H
  N32      1.0000 0.35109  0.49211  0.83335  Biso   1.000  N
  H47      1.0000 0.32366  0.57032  0.91005  Biso   1.000  H
  H48      1.0000 0.45168  0.57210  0.89770  Biso   1.000  H
  C46      1.0000 0.01743  0.74268  0.41153  Biso   1.000  C
  C47      1.0000 0.00386  0.65810  0.27916  Biso   1.000  C
  C48      1.0000 0.91177  0.71284  0.52769  Biso   1.000  C
  C49      1.0000 0.36237  0.41750  0.60258  Biso   1.000  C
  C50      1.0000 0.42861  0.45271  0.79398  Biso   1.000  C
  C51      1.0000 0.26737  0.45493  0.85506  Biso   1.000  C
  C52      1.0000 0.88388  0.73055  0.33449  Biso   1.000  C
  H49      1.0000 0.04839  0.78662  0.40209  Biso   1.000  H
  N33      1.0000 0.88928  0.67734  0.25943  Biso   1.000  N
  O16      1.0000 0.03423  0.61821  0.22236  Biso   1.000  O
  N34      1.0000 0.83158  0.71195  0.41633  Biso   1.000  N
  O17      1.0000 0.89061  0.70091  0.61296  Biso   1.000  O
  N35      1.0000 0.32253  0.37124  0.66015  Biso   1.000  N
  O18      1.0000 0.34927  0.41577  0.50152  Biso   1.000  O
  C53      1.0000 0.37303  0.38273  0.78351  Biso   1.000  C
  H50      1.0000 0.51021  0.45581  0.84665  Biso   1.000  H
  N36      1.0000 0.28556  0.39042  0.83567  Biso   1.000  N
  O19      1.0000 0.19260  0.47628  0.89006  Biso   1.000  O
  H51      1.0000 0.84198  0.76822  0.28748  Biso   1.000  H
  C54      1.0000 0.79061  0.66185  0.15348  Biso   1.000  C
  C55      1.0000 0.70763  0.69509  0.38579  Biso   1.000  C
  C56      1.0000 0.29241  0.30491  0.61425  Biso   1.000  C
  H52      1.0000 0.43029  0.34949  0.82203  Biso   1.000  H
  C57      1.0000 0.20934  0.33815  0.84656  Biso   1.000  C
  N37      1.0000 0.71447  0.60958  0.16437  Biso   1.000  N
  H53      1.0000 0.82260  0.64809  0.09720  Biso   1.000  H
  H54      1.0000 0.74244  0.70101  0.12714  Biso   1.000  H
  N38      1.0000 0.67750  0.62876  0.33990  Biso   1.000  N
  H55      1.0000 0.69040  0.69879  0.45520  Biso   1.000  H
  H56      1.0000 0.65694  0.72670  0.32634  Biso   1.000  H
  N39      1.0000 0.16845  0.28805  0.58371  Biso   1.000  N
  H57      1.0000 0.30963  0.30121  0.54485  Biso   1.000  H
  H58      1.0000 0.34309  0.27330  0.67370  Biso   1.000  H
  N40      1.0000 0.11075  0.32266  0.74062  Biso   1.000  N
  H59      1.0000 0.17744  0.35191  0.90284  Biso   1.000  H
  H60      1.0000 0.25759  0.29899  0.87290  Biso   1.000  H
  C58      1.0000 0.73266  0.54507  0.14498  Biso   1.000  C
  C59      1.0000 0.62701  0.61727  0.21653  Biso   1.000  C
  C60      1.0000 0.63766  0.58250  0.39746  Biso   1.000  C
  C61      1.0000 0.08826  0.28716  0.47235  Biso   1.000  C
  C62      1.0000 0.11615  0.26945  0.66555  Biso   1.000  C
  C63      1.0000 0.99618  0.34190  0.72088  Biso   1.000  C
  N41      1.0000 0.64894  0.50789  0.16669  Biso   1.000  N
  O20      1.0000 0.80743  0.52372  0.10998  Biso   1.000  O
  C64      1.0000 0.57143  0.54729  0.20606  Biso   1.000  C
  H61      1.0000 0.56975  0.65051  0.17801  Biso   1.000  H
  N42      1.0000 0.57897  0.53373  0.32119  Biso   1.000  N
  O21      1.0000 0.65068  0.58423  0.49852  Biso   1.000  O
  O22      1.0000 0.10942  0.29909  0.38708  Biso   1.000  O
  N43      1.0000 0.97980  0.26763  0.47407  Biso   1.000  N
  C65      1.0000 0.98260  0.25732  0.58851  Biso   1.000  C
  H62      1.0000 0.15805  0.23178  0.71256  Biso   1.000  H
  N44      1.0000 0.92044  0.30718  0.62823  Biso   1.000  N
  O23      1.0000 0.96580  0.38179  0.77768  Biso   1.000  O
  C66      1.0000 0.63523  0.43821  0.14087  Biso   1.000  C
  H63      1.0000 0.48982  0.54419  0.15339  Biso   1.000  H
  C67      1.0000 0.52622  0.47692  0.35371  Biso   1.000  C
  C68      1.0000 0.87580  0.25791  0.37035  Biso   1.000  C
  H64      1.0000 0.95164  0.21338  0.59795  Biso   1.000  H
  C69      1.0000 0.79242  0.30703  0.59829  Biso   1.000  C
  N45      1.0000 0.68664  0.39669  0.24090  Biso   1.000  N
  H65      1.0000 0.67637  0.42968  0.08999  Biso   1.000  H
  H66      1.0000 0.54835  0.42790  0.10235  Biso   1.000  H
  N46      1.0000 0.60484  0.42031  0.38699  Biso   1.000  N
  H67      1.0000 0.50601  0.48950  0.41805  Biso   1.000  H
  H68      1.0000 0.45443  0.46528  0.28791  Biso   1.000  H
  N47      1.0000 0.79106  0.31177  0.34084  Biso   1.000  N
  H69      1.0000 0.90562  0.25471  0.30961  Biso   1.000  H
  H70      1.0000 0.83448  0.21792  0.37867  Biso   1.000  H
  N48      1.0000 0.72660  0.34426  0.49612  Biso   1.000  N
  H71      1.0000 0.77879  0.32691  0.66083  Biso   1.000  H
  H72      1.0000 0.76423  0.26038  0.58825  Biso   1.000  H
  C70      1.0000 0.78220  0.35600  0.25496  Biso   1.000  C
  C71      1.0000 0.61644  0.37371  0.30498  Biso   1.000  C
  C72      1.0000 0.66603  0.40127  0.49800  Biso   1.000  C
  C73      1.0000 0.69427  0.31798  0.38107  Biso   1.000  C
  O24      1.0000 0.84678  0.35783  0.20057  Biso   1.000  O
  H73      1.0000 0.54004  0.35960  0.25333  Biso   1.000  H
  O25      1.0000 0.66508  0.42894  0.58439  Biso   1.000  O
  H74      1.0000 0.65310  0.27631  0.37421  Biso   1.000  H
