data_image0
_cell_length_a       15.281
_cell_length_b       15.404
_cell_length_c       17.89
_cell_angle_alpha    99.66
_cell_angle_beta     113.42
_cell_angle_gamma    102.48

_symmetry_space_group_name_H-M    "P 1"
_symmetry_int_tables_number       1

loop_
  _symmetry_equiv_pos_as_xyz
  'x, y, z'

loop_
  _atom_site_label
  _atom_site_occupancy
  _atom_site_fract_x
  _atom_site_fract_y
  _atom_site_fract_z
  _atom_site_thermal_displace_type
  _atom_site_B_iso_or_equiv
  _atom_site_type_symbol
  C1       1.0000 0.81848  0.55297  0.39468  Biso   1.000  C
  C2       1.0000 0.86776  0.47918  0.38592  Biso   1.000  C
  H1       1.0000 0.75250  0.52477  0.39379  Biso   1.000  H
  C3       1.0000 0.80207  0.59464  0.32107  Biso   1.000  C
  O1       1.0000 0.88185  0.62426  0.47217  Biso   1.000  O
  C4       1.0000 0.80076  0.40573  0.30036  Biso   1.000  C
  H2       1.0000 0.93476  0.50790  0.38890  Biso   1.000  H
  O2       1.0000 0.88010  0.43524  0.45242  Biso   1.000  O
  C5       1.0000 0.74345  0.52189  0.23647  Biso   1.000  C
  H3       1.0000 0.86827  0.63008  0.32621  Biso   1.000  H
  O3       1.0000 0.74490  0.65735  0.32691  Biso   1.000  O
  H4       1.0000 0.89426  0.60106  0.51308  Biso   1.000  H
  O4       1.0000 0.70787  0.36556  0.29731  Biso   1.000  O
  H5       1.0000 0.83307  0.35674  0.29458  Biso   1.000  H
  O5       1.0000 0.78879  0.44851  0.23310  Biso   1.000  O
  H6       1.0000 0.91954  0.40424  0.45451  Biso   1.000  H
  H7       1.0000 0.67321  0.49465  0.22751  Biso   1.000  H
  C6       1.0000 0.74102  0.55939  0.16292  Biso   1.000  C
  C7       1.0000 0.78339  0.74909  0.32450  Biso   1.000  C
  C8       1.0000 0.67212  0.26588  0.27642  Biso   1.000  C
  H8       1.0000 0.70765  0.50736  0.11007  Biso   1.000  H
  H9       1.0000 0.70088  0.60256  0.15587  Biso   1.000  H
  O6       1.0000 0.83690  0.60538  0.17530  Biso   1.000  O
  H10      1.0000 0.84980  0.75676  0.32412  Biso   1.000  H
  C9       1.0000 0.79821  0.81548  0.40332  Biso   1.000  C
  O7       1.0000 0.71749  0.76648  0.25082  Biso   1.000  O
  C10      1.0000 0.65338  0.24108  0.34889  Biso   1.000  C
  C11      1.0000 0.57620  0.22809  0.19220  Biso   1.000  C
  H11      1.0000 0.72450  0.23997  0.27089  Biso   1.000  H
  H12      1.0000 0.86686  0.56665  0.17047  Biso   1.000  H
  C12      1.0000 0.69930  0.80725  0.40402  Biso   1.000  C
  H13      1.0000 0.82653  0.87983  0.40199  Biso   1.000  H
  O8       1.0000 0.86753  0.80095  0.47808  Biso   1.000  O
  C13      1.0000 0.62211  0.76116  0.24803  Biso   1.000  C
  C14      1.0000 0.60846  0.13510  0.32418  Biso   1.000  C
  H14      1.0000 0.60468  0.27086  0.35727  Biso   1.000  H
  O9       1.0000 0.74338  0.27017  0.42517  Biso   1.000  O
  O10      1.0000 0.53586  0.12980  0.17600  Biso   1.000  O
  H15      1.0000 0.52600  0.25746  0.19798  Biso   1.000  H
  C15      1.0000 0.58990  0.24599  0.11890  Biso   1.000  C
  C16      1.0000 0.62805  0.82545  0.32437  Biso   1.000  C
  H16      1.0000 0.66963  0.74334  0.40548  Biso   1.000  H
  O11      1.0000 0.71327  0.87495  0.47871  Biso   1.000  O
  H17      1.0000 0.84746  0.74576  0.47808  Biso   1.000  H
  H18      1.0000 0.58770  0.69607  0.24352  Biso   1.000  H
  C17      1.0000 0.56229  0.78438  0.16501  Biso   1.000  C
  C18      1.0000 0.51445  0.10339  0.24009  Biso   1.000  C
  H19      1.0000 0.65844  0.10637  0.31707  Biso   1.000  H
  O12      1.0000 0.58826  0.10826  0.38770  Biso   1.000  O
  H20      1.0000 0.79027  0.30160  0.41799  Biso   1.000  H
  H21      1.0000 0.52539  0.21773  0.06663  Biso   1.000  H
  H22      1.0000 0.61136  0.31366  0.12659  Biso   1.000  H
  O13      1.0000 0.66127  0.20917  0.11077  Biso   1.000  O
  O14      1.0000 0.53278  0.80878  0.32291  Biso   1.000  O
  H23      1.0000 0.65399  0.89126  0.32539  Biso   1.000  H
  H24      1.0000 0.75965  0.92339  0.49002  Biso   1.000  H
  H25      1.0000 0.55688  0.73988  0.11528  Biso   1.000  H
  H26      1.0000 0.49374  0.78088  0.15758  Biso   1.000  H
  O15      1.0000 0.61909  0.88210  0.17270  Biso   1.000  O
  O16      1.0000 0.44281  0.14062  0.25082  Biso   1.000  O
  H27      1.0000 0.48709  0.03431  0.22332  Biso   1.000  H
  H28      1.0000 0.63282  0.08694  0.41596  Biso   1.000  H
  H29      1.0000 0.66221  0.21179  0.06459  Biso   1.000  H
  C19      1.0000 0.48829  0.88058  0.31688  Biso   1.000  C
  H30      1.0000 0.58391  0.89996  0.13262  Biso   1.000  H
  C20      1.0000 0.34755  0.07636  0.23158  Biso   1.000  C
  C21      1.0000 0.46230  0.89806  0.39151  Biso   1.000  C
  O17      1.0000 0.40306  0.85765  0.23882  Biso   1.000  O
  H31      1.0000 0.53837  0.93816  0.32247  Biso   1.000  H
  C22      1.0000 0.32689  0.10539  0.30678  Biso   1.000  C
  C23      1.0000 0.26636  0.08720  0.15047  Biso   1.000  C
  H32      1.0000 0.35007  0.01130  0.22287  Biso   1.000  H
  C24      1.0000 0.38608  0.81157  0.38338  Biso   1.000  C
  H33      1.0000 0.43185  0.94948  0.38878  Biso   1.000  H
  O18      1.0000 0.54906  0.92416  0.46969  Biso   1.000  O
  C25      1.0000 0.32486  0.77680  0.22548  Biso   1.000  C
  C26      1.0000 0.22197  0.04659  0.28518  Biso   1.000  C
  H34      1.0000 0.33134  0.17244  0.31827  Biso   1.000  H
  O19      1.0000 0.39706  0.08967  0.38027  Biso   1.000  O
  O20      1.0000 0.16733  0.03841  0.13783  Biso   1.000  O
  H35      1.0000 0.27360  0.15442  0.15650  Biso   1.000  H
  C27      1.0000 0.27479  0.04487  0.07139  Biso   1.000  C
  C28      1.0000 0.29356  0.78578  0.29649  Biso   1.000  C
  H36      1.0000 0.41569  0.75966  0.38751  Biso   1.000  H
  O21      1.0000 0.35844  0.83013  0.44988  Biso   1.000  O
  H37      1.0000 0.55483  0.97532  0.49948  Biso   1.000  H
  H38      1.0000 0.35030  0.72225  0.22300  Biso   1.000  H
  C29      1.0000 0.23827  0.76210  0.13897  Biso   1.000  C
  C30      1.0000 0.14699  0.06300  0.20750  Biso   1.000  C
  O22      1.0000 0.19736  0.06904  0.35397  Biso   1.000  O
  H39      1.0000 0.21798  0.97969  0.27248  Biso   1.000  H
  H40      1.0000 0.44239  0.13984  0.41158  Biso   1.000  H
  H41      1.0000 0.21872  0.04770  0.02032  Biso   1.000  H
  H42      1.0000 0.33860  0.08048  0.07387  Biso   1.000  H
  O23      1.0000 0.27191  0.95208  0.06631  Biso   1.000  O
  O24      1.0000 0.22899  0.69716  0.28639  Biso   1.000  O
  H43      1.0000 0.25804  0.83336  0.29490  Biso   1.000  H
  H44      1.0000 0.29973  0.79607  0.43432  Biso   1.000  H
  H45      1.0000 0.26331  0.75940  0.09559  Biso   1.000  H
  H46      1.0000 0.18662  0.70210  0.12341  Biso   1.000  H
  O25      1.0000 0.19440  0.83460  0.13929  Biso   1.000  O
  O26      1.0000 0.15609  0.15890  0.22757  Biso   1.000  O
  H47      1.0000 0.07749  0.02520  0.19340  Biso   1.000  H
  H48      1.0000 0.15108  0.02437  0.34927  Biso   1.000  H
  H49      1.0000 0.27351  0.92799  0.02128  Biso   1.000  H
  C31      1.0000 0.12839  0.69030  0.26721  Biso   1.000  C
  H50      1.0000 0.22819  0.87997  0.13160  Biso   1.000  H
  C32      1.0000 0.06776  0.18458  0.21602  Biso   1.000  C
  C33      1.0000 0.10684  0.65659  0.33498  Biso   1.000  C
  O27      1.0000 0.06139  0.62758  0.18648  Biso   1.000  O
  H51      1.0000 0.11948  0.75287  0.26829  Biso   1.000  H
  C34      1.0000 0.08729  0.24719  0.29941  Biso   1.000  C
  H52      1.0000 0.00968  0.12774  0.19798  Biso   1.000  H
  C35      1.0000 0.04620  0.23441  0.14748  Biso   1.000  C
  C36      1.0000 0.11957  0.56263  0.33517  Biso   1.000  C
  H53      1.0000 0.03608  0.65226  0.32291  Biso   1.000  H
  O28      1.0000 0.17313  0.72215  0.41609  Biso   1.000  O
  C37      1.0000 0.06447  0.53336  0.17829  Biso   1.000  C
  H54      1.0000 0.14900  0.30139  0.32031  Biso   1.000  H
  O29      1.0000 0.09897  0.19627  0.35988  Biso   1.000  O
  C38      1.0000 0.99436  0.28068  0.28232  Biso   1.000  C
  H55      1.0000 0.10747  0.28670  0.16241  Biso   1.000  H
  C39      1.0000 0.01400  0.16848  0.06021  Biso   1.000  C
  O30      1.0000 0.96438  0.26969  0.13923  Biso   1.000  O
  C40      1.0000 0.04688  0.49696  0.24682  Biso   1.000  C
  H56      1.0000 0.19016  0.56574  0.34717  Biso   1.000  H
  O31      1.0000 0.09628  0.52865  0.39538  Biso   1.000  O
  H57      1.0000 0.22307  0.75479  0.41348  Biso   1.000  H
  H58      1.0000 0.13171  0.53171  0.18350  Biso   1.000  H
  C41      1.0000 0.98613  0.47881  0.09172  Biso   1.000  C
  H59      1.0000 0.16029  0.20436  0.38928  Biso   1.000  H
  O32      1.0000 0.00705  0.33905  0.35848  Biso   1.000  O
  C42      1.0000 0.97878  0.32946  0.21278  Biso   1.000  C
  H60      1.0000 0.93397  0.22529  0.26187  Biso   1.000  H
  H61      1.0000 0.06864  0.14420  0.05932  Biso   1.000  H
  H62      1.0000 0.99358  0.19969  0.01493  Biso   1.000  H
  O33      1.0000 0.92350  0.09021  0.05030  Biso   1.000  O
  O34      1.0000 0.06352  0.40804  0.24307  Biso   1.000  O
  H63      1.0000 0.97616  0.48998  0.23691  Biso   1.000  H
  H64      1.0000 0.05525  0.47484  0.37207  Biso   1.000  H
  H65      1.0000 0.99730  0.50821  0.04980  Biso   1.000  H
  H66      1.0000 0.99144  0.41555  0.07958  Biso   1.000  H
  O35      1.0000 0.88810  0.47257  0.08270  Biso   1.000  O
  H67      1.0000 0.03386  0.39445  0.36261  Biso   1.000  H
  H68      1.0000 0.91797  0.34989  0.20122  Biso   1.000  H
  H69      1.0000 0.91280  0.04251  0.01321  Biso   1.000  H
  H70      1.0000 0.85853  0.49362  0.04262  Biso   1.000  H
  O36      1.0000 0.92849  0.56986  0.61629  Biso   1.000  O
  C43      1.0000 0.93371  0.62526  0.69117  Biso   1.000  C
  H71      1.0000 0.89834  0.51407  0.60828  Biso   1.000  H
  C44      1.0000 0.97695  0.58791  0.76460  Biso   1.000  C
  H72      1.0000 0.86515  0.62732  0.68152  Biso   1.000  H
  C45      1.0000 0.00178  0.72176  0.71042  Biso   1.000  C
  O37      1.0000 0.91006  0.49924  0.74897  Biso   1.000  O
  C46      1.0000 0.99092  0.65182  0.84767  Biso   1.000  C
  H73      1.0000 0.04323  0.58172  0.77126  Biso   1.000  H
  O38      1.0000 0.96871  0.76145  0.64328  Biso   1.000  O
  C47      1.0000 0.00914  0.78303  0.79248  Biso   1.000  C
  H74      1.0000 0.07015  0.71812  0.72166  Biso   1.000  H
  C48      1.0000 0.94841  0.42343  0.75818  Biso   1.000  C
  H75      1.0000 0.92364  0.65071  0.84367  Biso   1.000  H
  C49      1.0000 0.04780  0.62449  0.92446  Biso   1.000  C
  O39      1.0000 0.04855  0.74683  0.86038  Biso   1.000  O
  H76      1.0000 0.93954  0.71966  0.59692  Biso   1.000  H
  O40      1.0000 0.91160  0.78682  0.77419  Biso   1.000  O
  H77      1.0000 0.05440  0.84700  0.80607  Biso   1.000  H
  C50      1.0000 0.89738  0.34948  0.67231  Biso   1.000  C
  O41      1.0000 0.93593  0.38764  0.82138  Biso   1.000  O
  H78      1.0000 0.02190  0.44620  0.77508  Biso   1.000  H
  H79      1.0000 0.05820  0.66991  0.97591  Biso   1.000  H
  H80      1.0000 0.00824  0.56305  0.92167  Biso   1.000  H
  O42      1.0000 0.14382  0.62084  0.93031  Biso   1.000  O
  C51      1.0000 0.89582  0.87553  0.78651  Biso   1.000  C
  C52      1.0000 0.78597  0.31063  0.64836  Biso   1.000  C
  H81      1.0000 0.92738  0.29793  0.67891  Biso   1.000  H
  O43      1.0000 0.91352  0.38512  0.61057  Biso   1.000  O
  C53      1.0000 0.83003  0.34752  0.80258  Biso   1.000  C
  H82      1.0000 0.15403  0.57272  0.94326  Biso   1.000  H
  C54      1.0000 0.81113  0.87374  0.70349  Biso   1.000  C
  H83      1.0000 0.95846  0.92554  0.80010  Biso   1.000  H
  C55      1.0000 0.86805  0.89125  0.85911  Biso   1.000  C
  C56      1.0000 0.77535  0.27400  0.71766  Biso   1.000  C
  H84      1.0000 0.75446  0.36127  0.64119  Biso   1.000  H
  O44      1.0000 0.73674  0.23745  0.57037  Biso   1.000  O
  H85      1.0000 0.92888  0.44315  0.62581  Biso   1.000  H
  H86      1.0000 0.79801  0.39784  0.79908  Biso   1.000  H
  C57      1.0000 0.82997  0.31293  0.87460  Biso   1.000  C
  C58      1.0000 0.78012  0.96163  0.71721  Biso   1.000  C
  H87      1.0000 0.75220  0.81774  0.68577  Biso   1.000  H
  O45      1.0000 0.84468  0.86896  0.63960  Biso   1.000  O
  H88      1.0000 0.81385  0.83484  0.84977  Biso   1.000  H
  C59      1.0000 0.95494  0.90964  0.94441  Biso   1.000  C
  O46      1.0000 0.83161  0.96984  0.86298  Biso   1.000  O
  O47      1.0000 0.67088  0.24257  0.69771  Biso   1.000  O
  H89      1.0000 0.80272  0.22072  0.72210  Biso   1.000  H
  H90      1.0000 0.67493  0.21868  0.55588  Biso   1.000  H
  H91      1.0000 0.87602  0.36183  0.92846  Biso   1.000  H
  H92      1.0000 0.76163  0.29842  0.87067  Biso   1.000  H
  O48      1.0000 0.86147  0.22965  0.87511  Biso   1.000  O
  C60      1.0000 0.75035  0.96587  0.78879  Biso   1.000  C
  O49      1.0000 0.70240  0.96385  0.64157  Biso   1.000  O
  H93      1.0000 0.83984  0.01681  0.73506  Biso   1.000  H
  H94      1.0000 0.86053  0.82041  0.63267  Biso   1.000  H
  H95      1.0000 0.98499  0.85892  0.94358  Biso   1.000  H
  O50      1.0000 0.92504  0.91614  0.00805  Biso   1.000  O
  H96      1.0000 0.00680  0.96823  0.95628  Biso   1.000  H
  C61      1.0000 0.62934  0.14996  0.69581  Biso   1.000  C
  H97      1.0000 0.85598  0.20851  0.91386  Biso   1.000  H
  O51      1.0000 0.66684  0.88543  0.76498  Biso   1.000  O
  H98      1.0000 0.72996  0.02263  0.79800  Biso   1.000  H
  H99      1.0000 0.64716  0.93008  0.63471  Biso   1.000  H
  H100     1.0000 0.88379  0.86519  0.99979  Biso   1.000  H
  C62      1.0000 0.53794  0.10206  0.61140  Biso   1.000  C
  H101     1.0000 0.68028  0.11685  0.70140  Biso   1.000  H
  O52      1.0000 0.60371  0.14761  0.76307  Biso   1.000  O
  C63      1.0000 0.57707  0.89706  0.76561  Biso   1.000  C
  C64      1.0000 0.45858  0.14979  0.60231  Biso   1.000  C
  H102     1.0000 0.50996  0.03656  0.61006  Biso   1.000  H
  O53      1.0000 0.56514  0.10118  0.54356  Biso   1.000  O
  C65      1.0000 0.52862  0.19315  0.76110  Biso   1.000  C
  C66      1.0000 0.49076  0.84638  0.67841  Biso   1.000  C
  C67      1.0000 0.55851  0.85735  0.83179  Biso   1.000  C
  H103     1.0000 0.58341  0.96453  0.77889  Biso   1.000  H
  O54      1.0000 0.36935  0.10174  0.52559  Biso   1.000  O
  H104     1.0000 0.48478  0.21499  0.60181  Biso   1.000  H
  C68      1.0000 0.43384  0.15084  0.67650  Biso   1.000  C
  H105     1.0000 0.61124  0.07703  0.55169  Biso   1.000  H
  H106     1.0000 0.55664  0.26086  0.76936  Biso   1.000  H
  C69      1.0000 0.50824  0.17872  0.83599  Biso   1.000  C
  C70      1.0000 0.39401  0.85526  0.68177  Biso   1.000  C
  H107     1.0000 0.48644  0.77943  0.66361  Biso   1.000  H
  O55      1.0000 0.50681  0.88734  0.61819  Biso   1.000  O
  O56      1.0000 0.46300  0.85863  0.82690  Biso   1.000  O
  H108     1.0000 0.56042  0.79203  0.82246  Biso   1.000  H
  C71      1.0000 0.63449  0.91352  0.92167  Biso   1.000  C
  H109     1.0000 0.33054  0.05349  0.52610  Biso   1.000  H
  H110     1.0000 0.39828  0.08647  0.67282  Biso   1.000  H
  O57      1.0000 0.37002  0.20712  0.67078  Biso   1.000  O
  H111     1.0000 0.57183  0.20510  0.88928  Biso   1.000  H
  H112     1.0000 0.46123  0.21216  0.84069  Biso   1.000  H
  O58      1.0000 0.46638  0.08296  0.82601  Biso   1.000  O
  C72      1.0000 0.37907  0.81467  0.74770  Biso   1.000  C
  H113     1.0000 0.39993  0.92257  0.69689  Biso   1.000  H
  O59      1.0000 0.31072  0.80997  0.59977  Biso   1.000  O
  H114     1.0000 0.47563  0.84866  0.56986  Biso   1.000  H
  H115     1.0000 0.70352  0.91950  0.92897  Biso   1.000  H
  H116     1.0000 0.62368  0.88251  0.96289  Biso   1.000  H
  O60      1.0000 0.62029  0.01022  0.93659  Biso   1.000  O
  C73      1.0000 0.27886  0.16885  0.67282  Biso   1.000  C
  H117     1.0000 0.51182  0.05781  0.83757  Biso   1.000  H
  O61      1.0000 0.36500  0.71795  0.72477  Biso   1.000  O
  H118     1.0000 0.31802  0.82462  0.75107  Biso   1.000  H
  H119     1.0000 0.28853  0.84977  0.57818  Biso   1.000  H
  H120     1.0000 0.66368  0.04372  0.98518  Biso   1.000  H
  H121     1.0000 0.26913  0.10227  0.67167  Biso   1.000  H
  C74      1.0000 0.19435  0.17674  0.59228  Biso   1.000  C
  O62      1.0000 0.27740  0.21864  0.74637  Biso   1.000  O
  C75      1.0000 0.27241  0.65715  0.71347  Biso   1.000  C
  H122     1.0000 0.12874  0.14985  0.59241  Biso   1.000  H
  C76      1.0000 0.20814  0.27814  0.59596  Biso   1.000  C
  O63      1.0000 0.19205  0.12605  0.51797  Biso   1.000  O
  C77      1.0000 0.29166  0.31682  0.75551  Biso   1.000  C
  C78      1.0000 0.22369  0.58704  0.62626  Biso   1.000  C
  C79      1.0000 0.29511  0.60926  0.78270  Biso   1.000  C
  H123     1.0000 0.22674  0.69371  0.71690  Biso   1.000  H
  H124     1.0000 0.27344  0.30645  0.59590  Biso   1.000  H
  C80      1.0000 0.20814  0.32755  0.67409  Biso   1.000  C
  O64      1.0000 0.12838  0.28605  0.52451  Biso   1.000  O
  H125     1.0000 0.24997  0.14077  0.52108  Biso   1.000  H
  H126     1.0000 0.36094  0.35191  0.76688  Biso   1.000  H
  C81      1.0000 0.26701  0.34803  0.83306  Biso   1.000  C
  C82      1.0000 0.13191  0.51634  0.61737  Biso   1.000  C
  H127     1.0000 0.27231  0.55557  0.62016  Biso   1.000  H
  O65      1.0000 0.19401  0.63466  0.56198  Biso   1.000  O
  O66      1.0000 0.20603  0.53687  0.76790  Biso   1.000  O
  H128     1.0000 0.34842  0.58060  0.78397  Biso   1.000  H
  C83      1.0000 0.32973  0.67349  0.87048  Biso   1.000  C
  H129     1.0000 0.14085  0.30374  0.67212  Biso   1.000  H
  O67      1.0000 0.23153  0.42474  0.68069  Biso   1.000  O
  H130     1.0000 0.12222  0.25134  0.47998  Biso   1.000  H
  H131     1.0000 0.20814  0.30172  0.82906  Biso   1.000  H
  H132     1.0000 0.25613  0.40930  0.83726  Biso   1.000  H
  O68      1.0000 0.37192  0.35200  0.91195  Biso   1.000  O
  C84      1.0000 0.16329  0.47134  0.68647  Biso   1.000  C
  H133     1.0000 0.08474  0.54947  0.62410  Biso   1.000  H
  O69      1.0000 0.08153  0.44976  0.53619  Biso   1.000  O
  H134     1.0000 0.20107  0.60944  0.52019  Biso   1.000  H
  H135     1.0000 0.33823  0.63696  0.91189  Biso   1.000  H
  H136     1.0000 0.39569  0.71942  0.88807  Biso   1.000  H
  O70      1.0000 0.25921  0.72142  0.87130  Biso   1.000  O
  H137     1.0000 0.35992  0.31019  0.93456  Biso   1.000  H
  H138     1.0000 0.10224  0.42433  0.67980  Biso   1.000  H
  H139     1.0000 0.09626  0.40003  0.53277  Biso   1.000  H
  H140     1.0000 0.22221  0.69401  0.88997  Biso   1.000  H
