data_image0
_cell_length_a       15.315
_cell_length_b       31.55
_cell_length_c       15.382
_cell_angle_alpha    90
_cell_angle_beta     101.66
_cell_angle_gamma    90

_symmetry_space_group_name_H-M    "P 1"
_symmetry_int_tables_number       1

loop_
  _symmetry_equiv_pos_as_xyz
  'x, y, z'

loop_
  _atom_site_label
  _atom_site_occupancy
  _atom_site_fract_x
  _atom_site_fract_y
  _atom_site_fract_z
  _atom_site_thermal_displace_type
  _atom_site_B_iso_or_equiv
  _atom_site_type_symbol
  C1       1.0000 0.40551  0.41100  0.33562  Biso   1.000  C
  O1       1.0000 0.33551  0.40111  0.26227  Biso   1.000  O
  C2       1.0000 0.44452  0.45420  0.32547  Biso   1.000  C
  H1       1.0000 0.45301  0.38929  0.34027  Biso   1.000  H
  H2       1.0000 0.38223  0.41021  0.39112  Biso   1.000  H
  H3       1.0000 0.28750  0.39819  0.28019  Biso   1.000  H
  O2       1.0000 0.48659  0.45144  0.24999  Biso   1.000  O
  C3       1.0000 0.37371  0.48970  0.31471  Biso   1.000  C
  H4       1.0000 0.49127  0.46041  0.37950  Biso   1.000  H
  C4       1.0000 0.52531  0.48979  0.22908  Biso   1.000  C
  O3       1.0000 0.34713  0.49550  0.39702  Biso   1.000  O
  C5       1.0000 0.41223  0.53040  0.28862  Biso   1.000  C
  H5       1.0000 0.32089  0.48139  0.26811  Biso   1.000  H
  O4       1.0000 0.59180  0.50469  0.30250  Biso   1.000  O
  H6       1.0000 0.55343  0.48529  0.17651  Biso   1.000  H
  C6       1.0000 0.45428  0.52418  0.20757  Biso   1.000  C
  C7       1.0000 0.25810  0.48561  0.40267  Biso   1.000  C
  O5       1.0000 0.34222  0.56190  0.26990  Biso   1.000  O
  H7       1.0000 0.45910  0.54051  0.33941  Biso   1.000  H
  C8       1.0000 0.68352  0.50209  0.29340  Biso   1.000  C
  O6       1.0000 0.49068  0.56197  0.18102  Biso   1.000  O
  H8       1.0000 0.40699  0.51401  0.15732  Biso   1.000  H
  O7       1.0000 0.25549  0.45179  0.46281  Biso   1.000  O
  H9       1.0000 0.22292  0.47800  0.34259  Biso   1.000  H
  C9       1.0000 0.21978  0.52586  0.43712  Biso   1.000  C
  H10      1.0000 0.31217  0.55819  0.21839  Biso   1.000  H
  C10      1.0000 0.72392  0.54628  0.31066  Biso   1.000  C
  H11      1.0000 0.68683  0.49258  0.23220  Biso   1.000  H
  C11      1.0000 0.73440  0.47135  0.36197  Biso   1.000  C
  H12      1.0000 0.54461  0.56380  0.20611  Biso   1.000  H
  C12      1.0000 0.30532  0.45949  0.55229  Biso   1.000  C
  O8       1.0000 0.21357  0.55899  0.37372  Biso   1.000  O
  H13      1.0000 0.15831  0.51930  0.44601  Biso   1.000  H
  C13      1.0000 0.27536  0.53791  0.52467  Biso   1.000  C
  O9       1.0000 0.67551  0.57525  0.24880  Biso   1.000  O
  C14      1.0000 0.82030  0.54358  0.30363  Biso   1.000  C
  H14      1.0000 0.72021  0.55540  0.37220  Biso   1.000  H
  O10      1.0000 0.82612  0.47084  0.35222  Biso   1.000  O
  H15      1.0000 0.73137  0.48149  0.42298  Biso   1.000  H
  C15      1.0000 0.70188  0.42590  0.35102  Biso   1.000  C
  C16      1.0000 0.27517  0.50098  0.58807  Biso   1.000  C
  H16      1.0000 0.37037  0.46111  0.55176  Biso   1.000  H
  C17      1.0000 0.28751  0.42158  0.60672  Biso   1.000  C
  H17      1.0000 0.25310  0.55990  0.34199  Biso   1.000  H
  O11      1.0000 0.23948  0.57442  0.55959  Biso   1.000  O
  H18      1.0000 0.33792  0.54380  0.51797  Biso   1.000  H
  H19      1.0000 0.70311  0.59838  0.25192  Biso   1.000  H
  O12      1.0000 0.86421  0.58326  0.31856  Biso   1.000  O
  C18      1.0000 0.86958  0.51027  0.36722  Biso   1.000  C
  H20      1.0000 0.82232  0.53448  0.24183  Biso   1.000  H
  O13      1.0000 0.74631  0.40038  0.42099  Biso   1.000  O
  H21      1.0000 0.63701  0.42510  0.34930  Biso   1.000  H
  H22      1.0000 0.71241  0.41461  0.29387  Biso   1.000  H
  O14      1.0000 0.33500  0.51192  0.66958  Biso   1.000  O
  H23      1.0000 0.21366  0.49731  0.59968  Biso   1.000  H
  O15      1.0000 0.19826  0.42086  0.61967  Biso   1.000  O
  H24      1.0000 0.29942  0.39531  0.57599  Biso   1.000  H
  H25      1.0000 0.32886  0.42228  0.66507  Biso   1.000  H
  H26      1.0000 0.25869  0.57569  0.61469  Biso   1.000  H
  H27      1.0000 0.89179  0.58469  0.37147  Biso   1.000  H
  O16      1.0000 0.87109  0.52447  0.45511  Biso   1.000  O
  H28      1.0000 0.93201  0.50751  0.35793  Biso   1.000  H
  H29      1.0000 0.79769  0.39461  0.41289  Biso   1.000  H
  C19      1.0000 0.30736  0.50228  0.74957  Biso   1.000  C
  H30      1.0000 0.16566  0.43490  0.57937  Biso   1.000  H
  C20      1.0000 0.95600  0.52995  0.51279  Biso   1.000  C
  O17      1.0000 0.36408  0.47157  0.79869  Biso   1.000  O
  H31      1.0000 0.24482  0.49151  0.73610  Biso   1.000  H
  C21      1.0000 0.31150  0.54288  0.80308  Biso   1.000  C
  C22      1.0000 0.95692  0.57319  0.55401  Biso   1.000  C
  C23      1.0000 0.97058  0.49471  0.58236  Biso   1.000  C
  H32      1.0000 0.00389  0.52849  0.47721  Biso   1.000  H
  C24      1.0000 0.45608  0.48510  0.82472  Biso   1.000  C
  O18      1.0000 0.25666  0.57452  0.75037  Biso   1.000  O
  H33      1.0000 0.28612  0.53699  0.85691  Biso   1.000  H
  C25      1.0000 0.40498  0.55883  0.83321  Biso   1.000  C
  O19      1.0000 0.95207  0.60415  0.48571  Biso   1.000  O
  H34      1.0000 0.90482  0.57629  0.58362  Biso   1.000  H
  C26      1.0000 0.04367  0.57762  0.62239  Biso   1.000  C
  H35      1.0000 0.91758  0.49360  0.61110  Biso   1.000  H
  C27      1.0000 0.98267  0.45138  0.54319  Biso   1.000  C
  O20      1.0000 0.04847  0.50254  0.64987  Biso   1.000  O
  C28      1.0000 0.46000  0.52320  0.88519  Biso   1.000  C
  H36      1.0000 0.47981  0.49281  0.77081  Biso   1.000  H
  C29      1.0000 0.50759  0.44821  0.87098  Biso   1.000  C
  H37      1.0000 0.23738  0.59151  0.78409  Biso   1.000  H
  O21      1.0000 0.40701  0.59487  0.89050  Biso   1.000  O
  H38      1.0000 0.43060  0.56669  0.78057  Biso   1.000  H
  H39      1.0000 0.96339  0.62821  0.50868  Biso   1.000  H
  O22      1.0000 0.05001  0.61835  0.66421  Biso   1.000  O
  C30      1.0000 0.04820  0.54241  0.69069  Biso   1.000  C
  H40      1.0000 0.09480  0.57429  0.59152  Biso   1.000  H
  H41      1.0000 0.99411  0.42998  0.59119  Biso   1.000  H
  H42      1.0000 0.92726  0.44330  0.50118  Biso   1.000  H
  O23      1.0000 0.05578  0.45201  0.49772  Biso   1.000  O
  O24      1.0000 0.54870  0.53794  0.91400  Biso   1.000  O
  H43      1.0000 0.43426  0.51559  0.93790  Biso   1.000  H
  O25      1.0000 0.48199  0.43090  0.92601  Biso   1.000  O
  H44      1.0000 0.51320  0.42691  0.82498  Biso   1.000  H
  H45      1.0000 0.56846  0.45829  0.89647  Biso   1.000  H
  H46      1.0000 0.56597  0.45880  0.90318  Biso   1.000  H
  H47      1.0000 0.47519  0.43731  0.91599  Biso   1.000  H
  O26      1.0000 0.52248  0.41531  0.81987  Biso   1.000  O
  H48      1.0000 0.38337  0.61569  0.86089  Biso   1.000  H
  H49      1.0000 0.03509  0.62070  0.71426  Biso   1.000  H
  O27      1.0000 0.97479  0.54729  0.73338  Biso   1.000  O
  H50      1.0000 0.10466  0.54561  0.73596  Biso   1.000  H
  H51      1.0000 0.04609  0.44311  0.44449  Biso   1.000  H
  C31      1.0000 0.58507  0.53648  0.00693  Biso   1.000  C
  H52      1.0000 0.51480  0.40989  0.94287  Biso   1.000  H
  H53      1.0000 0.49493  0.39388  0.83242  Biso   1.000  H
  C32      1.0000 0.99397  0.54989  0.82757  Biso   1.000  C
  O28      1.0000 0.64801  0.50323  0.02685  Biso   1.000  O
  H54      1.0000 0.53579  0.53179  0.03986  Biso   1.000  H
  C33      1.0000 0.62838  0.57908  0.03342  Biso   1.000  C
  C34      1.0000 0.95590  0.59090  0.85518  Biso   1.000  C
  C35      1.0000 0.95059  0.51195  0.86441  Biso   1.000  C
  H55      1.0000 0.06001  0.54929  0.85021  Biso   1.000  H
  C36      1.0000 0.72185  0.50710  0.98277  Biso   1.000  C
  C37      1.0000 0.70438  0.58596  0.98609  Biso   1.000  C
  O29      1.0000 0.56457  0.61246  0.01437  Biso   1.000  O
  H56      1.0000 0.65303  0.57880  0.09887  Biso   1.000  H
  C38      1.0000 0.96726  0.59223  0.95555  Biso   1.000  C
  H57      1.0000 0.89100  0.59258  0.82757  Biso   1.000  H
  O30      1.0000 0.00152  0.62593  0.82551  Biso   1.000  O
  O31      1.0000 0.96242  0.51588  0.96000  Biso   1.000  O
  H58      1.0000 0.88539  0.51189  0.83786  Biso   1.000  H
  C39      1.0000 0.98937  0.46998  0.84576  Biso   1.000  C
  H59      1.0000 0.69838  0.50621  0.91732  Biso   1.000  H
  C40      1.0000 0.76928  0.54897  0.00574  Biso   1.000  C
  C41      1.0000 0.77940  0.46830  0.00892  Biso   1.000  C
  H60      1.0000 0.68092  0.58808  0.92070  Biso   1.000  H
  O32      1.0000 0.75383  0.62390  0.01775  Biso   1.000  O
  H61      1.0000 0.52918  0.60729  0.96611  Biso   1.000  H
  O33      1.0000 0.93151  0.63062  0.98337  Biso   1.000  O
  C42      1.0000 0.92508  0.55334  0.98742  Biso   1.000  C
  H62      1.0000 0.03262  0.59151  0.98191  Biso   1.000  H
  H63      1.0000 0.98402  0.65040  0.83739  Biso   1.000  H
  H64      1.0000 0.95957  0.44691  0.87231  Biso   1.000  H
  H65      1.0000 0.97889  0.46520  0.78090  Biso   1.000  H
  O34      1.0000 0.08140  0.46913  0.88127  Biso   1.000  O
  O35      1.0000 0.83266  0.55525  0.94998  Biso   1.000  O
  H66      1.0000 0.80009  0.54929  0.06966  Biso   1.000  H
  H67      1.0000 0.74581  0.44269  0.98436  Biso   1.000  H
  H68      1.0000 0.83310  0.47030  0.98270  Biso   1.000  H
  O36      1.0000 0.80596  0.46396  0.10312  Biso   1.000  O
  H69      1.0000 0.72166  0.64529  0.00242  Biso   1.000  H
  H70      1.0000 0.87669  0.62761  0.98157  Biso   1.000  H
  H71      1.0000 0.93422  0.55388  0.05366  Biso   1.000  H
  H72      1.0000 0.10781  0.45211  0.85246  Biso   1.000  H
  H73      1.0000 0.85941  0.47160  0.11938  Biso   1.000  H
  O37      1.0000 0.17128  0.38574  0.28537  Biso   1.000  O
  C43      1.0000 0.14132  0.35746  0.21209  Biso   1.000  C
  H74      1.0000 0.12719  0.39791  0.29911  Biso   1.000  H
  C44      1.0000 0.12290  0.31379  0.24488  Biso   1.000  C
  H75      1.0000 0.18731  0.35550  0.17551  Biso   1.000  H
  H76      1.0000 0.08620  0.36891  0.17438  Biso   1.000  H
  C45      1.0000 0.10907  0.28054  0.17060  Biso   1.000  C
  O38      1.0000 0.04392  0.31803  0.28132  Biso   1.000  O
  H77      1.0000 0.17378  0.30501  0.29287  Biso   1.000  H
  O39      1.0000 0.19218  0.27341  0.14451  Biso   1.000  O
  C46      1.0000 0.07872  0.23905  0.20379  Biso   1.000  C
  H78      1.0000 0.06382  0.29090  0.11882  Biso   1.000  H
  C47      1.0000 0.01690  0.27959  0.31551  Biso   1.000  C
  C48      1.0000 0.20137  0.28371  0.05662  Biso   1.000  C
  O40      1.0000 0.05789  0.20875  0.13369  Biso   1.000  O
  H79      1.0000 0.12756  0.22751  0.25079  Biso   1.000  H
  C49      1.0000 0.99717  0.24643  0.24342  Biso   1.000  C
  O41      1.0000 0.08410  0.26418  0.38567  Biso   1.000  O
  H80      1.0000 0.96138  0.28491  0.33887  Biso   1.000  H
  O42      1.0000 0.26158  0.31664  0.05569  Biso   1.000  O
  H81      1.0000 0.14179  0.29239  0.02137  Biso   1.000  H
  C50      1.0000 0.23157  0.24330  0.01527  Biso   1.000  C
  H82      1.0000 0.09987  0.20770  0.10601  Biso   1.000  H
  O43      1.0000 0.96987  0.20808  0.27907  Biso   1.000  O
  H83      1.0000 0.94753  0.25680  0.19569  Biso   1.000  H
  C51      1.0000 0.06500  0.26209  0.47270  Biso   1.000  C
  C52      1.0000 0.35173  0.30729  0.10382  Biso   1.000  C
  O44      1.0000 0.16762  0.21033  0.01421  Biso   1.000  O
  C53      1.0000 0.32172  0.23094  0.06791  Biso   1.000  C
  H84      1.0000 0.23698  0.24960  0.95280  Biso   1.000  H
  H85      1.0000 0.92828  0.19699  0.24209  Biso   1.000  H
  C54      1.0000 0.09288  0.21829  0.50967  Biso   1.000  C
  C55      1.0000 0.11579  0.29667  0.53118  Biso   1.000  C
  H86      1.0000 0.99960  0.26590  0.46898  Biso   1.000  H
  C56      1.0000 0.38543  0.26716  0.06718  Biso   1.000  C
  H87      1.0000 0.35128  0.30330  0.16821  Biso   1.000  H
  C57      1.0000 0.40733  0.34520  0.09240  Biso   1.000  C
  H88      1.0000 0.12191  0.21569  0.97524  Biso   1.000  H
  O45      1.0000 0.35069  0.19357  0.02761  Biso   1.000  O
  H89      1.0000 0.31696  0.22450  0.13037  Biso   1.000  H
  O46      1.0000 0.03979  0.18637  0.45849  Biso   1.000  O
  C58      1.0000 0.07900  0.21670  0.60440  Biso   1.000  C
  H90      1.0000 0.15722  0.21341  0.50881  Biso   1.000  H
  O47      1.0000 0.11149  0.29100  0.62292  Biso   1.000  O
  H91      1.0000 0.17969  0.29591  0.52560  Biso   1.000  H
  C59      1.0000 0.07892  0.34063  0.50622  Biso   1.000  C
  O48      1.0000 0.46979  0.25502  0.12121  Biso   1.000  O
  H92      1.0000 0.39291  0.27239  0.00498  Biso   1.000  H
  H93      1.0000 0.37937  0.37100  0.11099  Biso   1.000  H
  H94      1.0000 0.46731  0.34209  0.13057  Biso   1.000  H
  H95      1.0000 0.40280  0.35071  0.02828  Biso   1.000  H
  H96      1.0000 0.47058  0.33911  0.11869  Biso   1.000  H
  O49      1.0000 0.37703  0.38571  0.13741  Biso   1.000  O
  O50      1.0000 0.41559  0.34935  0.99960  Biso   1.000  O
  H97      1.0000 0.40639  0.19141  0.04242  Biso   1.000  H
  H98      1.0000 0.03441  0.19189  0.40433  Biso   1.000  H
  O51      1.0000 0.10317  0.17626  0.64270  Biso   1.000  O
  C60      1.0000 0.13632  0.25074  0.65870  Biso   1.000  C
  H99      1.0000 0.01478  0.22231  0.60486  Biso   1.000  H
  H100     1.0000 0.11448  0.36200  0.54532  Biso   1.000  H
  H101     1.0000 0.08318  0.34700  0.44422  Biso   1.000  H
  O52      1.0000 0.98751  0.34285  0.51492  Biso   1.000  O
  C61      1.0000 0.54753  0.26200  0.08762  Biso   1.000  C
  H102     1.0000 0.32107  0.38700  0.12679  Biso   1.000  H
  H103     1.0000 0.38202  0.36891  0.97544  Biso   1.000  H
  H104     1.0000 0.05912  0.16529  0.65890  Biso   1.000  H
  O53      1.0000 0.22727  0.24228  0.65837  Biso   1.000  O
  H105     1.0000 0.12706  0.24970  0.72116  Biso   1.000  H
  H106     1.0000 0.95431  0.34288  0.46427  Biso   1.000  H
  O54      1.0000 0.60168  0.29350  0.13502  Biso   1.000  O
  H107     1.0000 0.53028  0.27059  0.02390  Biso   1.000  H
  C62      1.0000 0.59810  0.21994  0.09360  Biso   1.000  C
  C63      1.0000 0.28626  0.23556  0.74307  Biso   1.000  C
  C64      1.0000 0.63067  0.28431  0.22828  Biso   1.000  C
  O55      1.0000 0.54119  0.18875  0.04321  Biso   1.000  O
  H108     1.0000 0.65210  0.22371  0.06718  Biso   1.000  H
  C65      1.0000 0.62713  0.20710  0.18899  Biso   1.000  C
  C66      1.0000 0.33139  0.19271  0.74088  Biso   1.000  C
  H109     1.0000 0.25157  0.23601  0.79159  Biso   1.000  H
  C67      1.0000 0.35527  0.27147  0.75687  Biso   1.000  C
  C68      1.0000 0.68331  0.24241  0.23897  Biso   1.000  C
  H110     1.0000 0.57747  0.28158  0.25636  Biso   1.000  H
  C69      1.0000 0.68712  0.32158  0.26898  Biso   1.000  C
  H111     1.0000 0.57120  0.17350  0.01540  Biso   1.000  H
  O56      1.0000 0.67832  0.16856  0.19443  Biso   1.000  O
  H112     1.0000 0.57340  0.20231  0.21541  Biso   1.000  H
  O57      1.0000 0.26880  0.15883  0.73716  Biso   1.000  O
  C70      1.0000 0.40079  0.18824  0.82511  Biso   1.000  C
  H113     1.0000 0.36056  0.19119  0.68837  Biso   1.000  H
  O58      1.0000 0.42511  0.26371  0.83461  Biso   1.000  O
  H114     1.0000 0.38287  0.27341  0.70337  Biso   1.000  H
  C71      1.0000 0.31527  0.31407  0.77181  Biso   1.000  C
  O59      1.0000 0.70538  0.23189  0.33131  Biso   1.000  O
  H115     1.0000 0.73929  0.24590  0.21561  Biso   1.000  H
  O60      1.0000 0.76772  0.32523  0.23890  Biso   1.000  O
  H116     1.0000 0.65239  0.34799  0.25457  Biso   1.000  H
  H117     1.0000 0.70073  0.31838  0.33443  Biso   1.000  H
  H118     1.0000 0.70147  0.16349  0.24767  Biso   1.000  H
  H119     1.0000 0.21959  0.16621  0.70609  Biso   1.000  H
  O61      1.0000 0.44565  0.14824  0.82837  Biso   1.000  O
  C72      1.0000 0.46748  0.22466  0.83328  Biso   1.000  C
  H120     1.0000 0.37008  0.18970  0.87649  Biso   1.000  H
  O62      1.0000 0.27466  0.31315  0.84808  Biso   1.000  O
  H121     1.0000 0.36251  0.33601  0.78031  Biso   1.000  H
  H122     1.0000 0.26990  0.32181  0.71877  Biso   1.000  H
  C73      1.0000 0.79691  0.23163  0.37240  Biso   1.000  C
  H123     1.0000 0.76033  0.34130  0.19443  Biso   1.000  H
  H124     1.0000 0.48561  0.14960  0.79810  Biso   1.000  H
  O63      1.0000 0.51090  0.22162  0.76059  Biso   1.000  O
  H125     1.0000 0.51266  0.22120  0.88957  Biso   1.000  H
  H126     1.0000 0.21927  0.31601  0.83189  Biso   1.000  H
  O64      1.0000 0.81826  0.26485  0.43446  Biso   1.000  O
  H127     1.0000 0.83320  0.23490  0.32566  Biso   1.000  H
  C74      1.0000 0.81712  0.18856  0.41661  Biso   1.000  C
  C75      1.0000 0.60622  0.21949  0.77951  Biso   1.000  C
  C76      1.0000 0.77007  0.26307  0.50589  Biso   1.000  C
  O65      1.0000 0.79588  0.15531  0.35348  Biso   1.000  O
  H128     1.0000 0.88221  0.18710  0.44362  Biso   1.000  H
  C77      1.0000 0.76479  0.18380  0.48949  Biso   1.000  C
  C78      1.0000 0.63358  0.17918  0.73962  Biso   1.000  C
  H129     1.0000 0.62887  0.21930  0.84509  Biso   1.000  H
  C79      1.0000 0.64171  0.25908  0.73849  Biso   1.000  C
  C80      1.0000 0.78538  0.22108  0.55269  Biso   1.000  C
  H130     1.0000 0.70501  0.26640  0.48066  Biso   1.000  H
  C81      1.0000 0.80162  0.30038  0.56510  Biso   1.000  C
  H131     1.0000 0.84277  0.14631  0.33967  Biso   1.000  H
  O66      1.0000 0.79018  0.14542  0.53769  Biso   1.000  O
  H132     1.0000 0.69948  0.18311  0.46307  Biso   1.000  H
  C82      1.0000 0.73470  0.17889  0.74917  Biso   1.000  C
  O67      1.0000 0.60691  0.14263  0.78130  Biso   1.000  O
  H133     1.0000 0.60537  0.17838  0.67496  Biso   1.000  H
  O68      1.0000 0.73646  0.25537  0.74526  Biso   1.000  O
  H134     1.0000 0.61172  0.26158  0.67470  Biso   1.000  H
  C83      1.0000 0.62679  0.29870  0.78628  Biso   1.000  C
  O69      1.0000 0.72680  0.21715  0.61502  Biso   1.000  O
  H135     1.0000 0.84870  0.21921  0.58541  Biso   1.000  H
  O70      1.0000 0.89141  0.29610  0.61150  Biso   1.000  O
  H136     1.0000 0.79620  0.32640  0.52846  Biso   1.000  H
  H137     1.0000 0.76252  0.30361  0.60858  Biso   1.000  H
  H138     1.0000 0.77487  0.14659  0.58707  Biso   1.000  H
  C84      1.0000 0.76411  0.21800  0.70649  Biso   1.000  C
  O71      1.0000 0.76410  0.14187  0.71227  Biso   1.000  O
  H139     1.0000 0.76229  0.17959  0.81396  Biso   1.000  H
  H140     1.0000 0.61167  0.12111  0.75037  Biso   1.000  H
  O72      1.0000 0.66750  0.29667  0.87775  Biso   1.000  O
  H141     1.0000 0.65151  0.32311  0.75880  Biso   1.000  H
  H142     1.0000 0.56192  0.30339  0.78031  Biso   1.000  H
  H143     1.0000 0.92292  0.31480  0.59398  Biso   1.000  H
  H144     1.0000 0.83061  0.21800  0.71499  Biso   1.000  H
  H145     1.0000 0.73351  0.12111  0.72269  Biso   1.000  H
  H146     1.0000 0.69446  0.31949  0.89315  Biso   1.000  H
  O73      1.0000 0.39308  0.64263  0.21872  Biso   1.000  O
  C85      1.0000 0.36641  0.67918  0.26041  Biso   1.000  C
  H147     1.0000 0.38831  0.62111  0.24959  Biso   1.000  H
  C86      1.0000 0.26527  0.67889  0.25079  Biso   1.000  C
  H148     1.0000 0.39460  0.67838  0.32500  Biso   1.000  H
  C87      1.0000 0.39383  0.71946  0.22052  Biso   1.000  C
  O74      1.0000 0.23587  0.64187  0.28769  Biso   1.000  O
  C88      1.0000 0.23587  0.71800  0.29347  Biso   1.000  C
  H149     1.0000 0.23769  0.67959  0.18600  Biso   1.000  H
  C89      1.0000 0.35827  0.75908  0.26147  Biso   1.000  C
  O75      1.0000 0.48907  0.72162  0.23937  Biso   1.000  O
  H150     1.0000 0.37110  0.71930  0.15487  Biso   1.000  H
  H151     1.0000 0.26647  0.62111  0.27727  Biso   1.000  H
  O76      1.0000 0.27319  0.71715  0.38501  Biso   1.000  O
  O77      1.0000 0.26352  0.75537  0.25470  Biso   1.000  O
  H152     1.0000 0.16937  0.71800  0.28497  Biso   1.000  H
  H153     1.0000 0.38832  0.76158  0.32527  Biso   1.000  H
  C90      1.0000 0.37318  0.79870  0.21368  Biso   1.000  C
  C91      1.0000 0.53250  0.72466  0.16668  Biso   1.000  C
  C92      1.0000 0.21459  0.72108  0.44727  Biso   1.000  C
  O78      1.0000 0.33248  0.79664  0.12221  Biso   1.000  O
  H154     1.0000 0.34848  0.82311  0.24123  Biso   1.000  H
  H155     1.0000 0.43814  0.80339  0.21972  Biso   1.000  H
  O79      1.0000 0.57488  0.76371  0.16542  Biso   1.000  O
  H156     1.0000 0.48731  0.72120  0.11039  Biso   1.000  H
  C93      1.0000 0.59920  0.68824  0.17491  Biso   1.000  C
  C94      1.0000 0.23519  0.68377  0.51047  Biso   1.000  C
  H157     1.0000 0.15129  0.71921  0.41461  Biso   1.000  H
  C95      1.0000 0.22990  0.76307  0.49407  Biso   1.000  C
  H158     1.0000 0.30552  0.81949  0.10681  Biso   1.000  H
  C96      1.0000 0.64471  0.77147  0.24309  Biso   1.000  C
  O80      1.0000 0.55432  0.64824  0.17159  Biso   1.000  O
  H159     1.0000 0.62989  0.68970  0.12347  Biso   1.000  H
  C97      1.0000 0.66859  0.69271  0.25908  Biso   1.000  C
  O81      1.0000 0.20980  0.64542  0.46228  Biso   1.000  O
  C98      1.0000 0.18287  0.68856  0.58342  Biso   1.000  C
  H160     1.0000 0.30049  0.68311  0.53689  Biso   1.000  H
  O82      1.0000 0.18172  0.76485  0.56550  Biso   1.000  O
  H161     1.0000 0.29496  0.76640  0.51930  Biso   1.000  H
  C99      1.0000 0.19836  0.80038  0.43486  Biso   1.000  C
  C100     1.0000 0.71372  0.73553  0.25689  Biso   1.000  C
  H162     1.0000 0.61711  0.77341  0.29659  Biso   1.000  H
  C101     1.0000 0.68472  0.81407  0.22822  Biso   1.000  C
  H163     1.0000 0.51437  0.64960  0.20186  Biso   1.000  H
  O83      1.0000 0.73118  0.65883  0.26280  Biso   1.000  O
  H164     1.0000 0.63942  0.69119  0.31159  Biso   1.000  H
  H165     1.0000 0.22511  0.64659  0.41289  Biso   1.000  H
  O84      1.0000 0.20410  0.65531  0.64648  Biso   1.000  O
  C102     1.0000 0.20307  0.73160  0.62756  Biso   1.000  C
  H166     1.0000 0.11778  0.68710  0.55640  Biso   1.000  H
  O85      1.0000 0.10856  0.79610  0.38846  Biso   1.000  O
  H167     1.0000 0.20377  0.82640  0.47150  Biso   1.000  H
  H168     1.0000 0.23746  0.80358  0.39138  Biso   1.000  H
  O86      1.0000 0.77270  0.74228  0.34160  Biso   1.000  O
  H169     1.0000 0.74840  0.73601  0.20837  Biso   1.000  H
  O87      1.0000 0.72531  0.81315  0.15188  Biso   1.000  O
  H170     1.0000 0.63748  0.83601  0.21972  Biso   1.000  H
  H171     1.0000 0.73008  0.82181  0.28119  Biso   1.000  H
  H172     1.0000 0.78038  0.66618  0.29387  Biso   1.000  H
  H173     1.0000 0.15721  0.64631  0.66029  Biso   1.000  H
  O88      1.0000 0.29461  0.73189  0.66872  Biso   1.000  O
  H174     1.0000 0.16678  0.73490  0.67430  Biso   1.000  H
  H175     1.0000 0.07712  0.81480  0.40599  Biso   1.000  H
  C103     1.0000 0.86372  0.75074  0.34126  Biso   1.000  C
  H176     1.0000 0.78071  0.81601  0.16808  Biso   1.000  H
  C104     1.0000 0.31667  0.74241  0.76099  Biso   1.000  C
  O89      1.0000 0.88850  0.79100  0.37711  Biso   1.000  O
  H177     1.0000 0.87292  0.74970  0.27880  Biso   1.000  H
  C105     1.0000 0.92097  0.71670  0.39556  Biso   1.000  C
  C106     1.0000 0.37291  0.70710  0.81098  Biso   1.000  C
  H178     1.0000 0.26068  0.74590  0.78436  Biso   1.000  H
  C107     1.0000 0.36931  0.78431  0.77168  Biso   1.000  C
  C108     1.0000 0.88419  0.79667  0.46878  Biso   1.000  C
  O90      1.0000 0.89681  0.67626  0.35726  Biso   1.000  O
  H179     1.0000 0.98520  0.72228  0.39510  Biso   1.000  H
  C109     1.0000 0.90710  0.71829  0.49029  Biso   1.000  C
  O91      1.0000 0.32167  0.66856  0.80560  Biso   1.000  O
  C110     1.0000 0.40187  0.71994  0.90636  Biso   1.000  C
  H180     1.0000 0.42657  0.70228  0.78456  Biso   1.000  H
  O92      1.0000 0.39831  0.79350  0.86501  Biso   1.000  O
  H181     1.0000 0.42251  0.78158  0.74360  Biso   1.000  H
  C111     1.0000 0.31286  0.82158  0.73099  Biso   1.000  C
  C112     1.0000 0.93497  0.76209  0.52726  Biso   1.000  C
  H182     1.0000 0.82030  0.79588  0.47442  Biso   1.000  H
  C113     1.0000 0.92113  0.84063  0.49381  Biso   1.000  C
  H183     1.0000 0.94093  0.66529  0.34106  Biso   1.000  H
  O93      1.0000 0.96019  0.68637  0.54147  Biso   1.000  O
  H184     1.0000 0.84277  0.71341  0.49122  Biso   1.000  H
  H185     1.0000 0.29851  0.66349  0.75229  Biso   1.000  H
  O94      1.0000 0.45880  0.68875  0.95681  Biso   1.000  O
  C114     1.0000 0.45246  0.76200  0.91241  Biso   1.000  C
  H186     1.0000 0.34788  0.72371  0.93278  Biso   1.000  H
  O95      1.0000 0.23225  0.82523  0.76106  Biso   1.000  O
  H187     1.0000 0.34758  0.84799  0.74539  Biso   1.000  H
  H188     1.0000 0.29926  0.81838  0.66560  Biso   1.000  H
  O96      1.0000 0.91588  0.76418  0.61429  Biso   1.000  O
  H189     1.0000 0.00037  0.76590  0.53098  Biso   1.000  H
  H190     1.0000 0.88551  0.86200  0.45471  Biso   1.000  H
  H191     1.0000 0.91681  0.84700  0.55581  Biso   1.000  H
  O97      1.0000 0.01248  0.84285  0.48511  Biso   1.000  O
  H192     1.0000 0.96558  0.69189  0.59570  Biso   1.000  H
  H193     1.0000 0.42878  0.67350  0.98456  Biso   1.000  H
  O98      1.0000 0.53020  0.75502  0.87882  Biso   1.000  O
  H194     1.0000 0.46969  0.77059  0.97606  Biso   1.000  H
  H195     1.0000 0.23966  0.84130  0.80560  Biso   1.000  H
  C115     1.0000 0.98309  0.77959  0.68452  Biso   1.000  C
  H196     1.0000 0.04573  0.84288  0.53569  Biso   1.000  H
  C116     1.0000 0.61461  0.76716  0.93278  Biso   1.000  C
  O99      1.0000 0.95607  0.81803  0.71871  Biso   1.000  O
  H197     1.0000 0.03860  0.78488  0.66109  Biso   1.000  H
  C117     1.0000 0.00282  0.74643  0.75661  Biso   1.000  C
  C118     1.0000 0.67826  0.73094  0.93205  Biso   1.000  C
  H198     1.0000 0.60706  0.77239  0.99498  Biso   1.000  H
  C119     1.0000 0.64832  0.80729  0.89621  Biso   1.000  C
  C120     1.0000 0.87707  0.81379  0.75508  Biso   1.000  C
  C121     1.0000 0.92126  0.73905  0.79617  Biso   1.000  C
  O100     1.0000 0.03011  0.70808  0.72090  Biso   1.000  O
  H199     1.0000 0.05252  0.75680  0.80427  Biso   1.000  H
  O101     1.0000 0.64930  0.69357  0.97241  Biso   1.000  O
  C122     1.0000 0.76841  0.74330  0.98469  Biso   1.000  C
  H200     1.0000 0.68301  0.72450  0.86959  Biso   1.000  H
  O102     1.0000 0.73839  0.81664  0.94427  Biso   1.000  O
  H201     1.0000 0.64871  0.80330  0.83182  Biso   1.000  H
  C123     1.0000 0.59271  0.84520  0.90756  Biso   1.000  C
  C124     1.0000 0.89091  0.78054  0.82936  Biso   1.000  C
  H202     1.0000 0.82619  0.80501  0.70709  Biso   1.000  H
  C125     1.0000 0.85872  0.85746  0.78787  Biso   1.000  C
  O103     1.0000 0.94208  0.70875  0.86627  Biso   1.000  O
  H203     1.0000 0.87241  0.72748  0.74917  Biso   1.000  H
  H204     1.0000 0.07170  0.69699  0.75787  Biso   1.000  H
  H205     1.0000 0.59360  0.69141  0.95761  Biso   1.000  H
  O104     1.0000 0.83235  0.71033  0.98576  Biso   1.000  O
  C126     1.0000 0.79862  0.78371  0.94341  Biso   1.000  C
  H206     1.0000 0.76300  0.74960  0.04716  Biso   1.000  H
  H207     1.0000 0.62061  0.87100  0.88897  Biso   1.000  H
  H208     1.0000 0.53266  0.84209  0.86939  Biso   1.000  H
  H209     1.0000 0.59717  0.85068  0.97168  Biso   1.000  H
  H210     1.0000 0.52939  0.83908  0.88127  Biso   1.000  H
  O105     1.0000 0.62301  0.88571  0.86255  Biso   1.000  O
  O106     1.0000 0.58439  0.84935  0.00036  Biso   1.000  O
  O107     1.0000 0.80781  0.77341  0.85552  Biso   1.000  O
  H211     1.0000 0.93617  0.79090  0.88121  Biso   1.000  H
  O108     1.0000 0.82870  0.88574  0.71459  Biso   1.000  O
  H212     1.0000 0.81268  0.85550  0.82452  Biso   1.000  H
  H213     1.0000 0.91378  0.86891  0.82558  Biso   1.000  H
  H214     1.0000 0.90012  0.70770  0.89402  Biso   1.000  H
  H215     1.0000 0.87807  0.71569  0.02472  Biso   1.000  H
  H216     1.0000 0.85819  0.79239  0.97859  Biso   1.000  H
  H217     1.0000 0.67891  0.88700  0.87317  Biso   1.000  H
  H218     1.0000 0.61802  0.86891  0.02452  Biso   1.000  H
  H219     1.0000 0.87280  0.89791  0.70092  Biso   1.000  H
  O109     1.0000 0.76050  0.07442  0.44037  Biso   1.000  O
  C127     1.0000 0.72462  0.03791  0.47529  Biso   1.000  C
  H220     1.0000 0.74128  0.07569  0.38527  Biso   1.000  H
  C128     1.0000 0.72481  0.00098  0.41189  Biso   1.000  C
  C129     1.0000 0.78021  0.02586  0.56291  Biso   1.000  C
  H221     1.0000 0.66212  0.04380  0.48199  Biso   1.000  H
  O110     1.0000 0.66497  0.01192  0.33038  Biso   1.000  O
  H222     1.0000 0.78631  0.99731  0.40028  Biso   1.000  H
  C130     1.0000 0.69472  0.95949  0.44767  Biso   1.000  C
  O111     1.0000 0.78642  0.05899  0.62630  Biso   1.000  O
  H223     1.0000 0.84168  0.01930  0.55401  Biso   1.000  H
  C131     1.0000 0.74188  0.98561  0.59730  Biso   1.000  C
  C132     1.0000 0.69261  0.00231  0.25039  Biso   1.000  C
  O112     1.0000 0.74450  0.95179  0.53722  Biso   1.000  O
  H224     1.0000 0.62960  0.96111  0.44820  Biso   1.000  H
  C133     1.0000 0.71248  0.92158  0.39331  Biso   1.000  C
  H225     1.0000 0.74688  0.05990  0.65797  Biso   1.000  H
  O113     1.0000 0.65293  0.99550  0.60300  Biso   1.000  O
  H226     1.0000 0.77712  0.97800  0.65737  Biso   1.000  H
  C134     1.0000 0.68848  0.04288  0.19689  Biso   1.000  C
  O114     1.0000 0.63589  0.97157  0.20127  Biso   1.000  O
  H227     1.0000 0.75523  0.99151  0.26386  Biso   1.000  H
  O115     1.0000 0.80171  0.92086  0.38030  Biso   1.000  O
  H228     1.0000 0.70062  0.89531  0.42397  Biso   1.000  H
  H229     1.0000 0.67111  0.92231  0.33489  Biso   1.000  H
  C135     1.0000 0.62628  0.98970  0.68532  Biso   1.000  C
  C136     1.0000 0.59501  0.05883  0.16682  Biso   1.000  C
  O116     1.0000 0.74332  0.07452  0.24959  Biso   1.000  O
  H230     1.0000 0.71394  0.03699  0.14312  Biso   1.000  H
  C137     1.0000 0.54391  0.98510  0.17531  Biso   1.000  C
  H231     1.0000 0.83431  0.93490  0.42059  Biso   1.000  H
  C138     1.0000 0.58776  0.03040  0.71140  Biso   1.000  C
  C139     1.0000 0.55552  0.95420  0.67450  Biso   1.000  C
  H232     1.0000 0.67910  0.98139  0.73192  Biso   1.000  H
  C140     1.0000 0.53998  0.02320  0.11477  Biso   1.000  C
  O117     1.0000 0.59298  0.09487  0.10953  Biso   1.000  O
  H233     1.0000 0.56938  0.06669  0.21939  Biso   1.000  H
  H234     1.0000 0.76259  0.09151  0.21587  Biso   1.000  H
  H235     1.0000 0.52018  0.99281  0.22921  Biso   1.000  H
  C141     1.0000 0.49239  0.94821  0.12898  Biso   1.000  C
  C142     1.0000 0.54570  0.02422  0.79239  Biso   1.000  C
  O118     1.0000 0.65776  0.06193  0.73006  Biso   1.000  O
  H236     1.0000 0.54088  0.04051  0.66056  Biso   1.000  H
  O119     1.0000 0.51338  0.95147  0.74997  Biso   1.000  O
  H237     1.0000 0.50871  0.96041  0.62046  Biso   1.000  H
  C143     1.0000 0.59448  0.91100  0.66441  Biso   1.000  C
  O120     1.0000 0.45129  0.03794  0.08603  Biso   1.000  O
  H238     1.0000 0.56572  0.01559  0.06207  Biso   1.000  H
  H239     1.0000 0.61661  0.11569  0.13907  Biso   1.000  H
  O121     1.0000 0.51800  0.93090  0.07401  Biso   1.000  O
  H240     1.0000 0.48678  0.92691  0.17498  Biso   1.000  H
  H241     1.0000 0.43152  0.95829  0.10349  Biso   1.000  H
  H242     1.0000 0.43401  0.95880  0.09678  Biso   1.000  H
  H243     1.0000 0.52478  0.93731  0.08397  Biso   1.000  H
  O122     1.0000 0.47750  0.91531  0.18009  Biso   1.000  O
  C144     1.0000 0.47466  0.98979  0.77088  Biso   1.000  C
  O123     1.0000 0.50931  0.06197  0.81901  Biso   1.000  O
  H244     1.0000 0.59300  0.01401  0.84271  Biso   1.000  H
  H245     1.0000 0.68780  0.05819  0.78157  Biso   1.000  H
  O124     1.0000 0.66447  0.90111  0.73769  Biso   1.000  O
  H246     1.0000 0.54697  0.88929  0.65969  Biso   1.000  H
  H247     1.0000 0.61782  0.91021  0.60891  Biso   1.000  H
  C145     1.0000 0.41491  0.03651  0.99303  Biso   1.000  C
  H248     1.0000 0.48518  0.90989  0.05709  Biso   1.000  H
  H249     1.0000 0.50513  0.89391  0.16761  Biso   1.000  H
  O125     1.0000 0.40818  0.00469  0.69746  Biso   1.000  O
  H250     1.0000 0.44655  0.98529  0.82345  Biso   1.000  H
  H251     1.0000 0.45538  0.06380  0.79392  Biso   1.000  H
  H252     1.0000 0.71248  0.89819  0.71977  Biso   1.000  H
  C146     1.0000 0.37160  0.07911  0.96654  Biso   1.000  C
  O126     1.0000 0.35197  0.00326  0.97312  Biso   1.000  O
  H253     1.0000 0.46418  0.03179  0.96011  Biso   1.000  H
  C147     1.0000 0.31646  0.00212  0.70656  Biso   1.000  C
  C148     1.0000 0.29560  0.08596  0.01387  Biso   1.000  C
  O127     1.0000 0.43542  0.11246  0.98566  Biso   1.000  O
  H254     1.0000 0.34703  0.07880  0.90116  Biso   1.000  H
  C149     1.0000 0.27812  0.00710  0.01719  Biso   1.000  C
  C150     1.0000 0.27606  0.04628  0.68930  Biso   1.000  C
  C151     1.0000 0.26558  0.97135  0.63799  Biso   1.000  C
  H255     1.0000 0.31321  0.99261  0.76776  Biso   1.000  H
  C152     1.0000 0.23069  0.04897  0.99422  Biso   1.000  C
  H256     1.0000 0.31914  0.08811  0.07933  Biso   1.000  H
  O128     1.0000 0.24621  0.12390  0.98221  Biso   1.000  O
  H257     1.0000 0.47081  0.10729  0.03392  Biso   1.000  H
  H258     1.0000 0.30161  0.00621  0.08271  Biso   1.000  H
  C153     1.0000 0.22058  0.96830  0.99104  Biso   1.000  C
  C154     1.0000 0.17969  0.04358  0.69640  Biso   1.000  C
  O129     1.0000 0.32447  0.07525  0.75117  Biso   1.000  O
  H259     1.0000 0.27976  0.05540  0.62776  Biso   1.000  H
  O130     1.0000 0.17387  0.97084  0.64781  Biso   1.000  O
  H260     1.0000 0.26861  0.98149  0.57698  Biso   1.000  H
  C155     1.0000 0.29811  0.92590  0.64901  Biso   1.000  C
  O131     1.0000 0.16731  0.05525  0.04998  Biso   1.000  O
  H261     1.0000 0.19990  0.04929  0.93037  Biso   1.000  H
  H262     1.0000 0.27831  0.14529  0.99754  Biso   1.000  H
  O132     1.0000 0.19401  0.96396  0.89684  Biso   1.000  O
  H263     1.0000 0.25423  0.94269  0.01560  Biso   1.000  H
  H264     1.0000 0.16689  0.97030  0.01733  Biso   1.000  H
  C156     1.0000 0.13041  0.01027  0.63281  Biso   1.000  C
  O133     1.0000 0.13577  0.08326  0.68140  Biso   1.000  O
  H265     1.0000 0.17767  0.03448  0.75820  Biso   1.000  H
  H266     1.0000 0.29688  0.09842  0.74811  Biso   1.000  H
  O134     1.0000 0.25367  0.90038  0.57897  Biso   1.000  O
  H267     1.0000 0.36296  0.92510  0.65067  Biso   1.000  H
  H268     1.0000 0.28757  0.91461  0.70609  Biso   1.000  H
  C157     1.0000 0.07491  0.05334  0.01261  Biso   1.000  C
  H269     1.0000 0.14058  0.97160  0.88065  Biso   1.000  H
  O135     1.0000 0.12889  0.02447  0.54492  Biso   1.000  O
  H270     1.0000 0.06798  0.00751  0.64210  Biso   1.000  H
  H271     1.0000 0.10818  0.08469  0.62849  Biso   1.000  H
  H272     1.0000 0.20229  0.89461  0.58707  Biso   1.000  H
  C158     1.0000 0.03272  0.09223  0.04441  Biso   1.000  C
  O136     1.0000 0.03757  0.01588  0.04003  Biso   1.000  O
  H273     1.0000 0.06577  0.05391  0.94636  Biso   1.000  H
  C159     1.0000 0.04398  0.02998  0.48717  Biso   1.000  C
  O137     1.0000 0.06847  0.13062  0.01660  Biso   1.000  O
  C160     1.0000 0.04408  0.09090  0.14478  Biso   1.000  C
  H274     1.0000 0.96737  0.09151  0.01812  Biso   1.000  H
  C161     1.0000 0.04940  0.01195  0.13562  Biso   1.000  C
  C162     1.0000 0.02940  0.99471  0.41760  Biso   1.000  C
  C163     1.0000 0.04307  0.07319  0.44601  Biso   1.000  C
  H275     1.0000 0.99610  0.02849  0.52282  Biso   1.000  H
  H276     1.0000 0.12329  0.12761  0.01839  Biso   1.000  H
  H277     1.0000 0.10897  0.09261  0.17239  Biso   1.000  H
  C164     1.0000 0.00600  0.04989  0.17239  Biso   1.000  C
  O138     1.0000 0.99853  0.12593  0.17452  Biso   1.000  O
  H278     1.0000 0.11459  0.01189  0.16210  Biso   1.000  H
  C165     1.0000 0.01060  0.97002  0.15420  Biso   1.000  C
  O139     1.0000 0.95151  0.00254  0.35009  Biso   1.000  O
  H279     1.0000 0.08241  0.99360  0.38893  Biso   1.000  H
  C166     1.0000 0.01730  0.95138  0.45677  Biso   1.000  C
  C167     1.0000 0.95630  0.07765  0.37757  Biso   1.000  C
  O140     1.0000 0.04792  0.10418  0.51432  Biso   1.000  O
  H280     1.0000 0.09517  0.07629  0.41641  Biso   1.000  H
  O141     1.0000 0.02519  0.04729  0.26659  Biso   1.000  O
  H281     1.0000 0.93998  0.04929  0.14982  Biso   1.000  H
  H282     1.0000 0.01602  0.15040  0.16257  Biso   1.000  H
  O142     1.0000 0.91857  0.96913  0.11869  Biso   1.000  O
  H283     1.0000 0.04042  0.94691  0.12772  Biso   1.000  H
  H284     1.0000 0.02110  0.96520  0.21912  Biso   1.000  H
  C168     1.0000 0.95178  0.04241  0.30927  Biso   1.000  C
  O143     1.0000 0.94421  0.95201  0.50230  Biso   1.000  O
  H285     1.0000 0.00586  0.93002  0.40877  Biso   1.000  H
  H286     1.0000 0.07271  0.94330  0.49879  Biso   1.000  H
  O144     1.0000 0.94998  0.11835  0.33582  Biso   1.000  O
  H287     1.0000 0.90519  0.07429  0.40851  Biso   1.000  H
  H288     1.0000 0.03658  0.12821  0.49128  Biso   1.000  H
  H289     1.0000 0.89217  0.95211  0.14750  Biso   1.000  H
  H290     1.0000 0.89531  0.04561  0.26400  Biso   1.000  H
  H291     1.0000 0.95389  0.94311  0.55548  Biso   1.000  H
  H292     1.0000 0.96488  0.12070  0.28570  Biso   1.000  H
  Ne1      1.0000 0.41848  0.25032  0.42993  Biso   1.000  Ne
  He1      1.0000 0.42403  0.28658  0.44778  Biso   1.000  He
  He2      1.0000 0.41080  0.20527  0.41931  Biso   1.000  He
  Ar1      1.0000 0.40984  0.24148  0.43640  Biso   1.000  Ar
  Ne2      1.0000 0.64320  0.51744  0.63769  Biso   1.000  Ne
  He3      1.0000 0.68850  0.46662  0.65657  Biso   1.000  He
  He4      1.0000 0.67059  0.53133  0.64372  Biso   1.000  He
  Ar2      1.0000 0.67056  0.53133  0.64370  Biso   1.000  Ar
  Ne3      1.0000 0.35679  0.01745  0.36230  Biso   1.000  Ne
  He5      1.0000 0.36957  0.07895  0.38187  Biso   1.000  He
  He6      1.0000 0.31206  0.96762  0.34315  Biso   1.000  He
  Ar3      1.0000 0.36717  0.06855  0.37878  Biso   1.000  Ar
  Ne4      1.0000 0.58150  0.75032  0.57005  Biso   1.000  Ne
  He7      1.0000 0.59892  0.67536  0.58914  Biso   1.000  He
  He8      1.0000 0.57537  0.78846  0.55175  Biso   1.000  He
  Ar4      1.0000 0.59215  0.74113  0.56474  Biso   1.000  Ar
