data_image0
_cell_length_a       35.993
_cell_length_b       12.065
_cell_length_c       11.369
_cell_angle_alpha    90
_cell_angle_beta     90
_cell_angle_gamma    90

_symmetry_space_group_name_H-M    "P 1"
_symmetry_int_tables_number       1

loop_
  _symmetry_equiv_pos_as_xyz
  'x, y, z'

loop_
  _atom_site_label
  _atom_site_occupancy
  _atom_site_fract_x
  _atom_site_fract_y
  _atom_site_fract_z
  _atom_site_thermal_displace_type
  _atom_site_B_iso_or_equiv
  _atom_site_type_symbol
  C1       1.0000 0.51727  0.51886  0.18014  Biso   1.000  C
  C2       1.0000 0.55655  0.47609  0.18937  Biso   1.000  C
  C3       1.0000 0.51632  0.63970  0.14302  Biso   1.000  C
  H1       1.0000 0.50479  0.51090  0.25719  Biso   1.000  H
  H2       1.0000 0.50340  0.47393  0.12200  Biso   1.000  H
  C4       1.0000 0.57436  0.42752  0.09069  Biso   1.000  C
  C5       1.0000 0.57717  0.48637  0.29141  Biso   1.000  C
  C6       1.0000 0.51924  0.72341  0.22702  Biso   1.000  C
  C7       1.0000 0.51307  0.66929  0.02463  Biso   1.000  C
  C8       1.0000 0.61137  0.39436  0.09614  Biso   1.000  C
  O1       1.0000 0.55227  0.41600  0.99384  Biso   1.000  O
  C9       1.0000 0.61445  0.45238  0.29440  Biso   1.000  C
  H3       1.0000 0.56600  0.51678  0.36001  Biso   1.000  H
  O2       1.0000 0.52446  0.68835  0.34102  Biso   1.000  O
  C10      1.0000 0.51746  0.83440  0.19272  Biso   1.000  C
  H4       1.0000 0.51149  0.61276  0.96666  Biso   1.000  H
  C11      1.0000 0.51202  0.77986  0.98962  Biso   1.000  C
  C12      1.0000 0.63235  0.40829  0.19676  Biso   1.000  C
  H5       1.0000 0.62251  0.36138  0.02894  Biso   1.000  H
  C13      1.0000 0.56931  0.37041  0.89181  Biso   1.000  C
  O3       1.0000 0.63421  0.47302  0.40004  Biso   1.000  O
  C14      1.0000 0.52249  0.76900  0.43223  Biso   1.000  C
  C15      1.0000 0.51335  0.86399  0.07441  Biso   1.000  C
  H6       1.0000 0.51910  0.89092  0.25077  Biso   1.000  H
  O4       1.0000 0.50899  0.81525  0.87633  Biso   1.000  O
  C16      1.0000 0.67358  0.38085  0.19720  Biso   1.000  C
  H7       1.0000 0.55180  0.37339  0.82584  Biso   1.000  H
  H8       1.0000 0.57620  0.29308  0.90703  Biso   1.000  H
  H9       1.0000 0.59162  0.41318  0.87237  Biso   1.000  H
  S1       1.0000 0.64190  0.37795  0.49336  Biso   1.000  S
  H10      1.0000 0.54249  0.82321  0.42202  Biso   1.000  H
  H11      1.0000 0.52521  0.73237  0.50858  Biso   1.000  H
  H12      1.0000 0.49840  0.80688  0.42871  Biso   1.000  H
  C17      1.0000 0.51166  0.98392  0.03633  Biso   1.000  C
  C18      1.0000 0.50551  0.73311  0.78828  Biso   1.000  C
  H13      1.0000 0.68149  0.36212  0.27812  Biso   1.000  H
  H14      1.0000 0.67822  0.31571  0.14636  Biso   1.000  H
  C19      1.0000 0.69575  0.47799  0.15314  Biso   1.000  C
  O5       1.0000 0.64557  0.27269  0.44111  Biso   1.000  O
  O6       1.0000 0.66827  0.42230  0.57173  Biso   1.000  O
  C20      1.0000 0.59820  0.37140  0.57393  Biso   1.000  C
  H15      1.0000 0.49451  0.99088  0.96869  Biso   1.000  H
  C21      1.0000 0.54975  0.02801  0.00141  Biso   1.000  C
  H16      1.0000 0.50160  0.02926  0.10159  Biso   1.000  H
  H17      1.0000 0.50240  0.76867  0.71150  Biso   1.000  H
  H18      1.0000 0.48379  0.68661  0.80517  Biso   1.000  H
  H19      1.0000 0.52791  0.68686  0.78723  Biso   1.000  H
  C22      1.0000 0.71100  0.55499  0.23072  Biso   1.000  C
  C23      1.0000 0.70194  0.49308  0.03193  Biso   1.000  C
  F1       1.0000 0.60334  0.30468  0.66549  Biso   1.000  F
  F2       1.0000 0.57164  0.32756  0.50629  Biso   1.000  F
  F3       1.0000 0.58739  0.47128  0.61017  Biso   1.000  F
  C24      1.0000 0.56222  0.02105  0.88460  Biso   1.000  C
  C25      1.0000 0.57339  0.07236  0.08734  Biso   1.000  C
  H20      1.0000 0.70742  0.54563  0.31278  Biso   1.000  H
  C26      1.0000 0.73136  0.64542  0.19043  Biso   1.000  C
  O7       1.0000 0.68644  0.41467  0.95998  Biso   1.000  O
  C27      1.0000 0.72236  0.58367  0.99270  Biso   1.000  C
  H21      1.0000 0.54619  0.99279  0.82531  Biso   1.000  H
  C28      1.0000 0.59753  0.05528  0.85610  Biso   1.000  C
  O8       1.0000 0.55941  0.07717  0.19879  Biso   1.000  O
  C29      1.0000 0.60870  0.10758  0.05568  Biso   1.000  C
  O9       1.0000 0.74695  0.72408  0.26308  Biso   1.000  O
  C30      1.0000 0.73728  0.66026  0.06993  Biso   1.000  C
  C31      1.0000 0.68799  0.43332  0.83437  Biso   1.000  C
  H22      1.0000 0.72620  0.59329  0.91072  Biso   1.000  H
  O10      1.0000 0.61204  0.04741  0.74149  Biso   1.000  O
  C32      1.0000 0.62190  0.09714  0.94063  Biso   1.000  C
  C33      1.0000 0.58150  0.12988  0.28692  Biso   1.000  C
  H23      1.0000 0.62429  0.13949  0.11382  Biso   1.000  H
  C34      1.0000 0.73795  0.71977  0.38526  Biso   1.000  C
  C35      1.0000 0.75995  0.75798  0.02410  Biso   1.000  C
  H24      1.0000 0.67521  0.37290  0.79356  Biso   1.000  H
  H25      1.0000 0.71400  0.43556  0.80904  Biso   1.000  H
  H26      1.0000 0.67599  0.50385  0.81546  Biso   1.000  H
  C36      1.0000 0.58650  0.02487  0.64852  Biso   1.000  C
  C37      1.0000 0.66124  0.12905  0.91081  Biso   1.000  C
  H27      1.0000 0.58770  0.20514  0.26150  Biso   1.000  H
  H28      1.0000 0.60440  0.08736  0.29888  Biso   1.000  H
  H29      1.0000 0.56750  0.13311  0.36081  Biso   1.000  H
  H30      1.0000 0.71119  0.73129  0.39546  Biso   1.000  H
  H31      1.0000 0.75159  0.77787  0.42721  Biso   1.000  H
  H32      1.0000 0.74489  0.64716  0.41701  Biso   1.000  H
  H33      1.0000 0.77801  0.78110  0.08523  Biso   1.000  H
  H34      1.0000 0.77421  0.73436  0.95391  Biso   1.000  H
  C38      1.0000 0.73573  0.85537  0.99208  Biso   1.000  C
  H35      1.0000 0.57989  0.94613  0.64922  Biso   1.000  H
  H36      1.0000 0.59801  0.04360  0.57287  Biso   1.000  H
  H37      1.0000 0.56400  0.06962  0.65942  Biso   1.000  H
  C39      1.0000 0.68813  0.03481  0.93799  Biso   1.000  C
  H38      1.0000 0.66841  0.19544  0.95681  Biso   1.000  H
  H39      1.0000 0.66291  0.14820  0.82628  Biso   1.000  H
  C40      1.0000 0.72547  0.93245  0.07723  Biso   1.000  C
  C41      1.0000 0.72153  0.87062  0.87791  Biso   1.000  C
  C42      1.0000 0.69866  0.95897  0.85258  Biso   1.000  C
  C43      1.0000 0.70219  0.01931  0.05339  Biso   1.000  C
  H40      1.0000 0.73500  0.92458  0.15472  Biso   1.000  H
  O11      1.0000 0.73292  0.79295  0.79620  Biso   1.000  O
  H41      1.0000 0.68980  0.96826  0.77439  Biso   1.000  H
  O12      1.0000 0.69122  0.09872  0.13502  Biso   1.000  O
  C44      1.0000 0.72139  0.80887  0.67728  Biso   1.000  C
  C45      1.0000 0.70269  0.08090  0.25244  Biso   1.000  C
  H42      1.0000 0.73370  0.75441  0.62679  Biso   1.000  H
  H43      1.0000 0.72811  0.88380  0.65168  Biso   1.000  H
  H44      1.0000 0.69441  0.79925  0.67183  Biso   1.000  H
  H45      1.0000 0.72989  0.08272  0.25640  Biso   1.000  H
  H46      1.0000 0.69380  0.00845  0.27918  Biso   1.000  H
  H47      1.0000 0.69241  0.13916  0.30293  Biso   1.000  H
  O13      1.0000 0.44773  0.58400  0.49380  Biso   1.000  O
  C46      1.0000 0.42564  0.57248  0.59073  Biso   1.000  C
  C47      1.0000 0.43069  0.62959  0.39177  Biso   1.000  C
  C48      1.0000 0.38863  0.60555  0.59609  Biso   1.000  C
  C49      1.0000 0.44345  0.52391  0.68942  Biso   1.000  C
  H48      1.0000 0.44820  0.62661  0.32580  Biso   1.000  H
  H49      1.0000 0.42380  0.70692  0.40698  Biso   1.000  H
  H50      1.0000 0.40841  0.58682  0.37242  Biso   1.000  H
  C50      1.0000 0.36765  0.59171  0.69681  Biso   1.000  C
  H51      1.0000 0.37749  0.63862  0.52889  Biso   1.000  H
  C51      1.0000 0.42283  0.51355  0.79136  Biso   1.000  C
  C52      1.0000 0.48273  0.48106  0.68009  Biso   1.000  C
  C53      1.0000 0.32642  0.61906  0.69716  Biso   1.000  C
  C54      1.0000 0.38555  0.54762  0.79444  Biso   1.000  C
  H52      1.0000 0.43400  0.48322  0.85997  Biso   1.000  H
  C55      1.0000 0.48371  0.36030  0.64298  Biso   1.000  C
  H53      1.0000 0.49521  0.48910  0.75723  Biso   1.000  H
  H54      1.0000 0.49660  0.52607  0.62204  Biso   1.000  H
  C56      1.0000 0.30425  0.52201  0.65309  Biso   1.000  C
  H55      1.0000 0.31851  0.63788  0.77808  Biso   1.000  H
  H56      1.0000 0.32181  0.68429  0.64641  Biso   1.000  H
  O14      1.0000 0.36579  0.52698  0.89999  Biso   1.000  O
  C57      1.0000 0.48076  0.27659  0.72698  Biso   1.000  C
  C58      1.0000 0.48693  0.33071  0.52458  Biso   1.000  C
  C59      1.0000 0.28900  0.44501  0.73067  Biso   1.000  C
  C60      1.0000 0.29806  0.50692  0.53188  Biso   1.000  C
  S2       1.0000 0.35810  0.62205  0.99332  Biso   1.000  S
  C61      1.0000 0.48254  0.16560  0.69267  Biso   1.000  C
  O15      1.0000 0.47554  0.31156  0.84097  Biso   1.000  O
  C62      1.0000 0.48798  0.22006  0.48958  Biso   1.000  C
  H57      1.0000 0.48851  0.38715  0.46671  Biso   1.000  H
  C63      1.0000 0.26864  0.35458  0.69039  Biso   1.000  C
  H58      1.0000 0.29261  0.45437  0.81282  Biso   1.000  H
  C64      1.0000 0.27764  0.41633  0.49274  Biso   1.000  C
  O16      1.0000 0.31356  0.58533  0.46002  Biso   1.000  O
  O17      1.0000 0.35443  0.72731  0.94107  Biso   1.000  O
  O18      1.0000 0.33173  0.57770  0.07169  Biso   1.000  O
  C65      1.0000 0.40180  0.62860  0.07389  Biso   1.000  C
  C66      1.0000 0.48665  0.13601  0.57437  Biso   1.000  C
  H59      1.0000 0.48090  0.10908  0.75081  Biso   1.000  H
  C67      1.0000 0.47751  0.23100  0.93218  Biso   1.000  C
  O19      1.0000 0.49101  0.18467  0.37629  Biso   1.000  O
  C68      1.0000 0.26272  0.33966  0.56988  Biso   1.000  C
  O20      1.0000 0.25305  0.27592  0.76313  Biso   1.000  O
  H60      1.0000 0.27380  0.40671  0.41068  Biso   1.000  H
  C69      1.0000 0.31201  0.56668  0.33442  Biso   1.000  C
  F4       1.0000 0.39666  0.69532  0.16554  Biso   1.000  F
  F5       1.0000 0.42836  0.67236  0.00633  Biso   1.000  F
  F6       1.0000 0.41261  0.52872  0.11021  Biso   1.000  F
  C70      1.0000 0.48837  0.01608  0.53628  Biso   1.000  C
  H61      1.0000 0.45751  0.17679  0.92198  Biso   1.000  H
  H62      1.0000 0.50160  0.19312  0.92867  Biso   1.000  H
  H63      1.0000 0.47481  0.26763  0.00862  Biso   1.000  H
  C71      1.0000 0.49451  0.26689  0.28833  Biso   1.000  C
  C72      1.0000 0.24007  0.24202  0.52406  Biso   1.000  C
  C73      1.0000 0.26205  0.28023  0.88530  Biso   1.000  C
  H64      1.0000 0.32481  0.62710  0.29361  Biso   1.000  H
  H65      1.0000 0.28600  0.56436  0.30900  Biso   1.000  H
  H66      1.0000 0.32401  0.49606  0.31551  Biso   1.000  H
  C74      1.0000 0.45025  0.97199  0.50136  Biso   1.000  C
  H67      1.0000 0.50551  0.00912  0.46873  Biso   1.000  H
  H68      1.0000 0.49840  0.97074  0.60164  Biso   1.000  H
  H69      1.0000 0.49760  0.23133  0.21154  Biso   1.000  H
  H70      1.0000 0.51621  0.31339  0.30522  Biso   1.000  H
  H71      1.0000 0.47209  0.31305  0.28718  Biso   1.000  H
  C75      1.0000 0.26427  0.14463  0.49213  Biso   1.000  C
  H72      1.0000 0.22199  0.21890  0.58519  Biso   1.000  H
  H73      1.0000 0.22579  0.26556  0.45387  Biso   1.000  H
  H74      1.0000 0.28881  0.26871  0.89551  Biso   1.000  H
  H75      1.0000 0.24841  0.22213  0.92717  Biso   1.000  H
  H76      1.0000 0.25511  0.35276  0.91697  Biso   1.000  H
  C76      1.0000 0.42661  0.92764  0.58730  Biso   1.000  C
  C77      1.0000 0.43778  0.97886  0.38464  Biso   1.000  C
  C78      1.0000 0.27847  0.12938  0.37787  Biso   1.000  C
  C79      1.0000 0.27453  0.06747  0.57718  Biso   1.000  C
  C80      1.0000 0.39130  0.89242  0.55572  Biso   1.000  C
  O21      1.0000 0.44059  0.92283  0.69883  Biso   1.000  O
  C81      1.0000 0.40247  0.94472  0.35614  Biso   1.000  C
  H77      1.0000 0.45381  0.00721  0.32527  Biso   1.000  H
  O22      1.0000 0.26708  0.20696  0.29616  Biso   1.000  O
  C82      1.0000 0.30136  0.04103  0.35263  Biso   1.000  C
  H78      1.0000 0.26500  0.07542  0.65467  Biso   1.000  H
  C83      1.0000 0.29781  0.98069  0.55343  Biso   1.000  C
  C84      1.0000 0.37810  0.90278  0.44058  Biso   1.000  C
  H79      1.0000 0.37571  0.86051  0.61377  Biso   1.000  H
  C85      1.0000 0.41850  0.87012  0.78688  Biso   1.000  C
  O23      1.0000 0.38796  0.95259  0.24153  Biso   1.000  O
  C86      1.0000 0.27861  0.19113  0.17732  Biso   1.000  C
  H80      1.0000 0.31020  0.03166  0.27443  Biso   1.000  H
  C87      1.0000 0.31189  0.96519  0.43803  Biso   1.000  C
  O24      1.0000 0.30878  0.90128  0.63497  Biso   1.000  O
  C88      1.0000 0.33876  0.87087  0.41077  Biso   1.000  C
  H81      1.0000 0.41230  0.79478  0.76146  Biso   1.000  H
  H82      1.0000 0.39560  0.91264  0.79893  Biso   1.000  H
  H83      1.0000 0.43250  0.86689  0.86076  Biso   1.000  H
  C89      1.0000 0.41350  0.97513  0.14847  Biso   1.000  C
  H84      1.0000 0.26630  0.24559  0.12684  Biso   1.000  H
  H85      1.0000 0.27191  0.11620  0.15173  Biso   1.000  H
  H86      1.0000 0.30559  0.20066  0.17178  Biso   1.000  H
  C90      1.0000 0.29731  0.91910  0.75240  Biso   1.000  C
  H87      1.0000 0.33159  0.80448  0.45677  Biso   1.000  H
  H88      1.0000 0.33709  0.85180  0.32633  Biso   1.000  H
  H89      1.0000 0.42011  0.05387  0.14918  Biso   1.000  H
  H90      1.0000 0.40199  0.95640  0.07292  Biso   1.000  H
  H91      1.0000 0.43600  0.93038  0.15938  Biso   1.000  H
  H92      1.0000 0.27011  0.91728  0.75644  Biso   1.000  H
  H93      1.0000 0.30620  0.99146  0.77922  Biso   1.000  H
  H94      1.0000 0.30759  0.86084  0.80289  Biso   1.000  H
  C91      1.0000 0.74006  0.25802  0.52406  Biso   1.000  C
  C92      1.0000 0.76273  0.16030  0.56988  Biso   1.000  C
  H95      1.0000 0.72200  0.28106  0.58519  Biso   1.000  H
  H96      1.0000 0.72581  0.23440  0.45387  Biso   1.000  H
  C93      1.0000 0.76429  0.35541  0.49213  Biso   1.000  C
  C94      1.0000 0.76865  0.14538  0.69039  Biso   1.000  C
  C95      1.0000 0.77765  0.08371  0.49274  Biso   1.000  C
  C96      1.0000 0.77451  0.43249  0.57718  Biso   1.000  C
  C97      1.0000 0.77846  0.37058  0.37787  Biso   1.000  C
  O25      1.0000 0.75306  0.22412  0.76313  Biso   1.000  O
  C98      1.0000 0.78899  0.05504  0.73067  Biso   1.000  C
  H97      1.0000 0.77379  0.09333  0.41068  Biso   1.000  H
  C99      1.0000 0.79804  0.99312  0.53188  Biso   1.000  C
  H98      1.0000 0.76501  0.42462  0.65467  Biso   1.000  H
  C100     1.0000 0.79782  0.51927  0.55343  Biso   1.000  C
  O26      1.0000 0.76709  0.29300  0.29616  Biso   1.000  O
  C101     1.0000 0.80135  0.45901  0.35263  Biso   1.000  C
  C102     1.0000 0.76206  0.21981  0.88530  Biso   1.000  C
  H99      1.0000 0.79260  0.04559  0.81282  Biso   1.000  H
  C103     1.0000 0.80427  0.97804  0.65309  Biso   1.000  C
  O27      1.0000 0.81357  0.91471  0.46002  Biso   1.000  O
  O28      1.0000 0.80880  0.59867  0.63497  Biso   1.000  O
  C104     1.0000 0.81188  0.53477  0.43803  Biso   1.000  C
  C105     1.0000 0.77860  0.30891  0.17732  Biso   1.000  C
  H100     1.0000 0.81021  0.46830  0.27443  Biso   1.000  H
  H101     1.0000 0.78879  0.23133  0.89551  Biso   1.000  H
  H102     1.0000 0.74840  0.27791  0.92717  Biso   1.000  H
  H103     1.0000 0.75509  0.14720  0.91697  Biso   1.000  H
  C106     1.0000 0.82641  0.88090  0.69716  Biso   1.000  C
  C107     1.0000 0.81199  0.93328  0.33442  Biso   1.000  C
  C108     1.0000 0.79729  0.58085  0.75240  Biso   1.000  C
  C109     1.0000 0.83875  0.62909  0.41077  Biso   1.000  C
  H104     1.0000 0.76632  0.25437  0.12684  Biso   1.000  H
  H105     1.0000 0.77190  0.38375  0.15173  Biso   1.000  H
  H106     1.0000 0.80560  0.29930  0.17178  Biso   1.000  H
  C110     1.0000 0.86767  0.90833  0.69681  Biso   1.000  C
  H107     1.0000 0.81849  0.86208  0.77808  Biso   1.000  H
  H108     1.0000 0.82180  0.81567  0.64641  Biso   1.000  H
  H109     1.0000 0.82399  0.00390  0.31551  Biso   1.000  H
  H110     1.0000 0.82480  0.87294  0.29361  Biso   1.000  H
  H111     1.0000 0.78601  0.93560  0.30900  Biso   1.000  H
  H112     1.0000 0.77009  0.58268  0.75644  Biso   1.000  H
  H113     1.0000 0.80621  0.50850  0.77922  Biso   1.000  H
  H114     1.0000 0.80760  0.63920  0.80289  Biso   1.000  H
  H115     1.0000 0.83161  0.69548  0.45677  Biso   1.000  H
  H116     1.0000 0.83711  0.64816  0.32633  Biso   1.000  H
  C111     1.0000 0.87812  0.59718  0.44058  Biso   1.000  C
  C112     1.0000 0.88556  0.95242  0.79444  Biso   1.000  C
  C113     1.0000 0.88865  0.89441  0.59609  Biso   1.000  C
  C114     1.0000 0.89131  0.60763  0.55572  Biso   1.000  C
  C115     1.0000 0.90248  0.55533  0.35614  Biso   1.000  C
  O29      1.0000 0.86578  0.97298  0.89999  Biso   1.000  O
  C116     1.0000 0.92285  0.98641  0.79136  Biso   1.000  C
  H117     1.0000 0.87750  0.86142  0.52889  Biso   1.000  H
  C117     1.0000 0.92565  0.92748  0.59073  Biso   1.000  C
  H118     1.0000 0.87570  0.63945  0.61377  Biso   1.000  H
  C118     1.0000 0.92662  0.57240  0.58730  Biso   1.000  C
  O30      1.0000 0.88798  0.54737  0.24153  Biso   1.000  O
  C119     1.0000 0.93779  0.52109  0.38464  Biso   1.000  C
  S3       1.0000 0.85808  0.87799  0.99332  Biso   1.000  S
  H119     1.0000 0.93401  0.01683  0.85997  Biso   1.000  H
  C120     1.0000 0.94343  0.97613  0.68942  Biso   1.000  C
  O31      1.0000 0.94774  0.91604  0.49380  Biso   1.000  O
  O32      1.0000 0.94060  0.57721  0.69883  Biso   1.000  O
  C121     1.0000 0.95024  0.52797  0.50136  Biso   1.000  C
  C122     1.0000 0.91351  0.52491  0.14847  Biso   1.000  C
  H120     1.0000 0.95380  0.49283  0.32527  Biso   1.000  H
  O33      1.0000 0.85442  0.77273  0.94107  Biso   1.000  O
  O34      1.0000 0.83175  0.92234  0.07169  Biso   1.000  O
  C123     1.0000 0.90181  0.87136  0.07389  Biso   1.000  C
  C124     1.0000 0.98272  0.01890  0.68009  Biso   1.000  C
  C125     1.0000 0.93071  0.87037  0.39177  Biso   1.000  C
  C126     1.0000 0.91851  0.62992  0.78688  Biso   1.000  C
  C127     1.0000 0.98836  0.48388  0.53628  Biso   1.000  C
  H121     1.0000 0.90201  0.54356  0.07292  Biso   1.000  H
  H122     1.0000 0.93602  0.56958  0.15938  Biso   1.000  H
  H123     1.0000 0.92010  0.44608  0.14918  Biso   1.000  H
  F7       1.0000 0.89667  0.80472  0.16554  Biso   1.000  F
  F8       1.0000 0.92837  0.82760  0.00633  Biso   1.000  F
  F9       1.0000 0.91259  0.97132  0.11021  Biso   1.000  F
  C128     1.0000 0.98369  0.13966  0.64298  Biso   1.000  C
  H124     1.0000 0.99519  0.01094  0.75723  Biso   1.000  H
  H125     1.0000 0.99661  0.97389  0.62204  Biso   1.000  H
  H126     1.0000 0.94821  0.87344  0.32580  Biso   1.000  H
  H127     1.0000 0.92379  0.79312  0.40698  Biso   1.000  H
  H128     1.0000 0.90840  0.91322  0.37242  Biso   1.000  H
  H129     1.0000 0.91232  0.70518  0.76146  Biso   1.000  H
  H130     1.0000 0.89559  0.58740  0.79893  Biso   1.000  H
  H131     1.0000 0.93251  0.63307  0.86076  Biso   1.000  H
  H132     1.0000 0.99842  0.52930  0.60164  Biso   1.000  H
  C129     1.0000 0.98664  0.36403  0.57437  Biso   1.000  C
  H133     1.0000 0.00550  0.49092  0.46873  Biso   1.000  H
  C130     1.0000 0.98077  0.22337  0.72698  Biso   1.000  C
  C131     1.0000 0.98694  0.16933  0.52458  Biso   1.000  C
  C132     1.0000 0.98255  0.33436  0.69267  Biso   1.000  C
  C133     1.0000 0.98800  0.27990  0.48958  Biso   1.000  C
  O35      1.0000 0.97555  0.18840  0.84097  Biso   1.000  O
  H134     1.0000 0.98850  0.11281  0.46671  Biso   1.000  H
  H135     1.0000 0.98091  0.39088  0.75081  Biso   1.000  H
  O36      1.0000 0.99100  0.31529  0.37629  Biso   1.000  O
  C134     1.0000 0.97750  0.26896  0.93218  Biso   1.000  C
  C135     1.0000 0.99450  0.23307  0.28833  Biso   1.000  C
  H136     1.0000 0.95749  0.32317  0.92198  Biso   1.000  H
  H137     1.0000 0.97480  0.23241  0.00862  Biso   1.000  H
  H138     1.0000 0.00161  0.30692  0.92867  Biso   1.000  H
  H139     1.0000 0.99761  0.26871  0.21154  Biso   1.000  H
  H140     1.0000 0.97211  0.18690  0.28718  Biso   1.000  H
  H141     1.0000 0.01620  0.18657  0.30522  Biso   1.000  H
  O37      1.0000 0.24694  0.77588  0.26308  Biso   1.000  O
  C136     1.0000 0.23135  0.85462  0.19043  Biso   1.000  C
  C137     1.0000 0.23794  0.78019  0.38526  Biso   1.000  C
  C138     1.0000 0.23727  0.83970  0.06993  Biso   1.000  C
  C139     1.0000 0.21101  0.94496  0.23072  Biso   1.000  C
  H142     1.0000 0.21121  0.76867  0.39546  Biso   1.000  H
  H143     1.0000 0.25160  0.72209  0.42721  Biso   1.000  H
  H144     1.0000 0.24491  0.85280  0.41701  Biso   1.000  H
  C140     1.0000 0.25994  0.74198  0.02410  Biso   1.000  C
  C141     1.0000 0.22235  0.91629  0.99270  Biso   1.000  C
  H145     1.0000 0.20740  0.95441  0.31278  Biso   1.000  H
  C142     1.0000 0.19573  0.02196  0.15314  Biso   1.000  C
  C143     1.0000 0.23571  0.64459  0.99208  Biso   1.000  C
  H146     1.0000 0.27800  0.71886  0.08523  Biso   1.000  H
  H147     1.0000 0.27419  0.76560  0.95391  Biso   1.000  H
  H148     1.0000 0.22621  0.90667  0.91072  Biso   1.000  H
  C144     1.0000 0.20196  0.00688  0.03193  Biso   1.000  C
  C145     1.0000 0.17359  0.11910  0.19720  Biso   1.000  C
  C146     1.0000 0.22549  0.56751  0.07723  Biso   1.000  C
  C147     1.0000 0.22154  0.62942  0.87791  Biso   1.000  C
  O38      1.0000 0.18645  0.08529  0.95998  Biso   1.000  O
  C148     1.0000 0.13233  0.09167  0.19676  Biso   1.000  C
  H149     1.0000 0.18151  0.13792  0.27812  Biso   1.000  H
  H150     1.0000 0.17820  0.18425  0.14636  Biso   1.000  H
  C149     1.0000 0.20218  0.48073  0.05339  Biso   1.000  C
  H151     1.0000 0.23499  0.57538  0.15472  Biso   1.000  H
  C150     1.0000 0.19865  0.54099  0.85258  Biso   1.000  C
  O39      1.0000 0.23293  0.70700  0.79620  Biso   1.000  O
  C151     1.0000 0.18801  0.06672  0.83437  Biso   1.000  C
  C152     1.0000 0.11444  0.04758  0.29440  Biso   1.000  C
  C153     1.0000 0.11135  0.10559  0.09614  Biso   1.000  C
  O40      1.0000 0.19120  0.40133  0.13502  Biso   1.000  O
  C154     1.0000 0.18812  0.46523  0.93799  Biso   1.000  C
  H152     1.0000 0.18979  0.53170  0.77439  Biso   1.000  H
  C155     1.0000 0.22140  0.69109  0.67728  Biso   1.000  C
  H153     1.0000 0.17601  0.99610  0.81546  Biso   1.000  H
  H154     1.0000 0.17520  0.12706  0.79356  Biso   1.000  H
  H155     1.0000 0.21401  0.06440  0.80904  Biso   1.000  H
  O41      1.0000 0.13422  0.02702  0.40004  Biso   1.000  O
  C156     1.0000 0.07715  0.01359  0.29141  Biso   1.000  C
  H156     1.0000 0.12250  0.13858  0.02894  Biso   1.000  H
  C157     1.0000 0.07435  0.07244  0.09069  Biso   1.000  C
  C158     1.0000 0.20271  0.41906  0.25244  Biso   1.000  C
  C159     1.0000 0.16125  0.37091  0.91081  Biso   1.000  C
  H157     1.0000 0.23371  0.74563  0.62679  Biso   1.000  H
  H158     1.0000 0.22810  0.61616  0.65168  Biso   1.000  H
  H159     1.0000 0.19440  0.70070  0.67183  Biso   1.000  H
  S4       1.0000 0.14192  0.12201  0.49336  Biso   1.000  S
  H160     1.0000 0.06601  0.98317  0.36001  Biso   1.000  H
  C160     1.0000 0.05657  0.02387  0.18937  Biso   1.000  C
  O42      1.0000 0.05226  0.08396  0.99384  Biso   1.000  O
  H161     1.0000 0.22991  0.41732  0.25640  Biso   1.000  H
  H162     1.0000 0.19379  0.49150  0.27918  Biso   1.000  H
  H163     1.0000 0.19240  0.36080  0.30293  Biso   1.000  H
  H164     1.0000 0.16839  0.30452  0.95681  Biso   1.000  H
  H165     1.0000 0.16289  0.35176  0.82628  Biso   1.000  H
  C161     1.0000 0.12191  0.40282  0.94063  Biso   1.000  C
  O43      1.0000 0.14558  0.22727  0.44111  Biso   1.000  O
  O44      1.0000 0.16825  0.07766  0.57173  Biso   1.000  O
  C162     1.0000 0.09821  0.12855  0.57393  Biso   1.000  C
  C163     1.0000 0.01728  0.98110  0.18014  Biso   1.000  C
  C164     1.0000 0.06929  0.12955  0.89181  Biso   1.000  C
  C165     1.0000 0.10869  0.39237  0.05568  Biso   1.000  C
  C166     1.0000 0.09752  0.44467  0.85610  Biso   1.000  C
  F10      1.0000 0.10333  0.19528  0.66549  Biso   1.000  F
  F11      1.0000 0.07165  0.17240  0.50629  Biso   1.000  F
  F12      1.0000 0.08741  0.02868  0.61017  Biso   1.000  F
  C167     1.0000 0.01631  0.86026  0.14302  Biso   1.000  C
  H166     1.0000 0.00481  0.98906  0.25719  Biso   1.000  H
  H167     1.0000 0.00339  0.02611  0.12200  Biso   1.000  H
  H168     1.0000 0.05179  0.12656  0.82584  Biso   1.000  H
  H169     1.0000 0.07621  0.20688  0.90703  Biso   1.000  H
  H170     1.0000 0.09160  0.08678  0.87237  Biso   1.000  H
  H171     1.0000 0.12430  0.36046  0.11382  Biso   1.000  H
  C168     1.0000 0.07338  0.42760  0.08734  Biso   1.000  C
  O45      1.0000 0.11202  0.45263  0.74149  Biso   1.000  O
  C169     1.0000 0.06221  0.47891  0.88460  Biso   1.000  C
  C170     1.0000 0.01923  0.77663  0.22702  Biso   1.000  C
  C171     1.0000 0.01306  0.83067  0.02463  Biso   1.000  C
  O46      1.0000 0.05940  0.42279  0.19879  Biso   1.000  O
  C172     1.0000 0.04976  0.47203  0.00141  Biso   1.000  C
  C173     1.0000 0.08649  0.47509  0.64852  Biso   1.000  C
  H172     1.0000 0.04620  0.50717  0.82531  Biso   1.000  H
  C174     1.0000 0.01745  0.66556  0.19272  Biso   1.000  C
  O47      1.0000 0.02445  0.81160  0.34102  Biso   1.000  O
  C175     1.0000 0.01200  0.72010  0.98962  Biso   1.000  C
  H173     1.0000 0.01150  0.88719  0.96666  Biso   1.000  H
  C176     1.0000 0.08149  0.37008  0.28692  Biso   1.000  C
  C177     1.0000 0.01164  0.51612  0.03633  Biso   1.000  C
  H174     1.0000 0.09799  0.45636  0.57287  Biso   1.000  H
  H175     1.0000 0.06401  0.43042  0.65942  Biso   1.000  H
  H176     1.0000 0.07990  0.55392  0.64922  Biso   1.000  H
  C178     1.0000 0.01336  0.63597  0.07441  Biso   1.000  C
  H177     1.0000 0.01909  0.60912  0.25077  Biso   1.000  H
  C179     1.0000 0.02250  0.73096  0.43223  Biso   1.000  C
  O48      1.0000 0.00900  0.68471  0.87633  Biso   1.000  O
  H178     1.0000 0.08771  0.29482  0.26150  Biso   1.000  H
  H179     1.0000 0.10441  0.41260  0.29888  Biso   1.000  H
  H180     1.0000 0.06751  0.36693  0.36081  Biso   1.000  H
  H181     1.0000 0.00161  0.47070  0.10159  Biso   1.000  H
  H182     1.0000 0.99450  0.50908  0.96869  Biso   1.000  H
  H183     1.0000 0.04251  0.67675  0.42202  Biso   1.000  H
  H184     1.0000 0.02520  0.76759  0.50858  Biso   1.000  H
  H185     1.0000 0.99839  0.69308  0.42871  Biso   1.000  H
  C180     1.0000 0.00550  0.76685  0.78828  Biso   1.000  C
  H186     1.0000 0.98380  0.81343  0.80517  Biso   1.000  H
  H187     1.0000 0.00239  0.73129  0.71150  Biso   1.000  H
  H188     1.0000 0.02789  0.81310  0.78723  Biso   1.000  H
