data_image0
_cell_length_a       22.037
_cell_length_b       11.998
_cell_length_c       22.716
_cell_angle_alpha    90
_cell_angle_beta     110.29
_cell_angle_gamma    90

_symmetry_space_group_name_H-M    "P 1"
_symmetry_int_tables_number       1

loop_
  _symmetry_equiv_pos_as_xyz
  'x, y, z'

loop_
  _atom_site_label
  _atom_site_occupancy
  _atom_site_fract_x
  _atom_site_fract_y
  _atom_site_fract_z
  _atom_site_thermal_displace_type
  _atom_site_B_iso_or_equiv
  _atom_site_type_symbol
  C1       1.0000 0.50404  0.40873  0.40959  Biso   1.000  C
  O1       1.0000 0.51169  0.38131  0.35140  Biso   1.000  O
  H1       1.0000 0.54620  0.40623  0.44339  Biso   1.000  H
  H2       1.0000 0.48581  0.48383  0.40711  Biso   1.000  H
  H3       1.0000 0.47484  0.35481  0.41842  Biso   1.000  H
  C2       1.0000 0.54310  0.45891  0.32732  Biso   1.000  C
  C3       1.0000 0.53987  0.44257  0.26560  Biso   1.000  C
  C4       1.0000 0.57692  0.55034  0.36149  Biso   1.000  C
  C5       1.0000 0.50549  0.34239  0.22819  Biso   1.000  C
  C6       1.0000 0.56977  0.51942  0.23904  Biso   1.000  C
  C7       1.0000 0.60723  0.62627  0.33469  Biso   1.000  C
  H4       1.0000 0.57934  0.56043  0.40368  Biso   1.000  H
  C8       1.0000 0.55090  0.24604  0.23171  Biso   1.000  C
  H5       1.0000 0.48432  0.36439  0.18370  Biso   1.000  H
  H6       1.0000 0.47124  0.31772  0.24420  Biso   1.000  H
  H7       1.0000 0.56742  0.50942  0.19679  Biso   1.000  H
  C9       1.0000 0.60286  0.61002  0.27245  Biso   1.000  C
  C10      1.0000 0.64570  0.72270  0.37313  Biso   1.000  C
  C11      1.0000 0.58019  0.22737  0.18760  Biso   1.000  C
  C12      1.0000 0.56741  0.17353  0.28207  Biso   1.000  C
  O2       1.0000 0.63153  0.69070  0.24744  Biso   1.000  O
  H8       1.0000 0.62821  0.74187  0.40659  Biso   1.000  H
  H9       1.0000 0.64083  0.78880  0.34581  Biso   1.000  H
  C13      1.0000 0.71672  0.69378  0.40260  Biso   1.000  C
  O3       1.0000 0.57013  0.30980  0.13850  Biso   1.000  O
  C14      1.0000 0.62183  0.13977  0.19032  Biso   1.000  C
  H10      1.0000 0.54940  0.18411  0.31408  Biso   1.000  H
  C15      1.0000 0.60984  0.08510  0.28691  Biso   1.000  C
  C16      1.0000 0.61920  0.68520  0.18159  Biso   1.000  C
  C17      1.0000 0.75740  0.70145  0.36698  Biso   1.000  C
  C18      1.0000 0.74542  0.65528  0.46282  Biso   1.000  C
  S1       1.0000 0.52371  0.28588  0.07021  Biso   1.000  S
  C19      1.0000 0.63712  0.06593  0.24021  Biso   1.000  C
  H11      1.0000 0.63971  0.13027  0.15821  Biso   1.000  H
  O4       1.0000 0.62791  0.01150  0.33605  Biso   1.000  O
  H12      1.0000 0.63911  0.61777  0.17201  Biso   1.000  H
  H13      1.0000 0.57243  0.68311  0.15901  Biso   1.000  H
  H14      1.0000 0.63762  0.75104  0.16849  Biso   1.000  H
  H15      1.0000 0.74053  0.73012  0.32549  Biso   1.000  H
  C20      1.0000 0.82102  0.66844  0.39059  Biso   1.000  C
  O5       1.0000 0.70765  0.64527  0.50327  Biso   1.000  O
  C21      1.0000 0.80880  0.61769  0.48718  Biso   1.000  C
  O6       1.0000 0.52052  0.17586  0.05379  Biso   1.000  O
  O7       1.0000 0.46663  0.35073  0.05740  Biso   1.000  O
  C22      1.0000 0.56899  0.36039  0.03121  Biso   1.000  C
  C23      1.0000 0.68412  0.97100  0.24589  Biso   1.000  C
  C24      1.0000 0.60752  0.03542  0.38768  Biso   1.000  C
  O8       1.0000 0.86284  0.67545  0.35792  Biso   1.000  O
  C25      1.0000 0.84784  0.62294  0.45090  Biso   1.000  C
  S2       1.0000 0.69597  0.75154  0.53927  Biso   1.000  S
  H16      1.0000 0.82542  0.58860  0.52857  Biso   1.000  H
  F1       1.0000 0.58589  0.45358  0.04980  Biso   1.000  F
  F2       1.0000 0.62571  0.30038  0.04388  Biso   1.000  F
  F3       1.0000 0.53554  0.35864  0.97090  Biso   1.000  F
  C26      1.0000 0.75223  0.00617  0.28372  Biso   1.000  C
  H17      1.0000 0.68213  0.94732  0.20351  Biso   1.000  H
  H18      1.0000 0.67161  0.90657  0.26649  Biso   1.000  H
  H19      1.0000 0.62465  0.10810  0.40551  Biso   1.000  H
  H20      1.0000 0.56021  0.03684  0.37341  Biso   1.000  H
  H21      1.0000 0.62394  0.97758  0.41992  Biso   1.000  H
  C27      1.0000 0.83981  0.72762  0.29780  Biso   1.000  C
  C28      1.0000 0.91701  0.58151  0.47568  Biso   1.000  C
  O9       1.0000 0.69831  0.85198  0.50736  Biso   1.000  O
  O10      1.0000 0.64484  0.72329  0.55988  Biso   1.000  O
  C29      1.0000 0.76902  0.75663  0.60958  Biso   1.000  C
  C30      1.0000 0.79271  0.05359  0.25490  Biso   1.000  C
  C31      1.0000 0.77684  0.99442  0.34938  Biso   1.000  C
  H22      1.0000 0.82624  0.80405  0.30211  Biso   1.000  H
  H23      1.0000 0.87450  0.72929  0.28010  Biso   1.000  H
  H24      1.0000 0.80302  0.68553  0.26978  Biso   1.000  H
  H25      1.0000 0.94433  0.63152  0.46071  Biso   1.000  H
  H26      1.0000 0.93323  0.58485  0.52210  Biso   1.000  H
  C32      1.0000 0.92363  0.46224  0.45498  Biso   1.000  C
  F4       1.0000 0.76066  0.83764  0.64638  Biso   1.000  F
  F5       1.0000 0.77755  0.66078  0.63967  Biso   1.000  F
  F6       1.0000 0.82082  0.77921  0.59606  Biso   1.000  F
  O11      1.0000 0.76614  0.06301  0.19022  Biso   1.000  O
  C33      1.0000 0.85464  0.08760  0.29080  Biso   1.000  C
  C34      1.0000 0.83834  0.03001  0.38472  Biso   1.000  C
  H27      1.0000 0.75053  0.96116  0.36998  Biso   1.000  H
  C35      1.0000 0.93063  0.44207  0.39739  Biso   1.000  C
  C36      1.0000 0.92365  0.37098  0.49300  Biso   1.000  C
  C37      1.0000 0.80819  0.09502  0.15718  Biso   1.000  C
  C38      1.0000 0.87793  0.07851  0.35571  Biso   1.000  C
  H28      1.0000 0.88192  0.11802  0.27039  Biso   1.000  H
  O12      1.0000 0.86417  0.02100  0.44935  Biso   1.000  O
  H29      1.0000 0.93062  0.50233  0.37031  Biso   1.000  H
  C39      1.0000 0.93761  0.33339  0.37998  Biso   1.000  C
  O13      1.0000 0.91804  0.39532  0.54927  Biso   1.000  O
  C40      1.0000 0.93143  0.26263  0.47352  Biso   1.000  C
  H30      1.0000 0.82713  0.16811  0.17220  Biso   1.000  H
  H31      1.0000 0.84282  0.03967  0.16469  Biso   1.000  H
  H32      1.0000 0.78340  0.09910  0.11208  Biso   1.000  H
  C41      1.0000 0.94361  0.12310  0.39448  Biso   1.000  C
  C42      1.0000 0.82634  0.96499  0.48000  Biso   1.000  C
  O14      1.0000 0.94044  0.31480  0.31807  Biso   1.000  O
  C43      1.0000 0.93883  0.24204  0.41640  Biso   1.000  C
  C44      1.0000 0.93075  0.30930  0.59498  Biso   1.000  C
  H33      1.0000 0.93153  0.20170  0.50018  Biso   1.000  H
  H34      1.0000 0.96303  0.07451  0.43142  Biso   1.000  H
  H35      1.0000 0.97225  0.12202  0.36909  Biso   1.000  H
  H36      1.0000 0.78524  0.00450  0.47141  Biso   1.000  H
  H37      1.0000 0.84993  0.96366  0.52529  Biso   1.000  H
  H38      1.0000 0.81783  0.88848  0.46418  Biso   1.000  H
  S3       1.0000 0.00170  0.33672  0.30132  Biso   1.000  S
  H39      1.0000 0.92905  0.33997  0.63441  Biso   1.000  H
  H40      1.0000 0.89812  0.25054  0.58001  Biso   1.000  H
  H41      1.0000 0.97386  0.27796  0.60212  Biso   1.000  H
  C45      1.0000 0.96842  0.44241  0.24082  Biso   1.000  C
  O15      1.0000 0.05025  0.39023  0.35041  Biso   1.000  O
  O16      1.0000 0.01244  0.24337  0.26889  Biso   1.000  O
  F7       1.0000 0.94581  0.52767  0.26250  Biso   1.000  F
  F8       1.0000 0.91963  0.39782  0.19421  Biso   1.000  F
  F9       1.0000 0.01291  0.47275  0.21881  Biso   1.000  F
  C46      1.0000 0.49601  0.59135  0.59038  Biso   1.000  C
  O17      1.0000 0.48836  0.61869  0.64858  Biso   1.000  O
  H42      1.0000 0.45385  0.59385  0.55659  Biso   1.000  H
  H43      1.0000 0.51424  0.51617  0.59287  Biso   1.000  H
  H44      1.0000 0.52523  0.64519  0.58161  Biso   1.000  H
  C47      1.0000 0.45692  0.54109  0.67271  Biso   1.000  C
  C48      1.0000 0.42313  0.44974  0.63849  Biso   1.000  C
  C49      1.0000 0.46019  0.55743  0.73443  Biso   1.000  C
  C50      1.0000 0.39284  0.37373  0.66534  Biso   1.000  C
  H45      1.0000 0.42071  0.43957  0.59630  Biso   1.000  H
  C51      1.0000 0.43028  0.48058  0.76094  Biso   1.000  C
  C52      1.0000 0.49451  0.65761  0.77178  Biso   1.000  C
  C53      1.0000 0.35435  0.27730  0.62685  Biso   1.000  C
  C54      1.0000 0.39719  0.38998  0.72753  Biso   1.000  C
  H46      1.0000 0.43263  0.49058  0.80318  Biso   1.000  H
  C55      1.0000 0.44916  0.75404  0.76831  Biso   1.000  C
  H47      1.0000 0.51573  0.63561  0.81628  Biso   1.000  H
  H48      1.0000 0.52881  0.68228  0.75578  Biso   1.000  H
  C56      1.0000 0.28335  0.30622  0.59742  Biso   1.000  C
  H49      1.0000 0.37184  0.25813  0.59339  Biso   1.000  H
  H50      1.0000 0.35923  0.21120  0.65421  Biso   1.000  H
  O18      1.0000 0.36853  0.30930  0.75259  Biso   1.000  O
  C57      1.0000 0.41986  0.77263  0.81238  Biso   1.000  C
  C58      1.0000 0.43264  0.82655  0.71790  Biso   1.000  C
  C59      1.0000 0.25465  0.34472  0.53721  Biso   1.000  C
  C60      1.0000 0.24265  0.29863  0.63300  Biso   1.000  C
  C61      1.0000 0.38085  0.31480  0.81839  Biso   1.000  C
  O19      1.0000 0.42992  0.69020  0.86148  Biso   1.000  O
  C62      1.0000 0.37824  0.86023  0.80971  Biso   1.000  C
  H51      1.0000 0.45065  0.81589  0.68590  Biso   1.000  H
  C63      1.0000 0.39021  0.91490  0.71307  Biso   1.000  C
  O20      1.0000 0.29240  0.35473  0.49670  Biso   1.000  O
  C64      1.0000 0.19125  0.38231  0.51280  Biso   1.000  C
  H52      1.0000 0.25952  0.26988  0.67449  Biso   1.000  H
  C65      1.0000 0.17903  0.33164  0.60939  Biso   1.000  C
  H53      1.0000 0.36096  0.38223  0.82801  Biso   1.000  H
  H54      1.0000 0.42764  0.31689  0.84101  Biso   1.000  H
  H55      1.0000 0.36243  0.24904  0.83148  Biso   1.000  H
  S4       1.0000 0.47634  0.71420  0.92976  Biso   1.000  S
  C66      1.0000 0.36295  0.93416  0.75982  Biso   1.000  C
  H56      1.0000 0.36036  0.86973  0.84181  Biso   1.000  H
  O21      1.0000 0.37214  0.98850  0.66393  Biso   1.000  O
  S5       1.0000 0.30410  0.24846  0.46075  Biso   1.000  S
  C67      1.0000 0.15221  0.37715  0.54908  Biso   1.000  C
  H57      1.0000 0.17463  0.41140  0.47141  Biso   1.000  H
  O22      1.0000 0.13721  0.32464  0.64206  Biso   1.000  O
  O23      1.0000 0.47953  0.82414  0.94619  Biso   1.000  O
  O24      1.0000 0.53342  0.64927  0.94258  Biso   1.000  O
  C68      1.0000 0.43103  0.63961  0.96881  Biso   1.000  C
  C69      1.0000 0.31593  0.02900  0.75409  Biso   1.000  C
  C70      1.0000 0.39253  0.96458  0.61230  Biso   1.000  C
  C71      1.0000 0.23103  0.24337  0.39040  Biso   1.000  C
  O25      1.0000 0.30176  0.14802  0.49267  Biso   1.000  O
  O26      1.0000 0.35521  0.27671  0.44010  Biso   1.000  O
  C72      1.0000 0.08304  0.41849  0.52430  Biso   1.000  C
  C73      1.0000 0.16024  0.27238  0.70218  Biso   1.000  C
  F10      1.0000 0.41416  0.54642  0.95018  Biso   1.000  F
  F11      1.0000 0.37434  0.69962  0.95609  Biso   1.000  F
  F12      1.0000 0.46451  0.64144  0.02908  Biso   1.000  F
  C74      1.0000 0.24784  0.99383  0.71631  Biso   1.000  C
  H58      1.0000 0.31792  0.05276  0.79647  Biso   1.000  H
  H59      1.0000 0.32844  0.09343  0.73349  Biso   1.000  H
  H60      1.0000 0.37542  0.89190  0.59451  Biso   1.000  H
  H61      1.0000 0.43985  0.96324  0.62662  Biso   1.000  H
  H62      1.0000 0.37612  0.02242  0.58011  Biso   1.000  H
  F13      1.0000 0.23939  0.16244  0.35360  Biso   1.000  F
  F14      1.0000 0.22250  0.33922  0.36031  Biso   1.000  F
  F15      1.0000 0.17923  0.22079  0.40392  Biso   1.000  F
  H63      1.0000 0.05572  0.36848  0.53927  Biso   1.000  H
  H64      1.0000 0.06682  0.41524  0.47788  Biso   1.000  H
  C75      1.0000 0.07642  0.53784  0.54500  Biso   1.000  C
  H65      1.0000 0.17383  0.19603  0.69791  Biso   1.000  H
  H66      1.0000 0.12550  0.27071  0.71988  Biso   1.000  H
  H67      1.0000 0.19703  0.31447  0.73020  Biso   1.000  H
  C76      1.0000 0.20734  0.94641  0.74508  Biso   1.000  C
  C77      1.0000 0.22321  0.00558  0.65060  Biso   1.000  C
  C78      1.0000 0.06942  0.55793  0.60259  Biso   1.000  C
  C79      1.0000 0.07640  0.62902  0.50698  Biso   1.000  C
  C80      1.0000 0.14541  0.91240  0.70917  Biso   1.000  C
  O27      1.0000 0.23391  0.93699  0.80975  Biso   1.000  O
  C81      1.0000 0.16173  0.96999  0.61531  Biso   1.000  C
  H68      1.0000 0.24952  0.03884  0.63000  Biso   1.000  H
  H69      1.0000 0.06945  0.49775  0.62972  Biso   1.000  H
  C82      1.0000 0.06244  0.66661  0.62000  Biso   1.000  C
  O28      1.0000 0.08197  0.60468  0.45071  Biso   1.000  O
  C83      1.0000 0.06863  0.73737  0.52651  Biso   1.000  C
  C84      1.0000 0.12213  0.92149  0.64431  Biso   1.000  C
  H70      1.0000 0.11813  0.88198  0.72959  Biso   1.000  H
  C85      1.0000 0.19186  0.90498  0.84280  Biso   1.000  C
  O29      1.0000 0.13590  0.97900  0.55068  Biso   1.000  O
  O30      1.0000 0.05961  0.68520  0.68191  Biso   1.000  O
  C86      1.0000 0.06122  0.75804  0.58358  Biso   1.000  C
  C87      1.0000 0.06930  0.69070  0.40499  Biso   1.000  C
  H71      1.0000 0.06852  0.79830  0.49980  Biso   1.000  H
  C88      1.0000 0.05644  0.87690  0.60550  Biso   1.000  C
  H72      1.0000 0.17292  0.83189  0.82778  Biso   1.000  H
  H73      1.0000 0.15723  0.96033  0.83529  Biso   1.000  H
  H74      1.0000 0.21665  0.90090  0.88790  Biso   1.000  H
  C89      1.0000 0.17371  0.03501  0.51998  Biso   1.000  C
  S6       1.0000 0.99835  0.66336  0.69866  Biso   1.000  S
  H75      1.0000 0.07102  0.66003  0.36562  Biso   1.000  H
  H76      1.0000 0.10194  0.74954  0.42001  Biso   1.000  H
  H77      1.0000 0.02620  0.72204  0.39791  Biso   1.000  H
  H78      1.0000 0.03703  0.92549  0.56861  Biso   1.000  H
  H79      1.0000 0.02780  0.87798  0.63089  Biso   1.000  H
  H80      1.0000 0.21481  0.99550  0.52857  Biso   1.000  H
  H81      1.0000 0.15012  0.03634  0.47469  Biso   1.000  H
  H82      1.0000 0.18222  0.11152  0.53580  Biso   1.000  H
  C90      1.0000 0.03165  0.55759  0.75921  Biso   1.000  C
  O31      1.0000 0.94982  0.60985  0.64962  Biso   1.000  O
  O32      1.0000 0.98761  0.75663  0.73109  Biso   1.000  O
  F16      1.0000 0.05424  0.47233  0.73748  Biso   1.000  F
  F17      1.0000 0.08044  0.60218  0.80581  Biso   1.000  F
  F18      1.0000 0.98714  0.52734  0.78117  Biso   1.000  F
  O33      1.0000 0.52050  0.32414  0.55378  Biso   1.000  O
  S7       1.0000 0.52374  0.21412  0.57020  Biso   1.000  S
  O34      1.0000 0.46661  0.14927  0.55739  Biso   1.000  O
  O35      1.0000 0.57016  0.19020  0.63849  Biso   1.000  O
  C91      1.0000 0.56902  0.13961  0.53120  Biso   1.000  C
  C92      1.0000 0.58022  0.27263  0.68758  Biso   1.000  C
  F19      1.0000 0.58592  0.04642  0.54979  Biso   1.000  F
  F20      1.0000 0.62573  0.19962  0.54387  Biso   1.000  F
  F21      1.0000 0.53552  0.14144  0.47089  Biso   1.000  F
  C93      1.0000 0.62185  0.36023  0.69031  Biso   1.000  C
  C94      1.0000 0.55093  0.25404  0.73170  Biso   1.000  C
  C95      1.0000 0.63714  0.43407  0.74020  Biso   1.000  C
  H83      1.0000 0.63974  0.36973  0.65820  Biso   1.000  H
  C96      1.0000 0.56743  0.32647  0.78206  Biso   1.000  C
  C97      1.0000 0.50552  0.15761  0.72818  Biso   1.000  C
  C98      1.0000 0.60982  0.41490  0.78690  Biso   1.000  C
  C99      1.0000 0.68414  0.52900  0.74588  Biso   1.000  C
  H84      1.0000 0.54942  0.31589  0.81407  Biso   1.000  H
  H85      1.0000 0.48435  0.13561  0.68369  Biso   1.000  H
  H86      1.0000 0.47122  0.18228  0.74419  Biso   1.000  H
  C100     1.0000 0.53990  0.05743  0.76559  Biso   1.000  C
  O36      1.0000 0.62793  0.48850  0.83604  Biso   1.000  O
  C101     1.0000 0.75226  0.49383  0.78371  Biso   1.000  C
  H87      1.0000 0.68215  0.55268  0.70350  Biso   1.000  H
  H88      1.0000 0.67163  0.59343  0.76648  Biso   1.000  H
  C102     1.0000 0.54313  0.04109  0.82731  Biso   1.000  C
  C103     1.0000 0.56979  0.98058  0.73902  Biso   1.000  C
  C104     1.0000 0.60756  0.46458  0.88771  Biso   1.000  C
  C105     1.0000 0.79273  0.44641  0.75489  Biso   1.000  C
  C106     1.0000 0.77683  0.50558  0.84941  Biso   1.000  C
  O37      1.0000 0.51171  0.11869  0.85138  Biso   1.000  O
  C107     1.0000 0.57694  0.94966  0.86148  Biso   1.000  C
  H89      1.0000 0.56744  0.99058  0.69678  Biso   1.000  H
  C108     1.0000 0.60288  0.88998  0.77244  Biso   1.000  C
  H90      1.0000 0.62397  0.52242  0.91991  Biso   1.000  H
  H91      1.0000 0.62463  0.39190  0.90550  Biso   1.000  H
  H92      1.0000 0.56024  0.46324  0.87340  Biso   1.000  H
  O38      1.0000 0.76612  0.43699  0.69021  Biso   1.000  O
  C109     1.0000 0.85462  0.41240  0.79079  Biso   1.000  C
  H93      1.0000 0.75056  0.53884  0.86997  Biso   1.000  H
  C110     1.0000 0.83837  0.46999  0.88471  Biso   1.000  C
  C111     1.0000 0.50402  0.09127  0.90958  Biso   1.000  C
  C112     1.0000 0.60725  0.87373  0.83468  Biso   1.000  C
  H94      1.0000 0.57932  0.93957  0.90367  Biso   1.000  H
  O39      1.0000 0.63151  0.80930  0.74743  Biso   1.000  O
  C113     1.0000 0.80822  0.40498  0.65717  Biso   1.000  C
  C114     1.0000 0.87796  0.42149  0.85570  Biso   1.000  C
  H95      1.0000 0.88195  0.38198  0.77038  Biso   1.000  H
  O40      1.0000 0.86419  0.47900  0.94934  Biso   1.000  O
  H96      1.0000 0.54623  0.09377  0.94338  Biso   1.000  H
  H97      1.0000 0.48584  0.01617  0.90710  Biso   1.000  H
  H98      1.0000 0.47486  0.14519  0.91841  Biso   1.000  H
  C115     1.0000 0.64574  0.77730  0.87316  Biso   1.000  C
  C116     1.0000 0.61923  0.81480  0.68158  Biso   1.000  C
  H99      1.0000 0.82716  0.33189  0.67219  Biso   1.000  H
  H100     1.0000 0.84285  0.46033  0.66468  Biso   1.000  H
  H101     1.0000 0.78345  0.40090  0.61211  Biso   1.000  H
  C117     1.0000 0.94364  0.37690  0.89447  Biso   1.000  C
  C118     1.0000 0.82636  0.53501  0.97998  Biso   1.000  C
  H102     1.0000 0.62823  0.75813  0.90658  Biso   1.000  H
  H103     1.0000 0.64086  0.71120  0.84580  Biso   1.000  H
  C119     1.0000 0.71675  0.80622  0.90259  Biso   1.000  C
  H104     1.0000 0.63913  0.88223  0.67200  Biso   1.000  H
  H105     1.0000 0.57245  0.81689  0.65900  Biso   1.000  H
  H106     1.0000 0.63765  0.74896  0.66848  Biso   1.000  H
  C120     1.0000 0.93886  0.25804  0.91639  Biso   1.000  C
  H107     1.0000 0.96306  0.42549  0.93141  Biso   1.000  H
  H108     1.0000 0.97223  0.37798  0.86908  Biso   1.000  H
  H109     1.0000 0.78527  0.49550  0.97140  Biso   1.000  H
  H110     1.0000 0.81787  0.61152  0.96421  Biso   1.000  H
  H111     1.0000 0.84991  0.53634  0.02528  Biso   1.000  H
  C121     1.0000 0.75744  0.79863  0.86701  Biso   1.000  C
  C122     1.0000 0.74544  0.84472  0.96281  Biso   1.000  C
  C123     1.0000 0.93766  0.16661  0.88001  Biso   1.000  C
  C124     1.0000 0.93146  0.23737  0.97351  Biso   1.000  C
  H112     1.0000 0.74055  0.76988  0.82548  Biso   1.000  H
  C125     1.0000 0.82104  0.83164  0.89057  Biso   1.000  C
  C126     1.0000 0.80885  0.88231  0.98721  Biso   1.000  C
  O41      1.0000 0.70763  0.85473  0.00326  Biso   1.000  O
  O42      1.0000 0.94042  0.18520  0.81806  Biso   1.000  O
  C127     1.0000 0.93066  0.05793  0.89738  Biso   1.000  C
  C128     1.0000 0.92363  0.12902  0.99299  Biso   1.000  C
  H113     1.0000 0.93152  0.29830  0.00021  Biso   1.000  H
  O43      1.0000 0.86287  0.82464  0.85791  Biso   1.000  O
  C129     1.0000 0.84786  0.87706  0.95089  Biso   1.000  C
  H114     1.0000 0.82541  0.91140  0.02861  Biso   1.000  H
  S8       1.0000 0.69590  0.74846  0.03926  Biso   1.000  S
  S9       1.0000 0.00173  0.16336  0.80131  Biso   1.000  S
  C130     1.0000 0.92365  0.03784  0.95497  Biso   1.000  C
  H115     1.0000 0.93064  0.99767  0.87030  Biso   1.000  H
  O44      1.0000 0.91802  0.10468  0.04926  Biso   1.000  O
  C131     1.0000 0.83983  0.77238  0.79779  Biso   1.000  C
  C132     1.0000 0.91705  0.91849  0.97571  Biso   1.000  C
  O45      1.0000 0.69829  0.64802  0.00735  Biso   1.000  O
  O46      1.0000 0.64482  0.77671  0.05987  Biso   1.000  O
  C133     1.0000 0.76900  0.74337  0.10957  Biso   1.000  C
  C134     1.0000 0.96844  0.05759  0.74081  Biso   1.000  C
  O47      1.0000 0.05027  0.10977  0.85040  Biso   1.000  O
  O48      1.0000 0.01242  0.25663  0.76887  Biso   1.000  O
  C135     1.0000 0.93073  0.19070  0.09497  Biso   1.000  C
  H116     1.0000 0.82626  0.69603  0.80210  Biso   1.000  H
  H117     1.0000 0.87453  0.77071  0.78009  Biso   1.000  H
  H118     1.0000 0.80306  0.81447  0.76981  Biso   1.000  H
  H119     1.0000 0.94435  0.86848  0.96069  Biso   1.000  H
  H120     1.0000 0.93321  0.91524  0.02208  Biso   1.000  H
  F22      1.0000 0.76064  0.66236  0.14637  Biso   1.000  F
  F23      1.0000 0.77753  0.83922  0.13965  Biso   1.000  F
  F24      1.0000 0.82081  0.72079  0.09610  Biso   1.000  F
  F25      1.0000 0.91965  0.10218  0.69420  Biso   1.000  F
  F26      1.0000 0.94583  0.97233  0.76249  Biso   1.000  F
  F27      1.0000 0.01294  0.02734  0.71880  Biso   1.000  F
  H121     1.0000 0.92903  0.16003  0.13440  Biso   1.000  H
  H122     1.0000 0.89810  0.24954  0.08000  Biso   1.000  H
  H123     1.0000 0.97380  0.22204  0.10211  Biso   1.000  H
  O49      1.0000 0.47951  0.67595  0.44620  Biso   1.000  O
  S10      1.0000 0.47631  0.78588  0.42978  Biso   1.000  S
  O50      1.0000 0.42989  0.80980  0.36149  Biso   1.000  O
  O51      1.0000 0.53344  0.85073  0.44259  Biso   1.000  O
  C136     1.0000 0.43103  0.86039  0.46878  Biso   1.000  C
  C137     1.0000 0.41983  0.72737  0.31239  Biso   1.000  C
  F28      1.0000 0.41413  0.95358  0.45019  Biso   1.000  F
  F29      1.0000 0.37432  0.80038  0.45611  Biso   1.000  F
  F30      1.0000 0.46453  0.85864  0.52909  Biso   1.000  F
  C138     1.0000 0.37822  0.63977  0.30972  Biso   1.000  C
  C139     1.0000 0.44912  0.74604  0.26828  Biso   1.000  C
  C140     1.0000 0.36291  0.56593  0.25978  Biso   1.000  C
  H124     1.0000 0.36031  0.63027  0.34177  Biso   1.000  H
  C141     1.0000 0.43262  0.67353  0.21792  Biso   1.000  C
  C142     1.0000 0.49453  0.84239  0.27180  Biso   1.000  C
  C143     1.0000 0.31591  0.47100  0.25410  Biso   1.000  C
  C144     1.0000 0.39023  0.58510  0.21308  Biso   1.000  C
  H125     1.0000 0.45063  0.68411  0.18591  Biso   1.000  H
  H126     1.0000 0.51570  0.86439  0.31629  Biso   1.000  H
  H127     1.0000 0.52883  0.81772  0.25579  Biso   1.000  H
  C145     1.0000 0.46017  0.94266  0.23444  Biso   1.000  C
  C146     1.0000 0.24781  0.50617  0.21632  Biso   1.000  C
  H128     1.0000 0.31790  0.44732  0.29648  Biso   1.000  H
  H129     1.0000 0.32842  0.40657  0.23350  Biso   1.000  H
  O52      1.0000 0.37212  0.51150  0.16394  Biso   1.000  O
  C147     1.0000 0.45692  0.95891  0.17267  Biso   1.000  C
  C148     1.0000 0.43026  0.01942  0.26095  Biso   1.000  C
  C149     1.0000 0.20732  0.55359  0.24509  Biso   1.000  C
  C150     1.0000 0.22323  0.49442  0.15061  Biso   1.000  C
  C151     1.0000 0.39251  0.53542  0.11231  Biso   1.000  C
  O53      1.0000 0.48834  0.88131  0.14859  Biso   1.000  O
  C152     1.0000 0.42311  0.05034  0.13850  Biso   1.000  C
  H130     1.0000 0.43261  0.00942  0.30319  Biso   1.000  H
  C153     1.0000 0.39717  0.11002  0.22754  Biso   1.000  C
  O54      1.0000 0.23393  0.56301  0.30977  Biso   1.000  O
  C154     1.0000 0.14538  0.58760  0.20919  Biso   1.000  C
  H131     1.0000 0.24949  0.46124  0.13001  Biso   1.000  H
  C155     1.0000 0.16170  0.53001  0.11532  Biso   1.000  C
  H132     1.0000 0.37610  0.47758  0.08012  Biso   1.000  H
  H133     1.0000 0.37538  0.60810  0.09448  Biso   1.000  H
  H134     1.0000 0.43981  0.53684  0.12658  Biso   1.000  H
  C156     1.0000 0.49599  0.90873  0.09040  Biso   1.000  C
  C157     1.0000 0.39282  0.12635  0.16535  Biso   1.000  C
  H135     1.0000 0.42073  0.06043  0.09631  Biso   1.000  H
  O55      1.0000 0.36855  0.19070  0.25260  Biso   1.000  O
  C158     1.0000 0.19183  0.59502  0.34281  Biso   1.000  C
  C159     1.0000 0.12209  0.57851  0.14428  Biso   1.000  C
  H136     1.0000 0.11810  0.61802  0.22960  Biso   1.000  H
  O56      1.0000 0.13586  0.52100  0.05064  Biso   1.000  O
  H137     1.0000 0.45382  0.90623  0.05660  Biso   1.000  H
  H138     1.0000 0.51421  0.98383  0.09288  Biso   1.000  H
  H139     1.0000 0.52520  0.85481  0.08162  Biso   1.000  H
  C160     1.0000 0.35433  0.22270  0.12686  Biso   1.000  C
  C161     1.0000 0.38082  0.18520  0.31840  Biso   1.000  C
  H140     1.0000 0.17289  0.66811  0.32779  Biso   1.000  H
  H141     1.0000 0.15720  0.53967  0.33530  Biso   1.000  H
  H142     1.0000 0.21662  0.59910  0.38791  Biso   1.000  H
  C162     1.0000 0.05641  0.62310  0.10551  Biso   1.000  C
  C163     1.0000 0.17369  0.46499  0.01999  Biso   1.000  C
  H143     1.0000 0.37182  0.24196  0.09340  Biso   1.000  H
  H144     1.0000 0.35919  0.28880  0.15418  Biso   1.000  H
  C164     1.0000 0.28330  0.19378  0.09739  Biso   1.000  C
  H145     1.0000 0.36092  0.11785  0.32798  Biso   1.000  H
  H146     1.0000 0.42760  0.18311  0.34098  Biso   1.000  H
  H147     1.0000 0.36240  0.25104  0.33150  Biso   1.000  H
  C165     1.0000 0.06119  0.74204  0.08359  Biso   1.000  C
  H148     1.0000 0.03701  0.57451  0.06862  Biso   1.000  H
  H149     1.0000 0.02782  0.62202  0.13090  Biso   1.000  H
  H150     1.0000 0.21478  0.50450  0.02858  Biso   1.000  H
  H151     1.0000 0.18220  0.38848  0.03581  Biso   1.000  H
  H152     1.0000 0.15014  0.46374  0.97470  Biso   1.000  H
  C166     1.0000 0.24263  0.20145  0.13301  Biso   1.000  C
  C167     1.0000 0.25463  0.15536  0.03722  Biso   1.000  C
  C168     1.0000 0.06241  0.83339  0.12001  Biso   1.000  C
  C169     1.0000 0.06861  0.76263  0.02652  Biso   1.000  C
  C170     1.0000 0.17901  0.16844  0.10940  Biso   1.000  C
  H153     1.0000 0.25950  0.23012  0.17450  Biso   1.000  H
  C171     1.0000 0.19122  0.11769  0.01281  Biso   1.000  C
  O57      1.0000 0.29242  0.14536  0.99671  Biso   1.000  O
  O58      1.0000 0.05963  0.81480  0.18192  Biso   1.000  O
  C172     1.0000 0.06939  0.94216  0.10260  Biso   1.000  C
  C173     1.0000 0.07642  0.87098  0.00699  Biso   1.000  C
  H154     1.0000 0.06854  0.70170  0.99981  Biso   1.000  H
  C174     1.0000 0.15219  0.12294  0.04909  Biso   1.000  C
  O59      1.0000 0.13718  0.17545  0.14207  Biso   1.000  O
  H155     1.0000 0.17465  0.08860  0.97142  Biso   1.000  H
  S11      1.0000 0.30417  0.25154  0.96076  Biso   1.000  S
  S12      1.0000 0.99832  0.83672  0.19867  Biso   1.000  S
  C175     1.0000 0.07640  0.96224  0.04501  Biso   1.000  C
  H156     1.0000 0.06941  0.00233  0.12968  Biso   1.000  H
  O60      1.0000 0.08203  0.89532  0.95072  Biso   1.000  O
  C176     1.0000 0.08302  0.08151  0.02431  Biso   1.000  C
  C177     1.0000 0.16022  0.22762  0.20219  Biso   1.000  C
  O61      1.0000 0.30178  0.35206  0.99268  Biso   1.000  O
  O62      1.0000 0.35523  0.22329  0.94011  Biso   1.000  O
  C178     1.0000 0.23105  0.25663  0.89041  Biso   1.000  C
  C179     1.0000 0.03163  0.94241  0.25922  Biso   1.000  C
  O63      1.0000 0.94978  0.89023  0.14958  Biso   1.000  O
  O64      1.0000 0.98763  0.74337  0.23110  Biso   1.000  O
  C180     1.0000 0.06932  0.80930  0.90501  Biso   1.000  C
  H157     1.0000 0.06684  0.08485  0.97789  Biso   1.000  H
  H158     1.0000 0.05570  0.13152  0.03928  Biso   1.000  H
  H159     1.0000 0.17380  0.30405  0.19792  Biso   1.000  H
  H160     1.0000 0.12552  0.22929  0.21989  Biso   1.000  H
  H161     1.0000 0.19701  0.18553  0.23021  Biso   1.000  H
  F31      1.0000 0.23941  0.33764  0.85361  Biso   1.000  F
  F32      1.0000 0.22252  0.16086  0.86032  Biso   1.000  F
  F33      1.0000 0.17925  0.27921  0.90393  Biso   1.000  F
  F34      1.0000 0.08040  0.89782  0.30578  Biso   1.000  F
  F35      1.0000 0.98711  0.97275  0.28118  Biso   1.000  F
  F36      1.0000 0.05422  0.02775  0.23749  Biso   1.000  F
  H162     1.0000 0.07102  0.83997  0.86558  Biso   1.000  H
  H163     1.0000 0.10195  0.75054  0.91998  Biso   1.000  H
  H164     1.0000 0.02627  0.77805  0.89792  Biso   1.000  H
  Ne1      1.0000 0.25503  0.89892  0.17183  Biso   1.000  Ne
  He1      1.0000 0.24591  0.99101  0.35754  Biso   1.000  He
  He2      1.0000 0.26827  0.82018  0.07934  Biso   1.000  He
  Ar1      1.0000 0.26142  0.84916  0.16875  Biso   1.000  Ar
  Ne2      1.0000 0.25504  0.60111  0.67182  Biso   1.000  Ne
  He3      1.0000 0.25042  0.56597  0.82459  Biso   1.000  He
  He4      1.0000 0.26781  0.68069  0.57615  Biso   1.000  He
  Ar2      1.0000 0.26144  0.65089  0.66881  Biso   1.000  Ar
  Ne3      1.0000 0.74501  0.39891  0.32817  Biso   1.000  Ne
  He5      1.0000 0.73510  0.31377  0.44474  Biso   1.000  He
  He6      1.0000 0.75476  0.49677  0.13990  Biso   1.000  He
  Ar3      1.0000 0.73867  0.34882  0.33066  Biso   1.000  Ar
  Ne4      1.0000 0.74502  0.10110  0.82816  Biso   1.000  Ne
  He7      1.0000 0.73805  0.19274  0.96806  Biso   1.000  He
  He8      1.0000 0.75481  0.00302  0.63979  Biso   1.000  He
  Ar4      1.0000 0.73874  0.15132  0.83067  Biso   1.000  Ar
