data_image0
_cell_length_a       21.261
_cell_length_b       10.306
_cell_length_c       15.123
_cell_angle_alpha    90
_cell_angle_beta     112.3
_cell_angle_gamma    90

_symmetry_space_group_name_H-M    "P 1"
_symmetry_int_tables_number       1

loop_
  _symmetry_equiv_pos_as_xyz
  'x, y, z'

loop_
  _atom_site_label
  _atom_site_occupancy
  _atom_site_fract_x
  _atom_site_fract_y
  _atom_site_fract_z
  _atom_site_thermal_displace_type
  _atom_site_B_iso_or_equiv
  _atom_site_type_symbol
  C1       1.0000 0.60169  0.27586  0.38208  Biso   1.000  C
  C2       1.0000 0.56932  0.29332  0.27380  Biso   1.000  C
  C3       1.0000 0.67972  0.28702  0.41953  Biso   1.000  C
  O1       1.0000 0.58558  0.15535  0.41038  Biso   1.000  O
  H1       1.0000 0.58378  0.35212  0.41803  Biso   1.000  H
  O2       1.0000 0.49791  0.29352  0.24521  Biso   1.000  O
  C4       1.0000 0.59660  0.41558  0.24421  Biso   1.000  C
  H2       1.0000 0.58332  0.21395  0.23942  Biso   1.000  H
  O3       1.0000 0.69819  0.40161  0.38586  Biso   1.000  O
  H3       1.0000 0.69960  0.29478  0.49807  Biso   1.000  H
  O4       1.0000 0.70581  0.17766  0.38951  Biso   1.000  O
  C5       1.0000 0.67380  0.41073  0.28331  Biso   1.000  C
  O5       1.0000 0.56908  0.41597  0.14187  Biso   1.000  O
  H4       1.0000 0.57980  0.50213  0.27151  Biso   1.000  H
  C6       1.0000 0.75431  0.10149  0.46098  Biso   1.000  C
  C7       1.0000 0.70800  0.52465  0.25822  Biso   1.000  C
  H5       1.0000 0.68893  0.32525  0.25343  Biso   1.000  H
  C8       1.0000 0.54111  0.53144  0.09298  Biso   1.000  C
  C9       1.0000 0.82669  0.13361  0.47020  Biso   1.000  C
  H6       1.0000 0.75031  0.11518  0.53052  Biso   1.000  H
  C10      1.0000 0.73702  0.96216  0.43003  Biso   1.000  C
  O6       1.0000 0.78279  0.50485  0.28159  Biso   1.000  O
  H7       1.0000 0.68852  0.53881  0.18639  Biso   1.000  H
  H8       1.0000 0.70348  0.60062  0.31032  Biso   1.000  H
  C11      1.0000 0.47058  0.50281  0.01901  Biso   1.000  C
  O7       1.0000 0.58181  0.58607  0.04788  Biso   1.000  O
  H9       1.0000 0.53920  0.60479  0.14551  Biso   1.000  H
  C12      1.0000 0.84961  0.26557  0.51608  Biso   1.000  C
  O8       1.0000 0.87379  0.04095  0.53109  Biso   1.000  O
  H10      1.0000 0.82759  0.13342  0.39687  Biso   1.000  H
  C13      1.0000 0.79051  0.87270  0.49822  Biso   1.000  C
  O9       1.0000 0.67200  0.93101  0.43239  Biso   1.000  O
  H11      1.0000 0.73572  0.94780  0.35692  Biso   1.000  H
  O10      1.0000 0.43050  0.44236  0.06497  Biso   1.000  O
  C14      1.0000 0.47651  0.41422  0.94182  Biso   1.000  C
  H12      1.0000 0.44779  0.59422  0.98649  Biso   1.000  H
  C15      1.0000 0.59338  0.50213  0.98027  Biso   1.000  C
  O11      1.0000 0.84398  0.26596  0.60571  Biso   1.000  O
  H13      1.0000 0.81959  0.33951  0.47177  Biso   1.000  H
  H14      1.0000 0.90238  0.27925  0.52409  Biso   1.000  H
  C16      1.0000 0.86089  0.91287  0.50143  Biso   1.000  C
  O12      1.0000 0.77772  0.74054  0.46998  Biso   1.000  O
  H15      1.0000 0.79011  0.88366  0.56890  Biso   1.000  H
  C17      1.0000 0.52480  0.47099  0.90030  Biso   1.000  C
  O13      1.0000 0.41181  0.40248  0.86607  Biso   1.000  O
  H16      1.0000 0.49460  0.32127  0.97241  Biso   1.000  H
  H17      1.0000 0.61561  0.41025  0.01387  Biso   1.000  H
  C18      1.0000 0.64229  0.57035  0.94647  Biso   1.000  C
  H18      1.0000 0.90100  0.85581  0.55453  Biso   1.000  H
  O14      1.0000 0.86089  0.89589  0.40959  Biso   1.000  O
  O15      1.0000 0.53351  0.37949  0.83583  Biso   1.000  O
  H19      1.0000 0.50510  0.56317  0.86163  Biso   1.000  H
  O16      1.0000 0.70508  0.58704  0.01651  Biso   1.000  O
  H20      1.0000 0.64861  0.66951  0.97163  Biso   1.000  H
  H21      1.0000 0.65000  0.51785  0.88858  Biso   1.000  H
  C19      1.0000 0.91872  0.83514  0.40009  Biso   1.000  C
  C20      1.0000 0.51462  0.41199  0.73921  Biso   1.000  C
  C21      1.0000 0.89478  0.70658  0.34920  Biso   1.000  C
  C22      1.0000 0.94657  0.92432  0.34348  Biso   1.000  C
  H22      1.0000 0.95800  0.81613  0.47191  Biso   1.000  H
  C23      1.0000 0.47507  0.29779  0.67789  Biso   1.000  C
  O17      1.0000 0.57108  0.44333  0.71798  Biso   1.000  O
  H23      1.0000 0.48449  0.49903  0.72463  Biso   1.000  H
  C24      1.0000 0.94967  0.64778  0.32169  Biso   1.000  C
  O18      1.0000 0.87721  0.62158  0.40888  Biso   1.000  O
  H24      1.0000 0.84968  0.72531  0.28231  Biso   1.000  H
  C25      1.0000 0.98239  0.04017  0.40073  Biso   1.000  C
  O19      1.0000 0.99491  0.85833  0.31590  Biso   1.000  O
  H25      1.0000 0.90463  0.95507  0.27923  Biso   1.000  H
  C26      1.0000 0.52148  0.18261  0.69440  Biso   1.000  C
  O20      1.0000 0.41749  0.26654  0.69840  Biso   1.000  O
  C27      1.0000 0.61971  0.34019  0.73313  Biso   1.000  C
  C28      1.0000 0.97139  0.74471  0.26308  Biso   1.000  C
  O21      1.0000 0.92572  0.53221  0.26901  Biso   1.000  O
  H26      1.0000 0.99399  0.62371  0.38672  Biso   1.000  H
  H27      1.0000 0.95040  0.08636  0.43261  Biso   1.000  H
  O22      1.0000 0.00708  0.13138  0.34548  Biso   1.000  O
  H28      1.0000 0.02779  0.00825  0.45934  Biso   1.000  H
  C29      1.0000 0.58570  0.21948  0.67789  Biso   1.000  C
  O23      1.0000 0.48858  0.07743  0.63279  Biso   1.000  O
  H29      1.0000 0.53622  0.14749  0.76779  Biso   1.000  H
  C30      1.0000 0.67411  0.39249  0.70190  Biso   1.000  C
  H30      1.0000 0.64111  0.31700  0.80860  Biso   1.000  H
  O24      1.0000 0.91418  0.77246  0.17782  Biso   1.000  O
  H31      1.0000 0.01422  0.70677  0.24543  Biso   1.000  H
  O25      1.0000 0.63078  0.11178  0.70969  Biso   1.000  O
  H32      1.0000 0.57331  0.23617  0.60113  Biso   1.000  H
  O26      1.0000 0.64520  0.42732  0.60277  Biso   1.000  O
  H33      1.0000 0.71348  0.32127  0.71669  Biso   1.000  H
  H34      1.0000 0.69759  0.47729  0.74600  Biso   1.000  H
  C31      1.0000 0.91857  0.74733  0.08848  Biso   1.000  C
  C32      1.0000 0.66072  0.06161  0.64880  Biso   1.000  C
  C33      1.0000 0.85529  0.67048  0.02880  Biso   1.000  C
  C34      1.0000 0.92042  0.87299  0.03731  Biso   1.000  C
  H35      1.0000 0.96368  0.69008  0.09791  Biso   1.000  H
  C35      1.0000 0.65200  0.91568  0.64472  Biso   1.000  C
  O27      1.0000 0.73100  0.09528  0.68089  Biso   1.000  O
  H36      1.0000 0.63632  0.10343  0.57511  Biso   1.000  H
  C36      1.0000 0.85539  0.64836  0.92932  Biso   1.000  C
  O28      1.0000 0.85331  0.54958  0.07133  Biso   1.000  O
  H37      1.0000 0.81081  0.72773  0.02208  Biso   1.000  H
  O29      1.0000 0.92011  0.84397  0.94361  Biso   1.000  O
  C37      1.0000 0.98260  0.95478  0.08941  Biso   1.000  C
  H38      1.0000 0.87560  0.92917  0.03123  Biso   1.000  H
  C38      1.0000 0.69361  0.85581  0.74121  Biso   1.000  C
  O30      1.0000 0.58153  0.88638  0.61242  Biso   1.000  O
  H39      1.0000 0.67080  0.87842  0.59169  Biso   1.000  H
  C39      1.0000 0.77040  0.04803  0.77337  Biso   1.000  C
  C40      1.0000 0.86182  0.77693  0.88379  Biso   1.000  C
  O31      1.0000 0.79700  0.58228  0.86842  Biso   1.000  O
  H40      1.0000 0.89901  0.58694  0.93618  Biso   1.000  H
  H41      1.0000 0.98127  0.03872  0.04388  Biso   1.000  H
  H42      1.0000 0.97950  0.98962  0.15373  Biso   1.000  H
  O32      1.0000 0.04309  0.88415  0.11521  Biso   1.000  O
  C41      1.0000 0.76701  0.89977  0.77351  Biso   1.000  C
  O33      1.0000 0.68932  0.71997  0.73313  Biso   1.000  O
  H43      1.0000 0.67441  0.88657  0.79517  Biso   1.000  H
  C42      1.0000 0.84171  0.10130  0.79831  Biso   1.000  C
  H44      1.0000 0.75107  0.08442  0.82619  Biso   1.000  H
  O34      1.0000 0.80321  0.85057  0.86757  Biso   1.000  O
  H45      1.0000 0.86942  0.75752  0.81732  Biso   1.000  H
  H46      1.0000 0.78930  0.86241  0.72263  Biso   1.000  H
  O35      1.0000 0.87200  0.05744  0.73592  Biso   1.000  O
  H47      1.0000 0.84038  0.20590  0.79931  Biso   1.000  H
  H48      1.0000 0.87358  0.06909  0.87178  Biso   1.000  H
  O36      1.0000 0.41440  0.65535  0.58962  Biso   1.000  O
  C43      1.0000 0.39829  0.77586  0.61793  Biso   1.000  C
  C44      1.0000 0.32031  0.78702  0.58048  Biso   1.000  C
  C45      1.0000 0.43071  0.79332  0.72620  Biso   1.000  C
  H49      1.0000 0.41619  0.85212  0.58198  Biso   1.000  H
  O37      1.0000 0.29422  0.67766  0.61049  Biso   1.000  O
  O38      1.0000 0.30181  0.90161  0.61407  Biso   1.000  O
  H50      1.0000 0.30043  0.79478  0.50193  Biso   1.000  H
  C46      1.0000 0.40342  0.91558  0.75579  Biso   1.000  C
  O39      1.0000 0.50211  0.79352  0.75479  Biso   1.000  O
  H51      1.0000 0.41671  0.71395  0.76058  Biso   1.000  H
  C47      1.0000 0.24572  0.60149  0.53902  Biso   1.000  C
  C48      1.0000 0.32622  0.91073  0.71670  Biso   1.000  C
  O40      1.0000 0.43088  0.91597  0.85807  Biso   1.000  O
  H52      1.0000 0.42018  0.00213  0.72849  Biso   1.000  H
  C49      1.0000 0.26301  0.46216  0.56997  Biso   1.000  C
  C50      1.0000 0.17329  0.63361  0.52980  Biso   1.000  C
  H53      1.0000 0.24971  0.61518  0.46948  Biso   1.000  H
  H54      1.0000 0.31110  0.82525  0.74657  Biso   1.000  H
  C51      1.0000 0.29198  0.02465  0.74178  Biso   1.000  C
  C52      1.0000 0.45891  0.03144  0.90702  Biso   1.000  C
  C53      1.0000 0.20952  0.37270  0.50179  Biso   1.000  C
  O41      1.0000 0.32798  0.43101  0.56761  Biso   1.000  O
  H55      1.0000 0.26430  0.44780  0.64308  Biso   1.000  H
  O42      1.0000 0.12619  0.54095  0.46891  Biso   1.000  O
  C54      1.0000 0.15042  0.76557  0.48392  Biso   1.000  C
  H56      1.0000 0.17239  0.63342  0.60313  Biso   1.000  H
  O43      1.0000 0.21719  0.00485  0.71841  Biso   1.000  O
  H57      1.0000 0.31151  0.03881  0.81361  Biso   1.000  H
  H58      1.0000 0.29649  0.10062  0.68968  Biso   1.000  H
  C55      1.0000 0.52939  0.00281  0.98099  Biso   1.000  C
  O44      1.0000 0.41822  0.08607  0.95212  Biso   1.000  O
  H59      1.0000 0.46082  0.10479  0.85449  Biso   1.000  H
  C56      1.0000 0.13908  0.41287  0.49857  Biso   1.000  C
  O45      1.0000 0.22231  0.24054  0.53002  Biso   1.000  O
  H60      1.0000 0.20991  0.38366  0.43111  Biso   1.000  H
  O46      1.0000 0.15600  0.76596  0.39430  Biso   1.000  O
  H61      1.0000 0.18039  0.83951  0.52823  Biso   1.000  H
  H62      1.0000 0.09760  0.77925  0.47592  Biso   1.000  H
  O47      1.0000 0.56951  0.94236  0.93497  Biso   1.000  O
  C57      1.0000 0.52351  0.91422  0.05818  Biso   1.000  C
  H63      1.0000 0.55219  0.09422  0.01351  Biso   1.000  H
  C58      1.0000 0.40660  0.00213  0.01973  Biso   1.000  C
  H64      1.0000 0.09898  0.35581  0.44547  Biso   1.000  H
  O48      1.0000 0.13908  0.39589  0.59041  Biso   1.000  O
  C59      1.0000 0.47522  0.97099  0.09970  Biso   1.000  C
  O49      1.0000 0.58820  0.90248  0.13387  Biso   1.000  O
  H65      1.0000 0.50538  0.82127  0.02759  Biso   1.000  H
  H66      1.0000 0.38439  0.91025  0.98607  Biso   1.000  H
  C60      1.0000 0.35773  0.07035  0.05353  Biso   1.000  C
  C61      1.0000 0.08131  0.33514  0.59992  Biso   1.000  C
  O50      1.0000 0.46647  0.87949  0.16417  Biso   1.000  O
  H67      1.0000 0.49488  0.06317  0.13837  Biso   1.000  H
  O51      1.0000 0.29490  0.08704  0.98349  Biso   1.000  O
  H68      1.0000 0.35141  0.16951  0.02838  Biso   1.000  H
  H69      1.0000 0.35003  0.01785  0.11143  Biso   1.000  H
  C62      1.0000 0.10520  0.20658  0.65080  Biso   1.000  C
  C63      1.0000 0.05341  0.42432  0.65652  Biso   1.000  C
  H70      1.0000 0.04198  0.31613  0.52809  Biso   1.000  H
  C64      1.0000 0.48540  0.91199  0.26080  Biso   1.000  C
  C65      1.0000 0.05031  0.14778  0.67832  Biso   1.000  C
  O52      1.0000 0.12282  0.12158  0.59113  Biso   1.000  O
  H71      1.0000 0.15030  0.22531  0.71770  Biso   1.000  H
  C66      1.0000 0.01759  0.54017  0.59927  Biso   1.000  C
  O53      1.0000 0.00512  0.35833  0.68411  Biso   1.000  O
  H72      1.0000 0.09539  0.45507  0.72077  Biso   1.000  H
  C67      1.0000 0.52490  0.79779  0.32212  Biso   1.000  C
  O54      1.0000 0.42890  0.94333  0.28202  Biso   1.000  O
  H73      1.0000 0.51549  0.99903  0.27538  Biso   1.000  H
  C68      1.0000 0.02859  0.24471  0.73692  Biso   1.000  C
  O55      1.0000 0.07431  0.03221  0.73099  Biso   1.000  O
  H74      1.0000 0.00599  0.12371  0.61328  Biso   1.000  H
  H75      1.0000 0.04962  0.58636  0.56740  Biso   1.000  H
  O56      1.0000 0.99290  0.63138  0.65452  Biso   1.000  O
  H76      1.0000 0.97219  0.50825  0.54067  Biso   1.000  H
  C69      1.0000 0.47849  0.68261  0.30561  Biso   1.000  C
  O57      1.0000 0.58249  0.76654  0.30161  Biso   1.000  O
  C70      1.0000 0.38027  0.84019  0.26687  Biso   1.000  C
  O58      1.0000 0.08580  0.27246  0.82219  Biso   1.000  O
  H77      1.0000 0.98580  0.20677  0.75458  Biso   1.000  H
  C71      1.0000 0.41433  0.71948  0.32212  Biso   1.000  C
  O59      1.0000 0.51140  0.57743  0.36722  Biso   1.000  O
  H78      1.0000 0.46381  0.64749  0.23221  Biso   1.000  H
  C72      1.0000 0.32591  0.89249  0.29810  Biso   1.000  C
  H79      1.0000 0.35891  0.81700  0.19140  Biso   1.000  H
  C73      1.0000 0.08141  0.24733  0.91152  Biso   1.000  C
  O60      1.0000 0.36920  0.61178  0.29031  Biso   1.000  O
  H80      1.0000 0.42667  0.73617  0.39888  Biso   1.000  H
  O61      1.0000 0.35483  0.92732  0.39723  Biso   1.000  O
  H81      1.0000 0.28650  0.82127  0.28331  Biso   1.000  H
  H82      1.0000 0.30239  0.97729  0.25401  Biso   1.000  H
  C74      1.0000 0.14469  0.17048  0.97120  Biso   1.000  C
  C75      1.0000 0.07960  0.37299  0.96270  Biso   1.000  C
  H83      1.0000 0.03629  0.19008  0.90209  Biso   1.000  H
  C76      1.0000 0.33930  0.56161  0.35121  Biso   1.000  C
  O62      1.0000 0.14671  0.04958  0.92868  Biso   1.000  O
  H84      1.0000 0.18921  0.22773  0.97792  Biso   1.000  H
  C77      1.0000 0.14459  0.14836  0.07069  Biso   1.000  C
  C78      1.0000 0.01738  0.45478  0.91060  Biso   1.000  C
  H85      1.0000 0.12437  0.42917  0.96877  Biso   1.000  H
  O63      1.0000 0.07992  0.34397  0.05639  Biso   1.000  O
  C79      1.0000 0.34797  0.41568  0.35528  Biso   1.000  C
  O64      1.0000 0.26903  0.59528  0.31912  Biso   1.000  O
  H86      1.0000 0.36371  0.60343  0.42489  Biso   1.000  H
  C80      1.0000 0.13821  0.27693  0.11621  Biso   1.000  C
  O65      1.0000 0.20298  0.08228  0.13158  Biso   1.000  O
  H87      1.0000 0.10102  0.08694  0.06383  Biso   1.000  H
  H88      1.0000 0.01871  0.53872  0.95612  Biso   1.000  H
  H89      1.0000 0.02048  0.48962  0.84627  Biso   1.000  H
  O66      1.0000 0.95689  0.38415  0.88479  Biso   1.000  O
  C81      1.0000 0.30641  0.35581  0.25880  Biso   1.000  C
  O67      1.0000 0.41850  0.38638  0.38758  Biso   1.000  O
  H90      1.0000 0.32922  0.37842  0.40831  Biso   1.000  H
  C82      1.0000 0.22963  0.54803  0.22663  Biso   1.000  C
  H91      1.0000 0.13061  0.25752  0.18268  Biso   1.000  H
  O68      1.0000 0.19680  0.35057  0.13237  Biso   1.000  O
  C83      1.0000 0.23302  0.39977  0.22649  Biso   1.000  C
  O69      1.0000 0.31071  0.21997  0.26687  Biso   1.000  O
  H92      1.0000 0.32560  0.38657  0.20476  Biso   1.000  H
  C84      1.0000 0.15831  0.60130  0.20169  Biso   1.000  C
  H93      1.0000 0.24891  0.58442  0.17382  Biso   1.000  H
  H94      1.0000 0.21068  0.36241  0.27738  Biso   1.000  H
  O70      1.0000 0.12798  0.55744  0.26408  Biso   1.000  O
  H95      1.0000 0.15960  0.70590  0.20069  Biso   1.000  H
  H96      1.0000 0.12640  0.56909  0.12822  Biso   1.000  H
  Ne1      1.0000 0.27196  0.59952  0.92158  Biso   1.000  Ne
  He1      1.0000 0.32416  0.51727  0.93916  Biso   1.000  He
  He2      1.0000 0.22640  0.69650  0.91041  Biso   1.000  He
  Ar1      1.0000 0.30551  0.53282  0.93692  Biso   1.000  Ar
  Ne2      1.0000 0.72804  0.09952  0.07842  Biso   1.000  Ne
  He3      1.0000 0.78245  0.20865  0.08938  Biso   1.000  He
  He4      1.0000 0.72676  0.09899  0.07437  Biso   1.000  He
  Ar2      1.0000 0.72829  0.09802  0.07725  Biso   1.000  Ar
