data_image0
_cell_length_a       21.617
_cell_length_b       10.026
_cell_length_c       14.891
_cell_angle_alpha    90
_cell_angle_beta     112.52
_cell_angle_gamma    90

_symmetry_space_group_name_H-M    "P 1"
_symmetry_int_tables_number       1

loop_
  _symmetry_equiv_pos_as_xyz
  'x, y, z'

loop_
  _atom_site_label
  _atom_site_occupancy
  _atom_site_fract_x
  _atom_site_fract_y
  _atom_site_fract_z
  _atom_site_thermal_displace_type
  _atom_site_B_iso_or_equiv
  _atom_site_type_symbol
  O1       1.0000 0.59630  0.15250  0.40856  Biso   1.000  O
  C1       1.0000 0.61361  0.27768  0.37948  Biso   1.000  C
  C2       1.0000 0.57738  0.29932  0.27007  Biso   1.000  C
  C3       1.0000 0.69027  0.28027  0.41198  Biso   1.000  C
  H1       1.0000 0.60160  0.35777  0.41867  Biso   1.000  H
  O2       1.0000 0.50762  0.31598  0.24550  Biso   1.000  O
  H2       1.0000 0.58321  0.20985  0.23183  Biso   1.000  H
  C4       1.0000 0.60713  0.41722  0.23482  Biso   1.000  C
  H3       1.0000 0.71453  0.29025  0.49093  Biso   1.000  H
  O3       1.0000 0.71029  0.39198  0.37301  Biso   1.000  O
  O4       1.0000 0.71149  0.16098  0.38159  Biso   1.000  O
  H4       1.0000 0.59791  0.51257  0.26600  Biso   1.000  H
  O5       1.0000 0.57488  0.41741  0.13100  Biso   1.000  O
  C5       1.0000 0.68271  0.39487  0.26811  Biso   1.000  C
  C6       1.0000 0.75721  0.07820  0.45422  Biso   1.000  C
  C7       1.0000 0.54710  0.53790  0.08498  Biso   1.000  C
  H5       1.0000 0.69129  0.29892  0.23838  Biso   1.000  H
  C8       1.0000 0.71963  0.50199  0.23743  Biso   1.000  C
  H6       1.0000 0.75239  0.09475  0.52503  Biso   1.000  H
  C9       1.0000 0.82977  0.10563  0.46607  Biso   1.000  C
  C10      1.0000 0.73709  0.93587  0.42179  Biso   1.000  C
  H7       1.0000 0.54688  0.61380  0.14060  Biso   1.000  H
  C11      1.0000 0.47598  0.50928  0.01338  Biso   1.000  C
  O6       1.0000 0.58469  0.59515  0.03599  Biso   1.000  O
  H8       1.0000 0.77292  0.47995  0.26760  Biso   1.000  H
  H9       1.0000 0.70169  0.49900  0.15717  Biso   1.000  H
  O7       1.0000 0.70731  0.63285  0.26142  Biso   1.000  O
  H10      1.0000 0.83302  0.09924  0.39301  Biso   1.000  H
  O8       1.0000 0.87333  0.00818  0.53033  Biso   1.000  O
  C12      1.0000 0.85503  0.24008  0.50903  Biso   1.000  C
  C13      1.0000 0.78731  0.83932  0.49013  Biso   1.000  C
  H11      1.0000 0.73711  0.92280  0.34859  Biso   1.000  H
  O9       1.0000 0.67282  0.90914  0.42121  Biso   1.000  O
  O10      1.0000 0.43541  0.45980  0.06143  Biso   1.000  O
  H12      1.0000 0.45279  0.60393  0.97914  Biso   1.000  H
  C14      1.0000 0.47901  0.41382  0.93457  Biso   1.000  C
  C15      1.0000 0.59242  0.51007  0.96271  Biso   1.000  C
  C16      1.0000 0.85780  0.87552  0.49936  Biso   1.000  C
  H13      1.0000 0.90820  0.24895  0.52103  Biso   1.000  H
  H14      1.0000 0.82710  0.31807  0.45822  Biso   1.000  H
  O11      1.0000 0.84678  0.25185  0.59998  Biso   1.000  O
  H15      1.0000 0.78482  0.84999  0.56290  Biso   1.000  H
  O12      1.0000 0.77310  0.70606  0.45713  Biso   1.000  O
  H16      1.0000 0.50033  0.31668  0.97012  Biso   1.000  H
  O13      1.0000 0.41341  0.39487  0.86442  Biso   1.000  O
  C17      1.0000 0.52430  0.47147  0.88812  Biso   1.000  C
  H17      1.0000 0.61970  0.41801  0.99702  Biso   1.000  H
  C18      1.0000 0.63300  0.59146  0.91821  Biso   1.000  C
  H18      1.0000 0.89569  0.81279  0.55549  Biso   1.000  H
  O14      1.0000 0.86082  0.85697  0.40718  Biso   1.000  O
  H19      1.0000 0.50068  0.56054  0.84399  Biso   1.000  H
  O15      1.0000 0.53180  0.36784  0.82552  Biso   1.000  O
  H20      1.0000 0.63530  0.54099  0.85380  Biso   1.000  H
  H21      1.0000 0.60770  0.68701  0.89052  Biso   1.000  H
  O16      1.0000 0.69900  0.61101  0.98357  Biso   1.000  O
  C19      1.0000 0.91831  0.79593  0.40137  Biso   1.000  C
  C20      1.0000 0.51059  0.39567  0.72636  Biso   1.000  C
  C21      1.0000 0.89542  0.66338  0.34793  Biso   1.000  C
  H22      1.0000 0.95601  0.77399  0.47501  Biso   1.000  H
  C22      1.0000 0.94731  0.88979  0.34662  Biso   1.000  C
  H23      1.0000 0.47772  0.48404  0.70594  Biso   1.000  H
  C23      1.0000 0.47432  0.27060  0.66973  Biso   1.000  C
  O17      1.0000 0.56542  0.42799  0.70063  Biso   1.000  O
  C24      1.0000 0.94978  0.60283  0.32147  Biso   1.000  C
  H24      1.0000 0.85141  0.68392  0.28018  Biso   1.000  H
  O18      1.0000 0.87719  0.57141  0.40558  Biso   1.000  O
  C25      1.0000 0.98379  0.00688  0.40740  Biso   1.000  C
  H25      1.0000 0.90599  0.92260  0.27858  Biso   1.000  H
  O19      1.0000 0.99651  0.82166  0.32060  Biso   1.000  O
  H26      1.0000 0.45461  0.29553  0.59151  Biso   1.000  H
  O20      1.0000 0.42169  0.23549  0.69961  Biso   1.000  O
  C26      1.0000 0.52389  0.15570  0.68892  Biso   1.000  C
  C27      1.0000 0.61551  0.32625  0.72447  Biso   1.000  C
  C28      1.0000 0.97300  0.70646  0.26448  Biso   1.000  C
  H27      1.0000 0.99342  0.57750  0.38814  Biso   1.000  H
  O21      1.0000 0.92710  0.48683  0.26513  Biso   1.000  O
  H28      1.0000 0.95069  0.05695  0.43553  Biso   1.000  H
  H29      1.0000 0.02791  0.97167  0.46978  Biso   1.000  H
  O22      1.0000 0.00771  0.09645  0.35411  Biso   1.000  O
  H30      1.0000 0.53910  0.12557  0.76657  Biso   1.000  H
  O23      1.0000 0.49451  0.04039  0.63367  Biso   1.000  O
  C29      1.0000 0.58548  0.19888  0.67060  Biso   1.000  C
  H31      1.0000 0.63451  0.30680  0.80277  Biso   1.000  H
  C30      1.0000 0.67199  0.37921  0.69903  Biso   1.000  C
  O24      1.0000 0.91699  0.73738  0.17876  Biso   1.000  O
  H32      1.0000 0.01472  0.66886  0.24550  Biso   1.000  H
  H33      1.0000 0.57208  0.21434  0.59209  Biso   1.000  H
  O25      1.0000 0.63279  0.09316  0.70332  Biso   1.000  O
  H34      1.0000 0.71579  0.31019  0.72687  Biso   1.000  H
  H35      1.0000 0.68852  0.47417  0.73800  Biso   1.000  H
  O26      1.0000 0.64960  0.39737  0.59769  Biso   1.000  O
  C31      1.0000 0.92202  0.71913  0.08789  Biso   1.000  C
  C32      1.0000 0.66589  0.05157  0.64312  Biso   1.000  C
  C33      1.0000 0.86098  0.63824  0.02537  Biso   1.000  C
  H36      1.0000 0.96868  0.66567  0.09662  Biso   1.000  H
  C34      1.0000 0.92100  0.85368  0.03860  Biso   1.000  C
  C35      1.0000 0.65950  0.90036  0.63556  Biso   1.000  C
  H37      1.0000 0.64291  0.09844  0.57108  Biso   1.000  H
  O27      1.0000 0.73330  0.08987  0.68013  Biso   1.000  O
  C36      1.0000 0.86052  0.62298  0.92352  Biso   1.000  C
  H38      1.0000 0.81467  0.68781  0.02188  Biso   1.000  H
  O28      1.0000 0.86141  0.51037  0.06681  Biso   1.000  O
  O29      1.0000 0.92089  0.82904  0.94300  Biso   1.000  O
  H39      1.0000 0.87448  0.90624  0.03221  Biso   1.000  H
  C37      1.0000 0.98002  0.94175  0.09400  Biso   1.000  C
  H40      1.0000 0.67869  0.86455  0.58169  Biso   1.000  H
  O30      1.0000 0.59059  0.86216  0.59863  Biso   1.000  O
  C38      1.0000 0.69888  0.83862  0.73327  Biso   1.000  C
  C39      1.0000 0.77280  0.04199  0.77464  Biso   1.000  C
  C40      1.0000 0.86449  0.75953  0.88107  Biso   1.000  C
  H41      1.0000 0.90599  0.56683  0.92861  Biso   1.000  H
  O31      1.0000 0.80229  0.55795  0.85940  Biso   1.000  O
  H42      1.0000 0.97913  0.02803  0.04784  Biso   1.000  H
  H43      1.0000 0.97370  0.97826  0.15928  Biso   1.000  H
  O32      1.0000 0.04199  0.87443  0.12620  Biso   1.000  O
  H44      1.0000 0.67597  0.86515  0.78758  Biso   1.000  H
  O33      1.0000 0.69852  0.69848  0.72258  Biso   1.000  O
  C41      1.0000 0.77100  0.88959  0.77078  Biso   1.000  C
  H45      1.0000 0.75029  0.07690  0.82661  Biso   1.000  H
  C42      1.0000 0.84212  0.09984  0.80241  Biso   1.000  C
  O34      1.0000 0.80481  0.83154  0.86420  Biso   1.000  O
  H46      1.0000 0.87242  0.74776  0.81171  Biso   1.000  H
  H47      1.0000 0.79568  0.85627  0.72229  Biso   1.000  H
  H48      1.0000 0.87262  0.07002  0.87750  Biso   1.000  H
  H49      1.0000 0.83899  0.20796  0.80088  Biso   1.000  H
  O35      1.0000 0.87399  0.05406  0.74119  Biso   1.000  O
  O36      1.0000 0.40371  0.65250  0.59140  Biso   1.000  O
  C43      1.0000 0.38640  0.77768  0.62048  Biso   1.000  C
  C44      1.0000 0.30969  0.78027  0.58798  Biso   1.000  C
  H50      1.0000 0.39841  0.85777  0.58129  Biso   1.000  H
  C45      1.0000 0.42258  0.79932  0.72989  Biso   1.000  C
  O37      1.0000 0.28851  0.66098  0.61837  Biso   1.000  O
  H51      1.0000 0.28550  0.79025  0.50911  Biso   1.000  H
  O38      1.0000 0.28968  0.89198  0.62702  Biso   1.000  O
  H52      1.0000 0.41682  0.70985  0.76820  Biso   1.000  H
  O39      1.0000 0.49241  0.81598  0.75453  Biso   1.000  O
  C46      1.0000 0.39290  0.91722  0.76522  Biso   1.000  C
  C47      1.0000 0.24282  0.57820  0.54582  Biso   1.000  C
  C48      1.0000 0.31732  0.89487  0.73193  Biso   1.000  C
  O40      1.0000 0.42510  0.91741  0.86903  Biso   1.000  O
  H53      1.0000 0.40211  0.01257  0.73403  Biso   1.000  H
  C49      1.0000 0.26287  0.43587  0.57817  Biso   1.000  C
  C50      1.0000 0.17019  0.60563  0.53390  Biso   1.000  C
  H54      1.0000 0.24759  0.59475  0.47501  Biso   1.000  H
  H55      1.0000 0.30872  0.79892  0.76159  Biso   1.000  H
  C51      1.0000 0.28040  0.00199  0.76260  Biso   1.000  C
  C52      1.0000 0.45290  0.03790  0.91498  Biso   1.000  C
  C53      1.0000 0.21271  0.33932  0.50991  Biso   1.000  C
  H56      1.0000 0.26290  0.42280  0.65138  Biso   1.000  H
  O41      1.0000 0.32721  0.40914  0.57882  Biso   1.000  O
  O42      1.0000 0.12670  0.50818  0.46970  Biso   1.000  O
  H57      1.0000 0.16700  0.59924  0.60703  Biso   1.000  H
  C54      1.0000 0.14500  0.74008  0.49100  Biso   1.000  C
  H58      1.0000 0.22710  0.97995  0.73243  Biso   1.000  H
  H59      1.0000 0.29832  0.99900  0.84279  Biso   1.000  H
  O43      1.0000 0.29271  0.13285  0.73861  Biso   1.000  O
  H60      1.0000 0.45308  0.11380  0.85937  Biso   1.000  H
  C55      1.0000 0.52398  0.00928  0.98659  Biso   1.000  C
  O44      1.0000 0.41532  0.09515  0.96398  Biso   1.000  O
  C56      1.0000 0.14221  0.37552  0.50060  Biso   1.000  C
  H61      1.0000 0.21521  0.34999  0.43713  Biso   1.000  H
  O45      1.0000 0.22692  0.20606  0.54291  Biso   1.000  O
  H62      1.0000 0.09182  0.74895  0.47901  Biso   1.000  H
  H63      1.0000 0.17293  0.81807  0.54182  Biso   1.000  H
  O46      1.0000 0.15318  0.75185  0.39999  Biso   1.000  O
  O47      1.0000 0.56461  0.95980  0.93861  Biso   1.000  O
  C57      1.0000 0.52099  0.91382  0.06539  Biso   1.000  C
  H64      1.0000 0.54719  0.10393  0.02090  Biso   1.000  H
  C58      1.0000 0.40761  0.01007  0.03733  Biso   1.000  C
  H65      1.0000 0.10432  0.31279  0.44448  Biso   1.000  H
  O48      1.0000 0.13919  0.35697  0.59278  Biso   1.000  O
  H66      1.0000 0.49970  0.81668  0.02992  Biso   1.000  H
  O49      1.0000 0.58661  0.89487  0.13562  Biso   1.000  O
  C59      1.0000 0.47572  0.97147  0.11192  Biso   1.000  C
  H67      1.0000 0.38028  0.91801  0.00302  Biso   1.000  H
  C60      1.0000 0.36703  0.09146  0.08182  Biso   1.000  C
  C61      1.0000 0.08170  0.29593  0.59860  Biso   1.000  C
  O50      1.0000 0.46823  0.86784  0.17451  Biso   1.000  O
  H68      1.0000 0.49928  0.06054  0.15597  Biso   1.000  H
  H69      1.0000 0.36473  0.04099  0.14623  Biso   1.000  H
  H70      1.0000 0.39228  0.18701  0.10952  Biso   1.000  H
  O51      1.0000 0.30101  0.11101  0.01639  Biso   1.000  O
  C62      1.0000 0.10460  0.16338  0.65210  Biso   1.000  C
  H71      1.0000 0.04401  0.27399  0.52503  Biso   1.000  H
  C63      1.0000 0.05272  0.38979  0.65341  Biso   1.000  C
  C64      1.0000 0.48942  0.89567  0.27360  Biso   1.000  C
  C65      1.0000 0.05018  0.10283  0.67849  Biso   1.000  C
  H72      1.0000 0.14860  0.18392  0.71978  Biso   1.000  H
  O52      1.0000 0.12282  0.07141  0.59438  Biso   1.000  O
  H73      1.0000 0.09401  0.42260  0.72138  Biso   1.000  H
  O53      1.0000 0.00350  0.32166  0.67936  Biso   1.000  O
  C66      1.0000 0.01619  0.50688  0.59264  Biso   1.000  C
  H74      1.0000 0.52231  0.98404  0.29410  Biso   1.000  H
  C67      1.0000 0.52571  0.77060  0.33030  Biso   1.000  C
  O54      1.0000 0.43461  0.92799  0.29941  Biso   1.000  O
  C68      1.0000 0.02700  0.20646  0.73549  Biso   1.000  C
  H75      1.0000 0.00661  0.07750  0.61190  Biso   1.000  H
  O55      1.0000 0.07288  0.98683  0.73491  Biso   1.000  O
  H76      1.0000 0.04929  0.55695  0.56450  Biso   1.000  H
  H77      1.0000 0.97210  0.47167  0.53019  Biso   1.000  H
  O56      1.0000 0.99232  0.59645  0.64592  Biso   1.000  O
  H78      1.0000 0.54542  0.79553  0.40853  Biso   1.000  H
  O57      1.0000 0.57828  0.73549  0.30043  Biso   1.000  O
  C69      1.0000 0.47609  0.65570  0.31111  Biso   1.000  C
  C70      1.0000 0.38449  0.82625  0.27549  Biso   1.000  C
  O58      1.0000 0.08302  0.23738  0.82120  Biso   1.000  O
  H79      1.0000 0.98531  0.16886  0.75453  Biso   1.000  H
  H80      1.0000 0.46091  0.62557  0.23340  Biso   1.000  H
  O59      1.0000 0.50550  0.54039  0.36629  Biso   1.000  O
  C71      1.0000 0.41450  0.69888  0.32943  Biso   1.000  C
  H81      1.0000 0.36550  0.80680  0.19719  Biso   1.000  H
  C72      1.0000 0.32799  0.87921  0.30101  Biso   1.000  C
  C73      1.0000 0.07799  0.21913  0.91207  Biso   1.000  C
  O60      1.0000 0.36719  0.59316  0.29672  Biso   1.000  O
  H82      1.0000 0.42788  0.71434  0.40787  Biso   1.000  H
  H83      1.0000 0.28421  0.81019  0.27309  Biso   1.000  H
  H84      1.0000 0.31149  0.97417  0.26197  Biso   1.000  H
  O61      1.0000 0.35040  0.89737  0.40228  Biso   1.000  O
  C74      1.0000 0.13898  0.13824  0.97459  Biso   1.000  C
  H85      1.0000 0.03130  0.16567  0.90342  Biso   1.000  H
  C75      1.0000 0.07903  0.35368  0.96143  Biso   1.000  C
  C76      1.0000 0.33409  0.55157  0.35691  Biso   1.000  C
  H86      1.0000 0.18529  0.18781  0.97808  Biso   1.000  H
  O62      1.0000 0.13862  0.01037  0.93323  Biso   1.000  O
  C77      1.0000 0.13951  0.12298  0.07651  Biso   1.000  C
  H87      1.0000 0.12550  0.40624  0.96783  Biso   1.000  H
  C78      1.0000 0.01999  0.44175  0.90596  Biso   1.000  C
  O63      1.0000 0.07909  0.32904  0.05703  Biso   1.000  O
  C79      1.0000 0.34050  0.40036  0.36440  Biso   1.000  C
  O64      1.0000 0.26668  0.58987  0.31991  Biso   1.000  O
  H88      1.0000 0.35710  0.59844  0.42888  Biso   1.000  H
  C80      1.0000 0.13552  0.25953  0.11890  Biso   1.000  C
  H89      1.0000 0.09399  0.06683  0.07143  Biso   1.000  H
  O65      1.0000 0.19769  0.05795  0.14063  Biso   1.000  O
  H90      1.0000 0.02090  0.52803  0.95220  Biso   1.000  H
  H91      1.0000 0.02631  0.47826  0.84068  Biso   1.000  H
  O66      1.0000 0.95803  0.37443  0.87383  Biso   1.000  O
  C81      1.0000 0.30108  0.33862  0.26669  Biso   1.000  C
  H92      1.0000 0.32127  0.36455  0.41827  Biso   1.000  H
  O67      1.0000 0.40939  0.36216  0.40140  Biso   1.000  O
  C82      1.0000 0.22722  0.54199  0.22540  Biso   1.000  C
  H93      1.0000 0.12760  0.24776  0.18832  Biso   1.000  H
  O68      1.0000 0.19520  0.33154  0.13576  Biso   1.000  O
  C83      1.0000 0.22901  0.38959  0.22918  Biso   1.000  C
  H94      1.0000 0.32399  0.36515  0.21239  Biso   1.000  H
  O69      1.0000 0.30149  0.19848  0.27738  Biso   1.000  O
  H95      1.0000 0.24968  0.57690  0.17342  Biso   1.000  H
  C84      1.0000 0.15791  0.59984  0.19763  Biso   1.000  C
  H96      1.0000 0.20428  0.35627  0.27767  Biso   1.000  H
  H97      1.0000 0.12741  0.57002  0.12253  Biso   1.000  H
  H98      1.0000 0.16097  0.70796  0.19908  Biso   1.000  H
  O70      1.0000 0.12597  0.55406  0.25877  Biso   1.000  O
  Ne1      1.0000 0.27063  0.58425  0.92764  Biso   1.000  Ne
  He1      1.0000 0.32787  0.48203  0.94822  Biso   1.000  He
  He2      1.0000 0.23862  0.64887  0.92642  Biso   1.000  He
  Ar1      1.0000 0.30453  0.49083  0.94022  Biso   1.000  Ar
  Ne2      1.0000 0.72937  0.08425  0.07236  Biso   1.000  Ne
  He3      1.0000 0.76890  0.16664  0.07555  Biso   1.000  He
  He4      1.0000 0.57382  0.79987  0.02664  Biso   1.000  He
  Ar2      1.0000 0.60332  0.83362  0.03522  Biso   1.000  Ar
