data_image0
_cell_length_a       14.339
_cell_length_b       37.365
_cell_length_c       9.465
_cell_angle_alpha    90
_cell_angle_beta     90
_cell_angle_gamma    90

_symmetry_space_group_name_H-M    "P 1"
_symmetry_int_tables_number       1

loop_
  _symmetry_equiv_pos_as_xyz
  'x, y, z'

loop_
  _atom_site_label
  _atom_site_occupancy
  _atom_site_fract_x
  _atom_site_fract_y
  _atom_site_fract_z
  _atom_site_thermal_displace_type
  _atom_site_B_iso_or_equiv
  _atom_site_type_symbol
  O1       1.0000 0.57480  0.48840  0.53893  Biso   1.000  O
  C1       1.0000 0.52103  0.47290  0.42715  Biso   1.000  C
  H1       1.0000 0.56001  0.47900  0.62504  Biso   1.000  H
  C2       1.0000 0.53428  0.43230  0.43106  Biso   1.000  C
  C3       1.0000 0.41872  0.48211  0.43782  Biso   1.000  C
  O2       1.0000 0.50617  0.42069  0.56799  Biso   1.000  O
  O3       1.0000 0.48100  0.41560  0.32478  Biso   1.000  O
  C4       1.0000 0.36111  0.46161  0.33059  Biso   1.000  C
  O4       1.0000 0.40791  0.52011  0.41268  Biso   1.000  O
  C5       1.0000 0.57103  0.40080  0.65156  Biso   1.000  C
  C6       1.0000 0.38217  0.42149  0.33788  Biso   1.000  C
  O5       1.0000 0.26557  0.46629  0.37095  Biso   1.000  O
  H2       1.0000 0.34298  0.52900  0.43096  Biso   1.000  H
  C7       1.0000 0.54613  0.40929  0.80359  Biso   1.000  C
  C8       1.0000 0.56231  0.36071  0.61965  Biso   1.000  C
  C9       1.0000 0.33761  0.40051  0.21701  Biso   1.000  C
  C10      1.0000 0.20741  0.48481  0.27808  Biso   1.000  C
  C11      1.0000 0.59551  0.38509  0.90555  Biso   1.000  C
  O6       1.0000 0.57263  0.44641  0.82694  Biso   1.000  O
  O7       1.0000 0.61392  0.34040  0.72404  Biso   1.000  O
  C12      1.0000 0.60297  0.34961  0.47755  Biso   1.000  C
  O8       1.0000 0.37353  0.41089  0.08209  Biso   1.000  O
  C13      1.0000 0.14513  0.50941  0.36587  Biso   1.000  C
  O9       1.0000 0.15147  0.46110  0.19778  Biso   1.000  O
  C14      1.0000 0.58031  0.34559  0.86445  Biso   1.000  C
  O10      1.0000 0.55890  0.39039  0.04437  Biso   1.000  O
  H3       1.0000 0.53302  0.45701  0.89995  Biso   1.000  H
  H4       1.0000 0.44299  0.40800  0.06899  Biso   1.000  H
  C15      1.0000 0.08327  0.48679  0.46138  Biso   1.000  C
  O11      1.0000 0.20573  0.53210  0.44427  Biso   1.000  O
  C16      1.0000 0.09582  0.43680  0.27892  Biso   1.000  C
  O12      1.0000 0.48532  0.33861  0.87364  Biso   1.000  O
  H5       1.0000 0.60402  0.39799  0.10005  Biso   1.000  H
  C17      1.0000 0.03208  0.45770  0.37887  Biso   1.000  C
  O13      1.0000 0.01611  0.51010  0.52816  Biso   1.000  O
  H6       1.0000 0.17400  0.55100  0.48505  Biso   1.000  H
  C18      1.0000 0.04380  0.41421  0.17211  Biso   1.000  C
  C19      1.0000 0.45498  0.30491  0.92932  Biso   1.000  C
  O14      1.0000 0.99763  0.43399  0.48674  Biso   1.000  O
  H7       1.0000 0.98898  0.49600  0.59503  Biso   1.000  H
  O15      1.0000 0.98452  0.43519  0.08357  Biso   1.000  O
  C20      1.0000 0.39731  0.28620  0.81606  Biso   1.000  C
  C21      1.0000 0.40059  0.31380  0.06307  Biso   1.000  C
  C22      1.0000 0.90397  0.42270  0.48368  Biso   1.000  C
  H8       1.0000 0.00502  0.46000  0.03803  Biso   1.000  H
  O16      1.0000 0.34661  0.25660  0.87839  Biso   1.000  O
  C23      1.0000 0.45603  0.27009  0.69984  Biso   1.000  C
  C24      1.0000 0.34479  0.28149  0.11305  Biso   1.000  C
  O17      1.0000 0.46398  0.32439  0.17242  Biso   1.000  O
  C25      1.0000 0.86722  0.42679  0.63339  Biso   1.000  C
  O18      1.0000 0.89727  0.38659  0.44068  Biso   1.000  O
  C26      1.0000 0.28649  0.26709  0.99123  Biso   1.000  C
  O19      1.0000 0.28531  0.29220  0.22694  Biso   1.000  O
  H9       1.0000 0.49299  0.34800  0.14496  Biso   1.000  H
  C27      1.0000 0.91973  0.40241  0.73450  Biso   1.000  C
  O20      1.0000 0.87768  0.46399  0.67121  Biso   1.000  O
  C28      1.0000 0.95132  0.36240  0.52647  Biso   1.000  C
  O21      1.0000 0.22589  0.29450  0.94654  Biso   1.000  O
  H10      1.0000 0.26703  0.27001  0.27501  Biso   1.000  H
  C29      1.0000 0.91952  0.36411  0.67945  Biso   1.000  C
  O22      1.0000 0.87747  0.40270  0.87248  Biso   1.000  O
  H11      1.0000 0.83500  0.47001  0.73999  Biso   1.000  H
  C30      1.0000 0.94128  0.32541  0.45906  Biso   1.000  C
  C31      1.0000 0.12832  0.28661  0.93281  Biso   1.000  C
  O23      1.0000 0.98263  0.34471  0.76735  Biso   1.000  O
  H12      1.0000 0.91603  0.41999  0.93502  Biso   1.000  H
  O24      1.0000 0.84832  0.31171  0.46994  Biso   1.000  O
  C32      1.0000 0.10259  0.28529  0.77623  Biso   1.000  C
  C33      1.0000 0.07678  0.31631  0.00919  Biso   1.000  C
  C34      1.0000 0.95481  0.31131  0.82525  Biso   1.000  C
  H13      1.0000 0.82300  0.34000  0.47195  Biso   1.000  H
  C35      1.0000 0.14241  0.25280  0.70069  Biso   1.000  C
  O25      1.0000 0.00272  0.28251  0.76207  Biso   1.000  O
  C36      1.0000 0.97378  0.31259  0.98331  Biso   1.000  C
  O26      1.0000 0.09248  0.31420  0.15858  Biso   1.000  O
  O27      1.0000 0.12769  0.22050  0.77697  Biso   1.000  O
  O28      1.0000 0.92147  0.34091  0.04765  Biso   1.000  O
  H14      1.0000 0.15998  0.31101  0.16904  Biso   1.000  H
  H15      1.0000 0.05398  0.21100  0.79704  Biso   1.000  H
  H16      1.0000 0.90997  0.35999  0.98003  Biso   1.000  H
  O29      1.0000 0.62229  0.53601  0.17116  Biso   1.000  O
  C37      1.0000 0.63282  0.57321  0.13344  Biso   1.000  C
  H17      1.0000 0.66497  0.52999  0.24004  Biso   1.000  H
  C38      1.0000 0.59600  0.57730  0.98373  Biso   1.000  C
  C39      1.0000 0.58031  0.59759  0.23455  Biso   1.000  C
  O30      1.0000 0.50241  0.56601  0.98669  Biso   1.000  O
  O31      1.0000 0.60269  0.61341  0.94073  Biso   1.000  O
  C40      1.0000 0.58051  0.63589  0.17950  Biso   1.000  C
  O32      1.0000 0.62250  0.59730  0.37253  Biso   1.000  O
  C41      1.0000 0.46788  0.54230  0.87892  Biso   1.000  C
  C42      1.0000 0.54871  0.63760  0.02652  Biso   1.000  C
  O33      1.0000 0.51740  0.65529  0.26741  Biso   1.000  O
  H18      1.0000 0.58400  0.58001  0.43497  Biso   1.000  H
  C43      1.0000 0.41670  0.51321  0.96144  Biso   1.000  C
  C44      1.0000 0.40421  0.56320  0.77887  Biso   1.000  C
  C45      1.0000 0.55869  0.67459  0.95911  Biso   1.000  C
  C46      1.0000 0.54523  0.68869  0.32530  Biso   1.000  C
  O34      1.0000 0.48392  0.48990  0.02821  Biso   1.000  O
  C47      1.0000 0.35491  0.49059  0.86593  Biso   1.000  C
  O35      1.0000 0.34849  0.53890  0.69783  Biso   1.000  O
  C48      1.0000 0.45617  0.58579  0.67205  Biso   1.000  C
  O36      1.0000 0.65172  0.68829  0.96989  Biso   1.000  O
  C49      1.0000 0.52619  0.68741  0.48325  Biso   1.000  C
  O37      1.0000 0.49732  0.71749  0.26212  Biso   1.000  O
  H19      1.0000 0.51098  0.50400  0.09498  Biso   1.000  H
  C50      1.0000 0.29263  0.51519  0.77813  Biso   1.000  C
  O38      1.0000 0.29430  0.46790  0.94432  Biso   1.000  O
  O39      1.0000 0.51552  0.56481  0.58362  Biso   1.000  O
  H20      1.0000 0.67703  0.66000  0.97200  Biso   1.000  H
  C51      1.0000 0.42318  0.68369  0.50924  Biso   1.000  C
  O40      1.0000 0.57849  0.65909  0.54760  Biso   1.000  O
  C52      1.0000 0.39738  0.71471  0.27618  Biso   1.000  C
  O41      1.0000 0.23440  0.53371  0.87089  Biso   1.000  O
  H21      1.0000 0.32603  0.44900  0.98500  Biso   1.000  H
  H22      1.0000 0.49501  0.54000  0.53798  Biso   1.000  H
  C53      1.0000 0.37171  0.71339  0.43275  Biso   1.000  C
  O42      1.0000 0.40749  0.68580  0.65864  Biso   1.000  O
  H23      1.0000 0.59000  0.64001  0.47998  Biso   1.000  H
  C54      1.0000 0.35763  0.74720  0.20074  Biso   1.000  C
  C55      1.0000 0.13892  0.53839  0.83064  Biso   1.000  C
  O43      1.0000 0.27408  0.70550  0.44649  Biso   1.000  O
  H24      1.0000 0.33998  0.68899  0.66899  Biso   1.000  H
  O44      1.0000 0.37227  0.77950  0.27702  Biso   1.000  O
  C56      1.0000 0.08132  0.51789  0.93777  Biso   1.000  C
  C57      1.0000 0.11779  0.57851  0.83793  Biso   1.000  C
  C58      1.0000 0.21347  0.73291  0.49118  Biso   1.000  C
  H25      1.0000 0.44599  0.78900  0.29699  Biso   1.000  H
  C59      1.0000 0.97901  0.52710  0.92721  Biso   1.000  C
  O45      1.0000 0.09213  0.47989  0.91273  Biso   1.000  O
  C60      1.0000 0.16242  0.59949  0.71696  Biso   1.000  C
  O46      1.0000 0.01897  0.58440  0.82483  Biso   1.000  O
  C61      1.0000 0.15517  0.71851  0.61310  Biso   1.000  C
  O47      1.0000 0.15343  0.74340  0.37845  Biso   1.000  O
  C62      1.0000 0.96569  0.56770  0.93111  Biso   1.000  C
  O48      1.0000 0.92517  0.51160  0.03888  Biso   1.000  O
  H26      1.0000 0.15698  0.47100  0.93101  Biso   1.000  H
  O49      1.0000 0.12651  0.58911  0.58214  Biso   1.000  O
  C63      1.0000 0.09938  0.68620  0.56313  Biso   1.000  C
  O50      1.0000 0.21473  0.70780  0.72689  Biso   1.000  O
  C64      1.0000 0.10273  0.71380  0.31611  Biso   1.000  C
  O51      1.0000 0.99379  0.57931  0.06804  Biso   1.000  O
  H27      1.0000 0.94002  0.52100  0.12499  Biso   1.000  H
  H28      1.0000 0.05698  0.59200  0.56904  Biso   1.000  H
  C65      1.0000 0.04498  0.69509  0.42927  Biso   1.000  C
  O52      1.0000 0.03599  0.67561  0.67237  Biso   1.000  O
  H29      1.0000 0.23300  0.72999  0.77496  Biso   1.000  H
  C66      1.0000 0.04401  0.72991  0.19979  Biso   1.000  C
  C67      1.0000 0.92900  0.59920  0.15161  Biso   1.000  C
  O53      1.0000 0.01472  0.66139  0.37359  Biso   1.000  O
  H30      1.0000 0.00697  0.65200  0.64501  Biso   1.000  H
  C68      1.0000 0.95390  0.59071  0.30365  Biso   1.000  C
  C69      1.0000 0.93772  0.63929  0.11970  Biso   1.000  C
  C70      1.0000 0.91973  0.65441  0.36440  Biso   1.000  C
  C71      1.0000 0.90453  0.61491  0.40549  Biso   1.000  C
  O54      1.0000 0.92740  0.55359  0.32689  Biso   1.000  O
  C72      1.0000 0.89699  0.65039  0.97760  Biso   1.000  C
  O55      1.0000 0.88611  0.65960  0.22398  Biso   1.000  O
  O56      1.0000 0.94107  0.60961  0.54443  Biso   1.000  O
  H31      1.0000 0.96701  0.54299  0.40000  Biso   1.000  H
  H32      1.0000 0.89602  0.60201  0.60000  Biso   1.000  H
  O57      1.0000 0.62773  0.27951  0.22303  Biso   1.000  O
  C73      1.0000 0.64237  0.24721  0.29931  Biso   1.000  C
  H33      1.0000 0.55401  0.28899  0.20296  Biso   1.000  H
  C74      1.0000 0.60262  0.21469  0.22377  Biso   1.000  C
  O58      1.0000 0.50268  0.21750  0.23793  Biso   1.000  O
  C75      1.0000 0.62829  0.21341  0.06719  Biso   1.000  C
  C76      1.0000 0.45477  0.18871  0.17475  Biso   1.000  C
  C77      1.0000 0.57682  0.18370  0.99081  Biso   1.000  C
  O59      1.0000 0.72592  0.20551  0.05346  Biso   1.000  O
  C78      1.0000 0.47381  0.18739  0.01669  Biso   1.000  C
  O60      1.0000 0.48260  0.15531  0.23265  Biso   1.000  O
  O61      1.0000 0.59251  0.18579  0.84142  Biso   1.000  O
  C79      1.0000 0.78653  0.23289  0.00877  Biso   1.000  C
  O62      1.0000 0.42151  0.15911  0.95235  Biso   1.000  O
  C80      1.0000 0.41949  0.13590  0.32055  Biso   1.000  C
  H34      1.0000 0.66002  0.18900  0.83096  Biso   1.000  H
  O63      1.0000 0.84657  0.24341  0.12161  Biso   1.000  O
  C81      1.0000 0.84483  0.21849  0.88695  Biso   1.000  C
  H35      1.0000 0.41000  0.14000  0.01997  Biso   1.000  H
  C82      1.0000 0.41969  0.09760  0.26550  Biso   1.000  C
  C83      1.0000 0.45129  0.13759  0.47353  Biso   1.000  C
  C84      1.0000 0.89727  0.21381  0.18394  Biso   1.000  C
  C85      1.0000 0.90062  0.18619  0.93693  Biso   1.000  C
  O64      1.0000 0.78527  0.20779  0.77306  Biso   1.000  O
  C86      1.0000 0.36718  0.07320  0.36661  Biso   1.000  C
  O65      1.0000 0.37750  0.09731  0.12752  Biso   1.000  O
  C87      1.0000 0.44131  0.17460  0.54094  Biso   1.000  C
  O66      1.0000 0.39731  0.11339  0.55932  Biso   1.000  O
  C88      1.0000 0.95502  0.19510  0.07068  Biso   1.000  C
  C89      1.0000 0.95599  0.22989  0.30016  Biso   1.000  C
  O67      1.0000 0.96401  0.17559  0.82758  Biso   1.000  O
  H36      1.0000 0.76700  0.23000  0.72499  Biso   1.000  H
  C90      1.0000 0.40400  0.07729  0.51632  Biso   1.000  C
  O68      1.0000 0.37771  0.03600  0.32879  Biso   1.000  O
  H37      1.0000 0.41600  0.07999  0.06498  Biso   1.000  H
  O69      1.0000 0.34828  0.18830  0.53006  Biso   1.000  O
  O70      1.0000 0.98528  0.16141  0.12636  Biso   1.000  O
  H38      1.0000 0.99303  0.15199  0.85504  Biso   1.000  H
  O71      1.0000 0.49759  0.06600  0.51326  Biso   1.000  O
  H39      1.0000 0.33503  0.03000  0.26001  Biso   1.000  H
  H40      1.0000 0.32297  0.15999  0.52805  Biso   1.000  H
  C91      1.0000 0.08027  0.15440  0.13555  Biso   1.000  C
  C92      1.0000 0.53212  0.04231  0.62113  Biso   1.000  C
  C93      1.0000 0.09547  0.11489  0.09445  Biso   1.000  C
  O72      1.0000 0.11389  0.15959  0.27596  Biso   1.000  O
  C94      1.0000 0.58330  0.01319  0.53862  Biso   1.000  C
  C95      1.0000 0.59579  0.06319  0.72108  Biso   1.000  C
  O73      1.0000 0.05893  0.10959  0.95563  Biso   1.000  O
  C96      1.0000 0.04610  0.09070  0.19641  Biso   1.000  C
  C97      1.0000 0.06228  0.13930  0.38035  Biso   1.000  C
  C98      1.0000 0.64509  0.99061  0.63413  Biso   1.000  C
  O74      1.0000 0.51608  0.98991  0.47184  Biso   1.000  O
  C99      1.0000 0.54383  0.08580  0.82789  Biso   1.000  C
  O75      1.0000 0.65151  0.03889  0.80222  Biso   1.000  O
  H41      1.0000 0.10398  0.10199  0.89995  Biso   1.000  H
  C100     1.0000 0.07100  0.09921  0.34844  Biso   1.000  C
  O76      1.0000 0.07260  0.05361  0.17306  Biso   1.000  O
  C101     1.0000 0.10301  0.15041  0.52245  Biso   1.000  C
  C102     1.0000 0.70737  0.01520  0.72192  Biso   1.000  C
  O77      1.0000 0.70570  0.96791  0.55573  Biso   1.000  O
  H42      1.0000 0.48902  0.00399  0.40497  Biso   1.000  H
  O78      1.0000 0.48448  0.06479  0.91643  Biso   1.000  O
  O79      1.0000 0.00621  0.07930  0.43201  Biso   1.000  O
  H43      1.0000 0.03299  0.04301  0.10005  Biso   1.000  H
  O80      1.0000 0.76560  0.03369  0.62905  Biso   1.000  O
  H44      1.0000 0.67397  0.94899  0.51495  Biso   1.000  H
  H45      1.0000 0.50499  0.04001  0.96197  Biso   1.000  H
  C103     1.0000 0.03431  0.06771  0.56894  Biso   1.000  C
  C104     1.0000 0.86108  0.03840  0.66941  Biso   1.000  C
  C105     1.0000 0.02099  0.02711  0.57285  Biso   1.000  C
  O81      1.0000 0.98103  0.08441  0.67522  Biso   1.000  O
  C106     1.0000 0.91868  0.01790  0.56218  Biso   1.000  C
  C107     1.0000 0.88221  0.07850  0.66212  Biso   1.000  C
  O82      1.0000 0.07483  0.01159  0.46107  Biso   1.000  O
  O83      1.0000 0.90787  0.97990  0.58732  Biso   1.000  O
  C108     1.0000 0.83758  0.09950  0.78299  Biso   1.000  C
  H46      1.0000 0.05998  0.02101  0.37496  Biso   1.000  H
  H47      1.0000 0.84302  0.97099  0.56904  Biso   1.000  H
  O84      1.0000 0.87349  0.08909  0.91791  Biso   1.000  O
  H48      1.0000 0.94302  0.09201  0.93101  Biso   1.000  H
  O85      1.0000 0.65339  0.75659  0.62155  Biso   1.000  O
  C109     1.0000 0.71351  0.76711  0.50882  Biso   1.000  C
  C110     1.0000 0.60269  0.78619  0.68389  Biso   1.000  C
  C111     1.0000 0.65521  0.78151  0.38690  Biso   1.000  C
  O86      1.0000 0.77411  0.79449  0.55351  Biso   1.000  O
  C112     1.0000 0.54502  0.80490  0.57073  Biso   1.000  C
  C113     1.0000 0.54397  0.77011  0.80021  Biso   1.000  C
  C114     1.0000 0.59941  0.81381  0.43687  Biso   1.000  C
  O87      1.0000 0.71469  0.79221  0.27311  Biso   1.000  O
  C115     1.0000 0.87168  0.78659  0.56725  Biso   1.000  C
  O88      1.0000 0.51468  0.83859  0.62641  Biso   1.000  O
  O89      1.0000 0.53602  0.82441  0.32763  Biso   1.000  O
  H49      1.0000 0.73297  0.77000  0.22504  Biso   1.000  H
  C116     1.0000 0.92322  0.81630  0.49076  Biso   1.000  C
  C117     1.0000 0.89741  0.78531  0.72382  Biso   1.000  C
  C118     1.0000 0.41969  0.84560  0.63560  Biso   1.000  C
  H50      1.0000 0.50701  0.84801  0.35499  Biso   1.000  H
  O90      1.0000 0.90752  0.81421  0.34136  Biso   1.000  O
  C119     1.0000 0.02622  0.81261  0.51675  Biso   1.000  C
  C120     1.0000 0.85759  0.75279  0.79926  Biso   1.000  C
  O91      1.0000 0.99728  0.78250  0.73788  Biso   1.000  O
  C121     1.0000 0.40449  0.88511  0.59451  Biso   1.000  C
  O92      1.0000 0.38608  0.84041  0.77602  Biso   1.000  O
  H51      1.0000 0.84002  0.81100  0.33101  Biso   1.000  H
  C122     1.0000 0.04519  0.81129  0.67470  Biso   1.000  C
  O93      1.0000 0.07853  0.84089  0.45240  Biso   1.000  O
  O94      1.0000 0.87231  0.72049  0.72298  Biso   1.000  O
  C123     1.0000 0.45387  0.90930  0.69635  Biso   1.000  C
  O95      1.0000 0.44110  0.89041  0.45557  Biso   1.000  O
  C124     1.0000 0.43769  0.86070  0.88030  Biso   1.000  C
  O96      1.0000 0.01737  0.84469  0.73259  Biso   1.000  O
  H52      1.0000 0.09003  0.86000  0.52002  Biso   1.000  H
  H53      1.0000 0.94602  0.71101  0.70301  Biso   1.000  H
  C125     1.0000 0.42897  0.90079  0.84839  Biso   1.000  C
  O97      1.0000 0.42737  0.94639  0.67311  Biso   1.000  O
  H54      1.0000 0.39598  0.89801  0.40000  Biso   1.000  H
  C126     1.0000 0.39703  0.84959  0.02240  Biso   1.000  C
  C127     1.0000 0.08048  0.86410  0.82050  Biso   1.000  C
  O98      1.0000 0.49383  0.92070  0.93196  Biso   1.000  O
  H55      1.0000 0.46698  0.95699  0.60000  Biso   1.000  H
  C128     1.0000 0.08027  0.90240  0.76545  Biso   1.000  C
  C129     1.0000 0.04868  0.86241  0.97348  Biso   1.000  C
  C130     1.0000 0.46572  0.93229  0.06889  Biso   1.000  C
  C131     1.0000 0.13278  0.92680  0.86656  Biso   1.000  C
  O99      1.0000 0.12253  0.90269  0.62747  Biso   1.000  O
  C132     1.0000 0.05872  0.82540  0.04089  Biso   1.000  C
  O100     1.0000 0.10273  0.88661  0.05927  Biso   1.000  O
  C133     1.0000 0.47897  0.97289  0.07279  Biso   1.000  C
  O101     1.0000 0.51900  0.91559  0.17517  Biso   1.000  O
  O102     1.0000 0.12232  0.96400  0.82884  Biso   1.000  O
  C134     1.0000 0.09603  0.92271  0.01627  Biso   1.000  C
  H56      1.0000 0.08397  0.92001  0.56503  Biso   1.000  H
  O103     1.0000 0.15168  0.81170  0.03011  Biso   1.000  O
  O104     1.0000 0.42520  0.98841  0.96112  Biso   1.000  O
  C135     1.0000 0.58128  0.98210  0.06223  Biso   1.000  C
  C136     1.0000 0.61783  0.92150  0.16207  Biso   1.000  C
  H57      1.0000 0.16500  0.97000  0.75996  Biso   1.000  H
  O105     1.0000 0.00237  0.93400  0.01331  Biso   1.000  O
  H58      1.0000 0.17700  0.84001  0.02800  Biso   1.000  H
  H59      1.0000 0.43999  0.97899  0.87501  Biso   1.000  H
  C137     1.0000 0.63889  0.96160  0.16936  Biso   1.000  C
  O106     1.0000 0.59209  0.02010  0.08727  Biso   1.000  O
  C138     1.0000 0.66239  0.90050  0.28304  Biso   1.000  C
  C139     1.0000 0.96792  0.95769  0.12108  Biso   1.000  C
  O107     1.0000 0.73443  0.96631  0.12911  Biso   1.000  O
  H60      1.0000 0.65702  0.02901  0.06899  Biso   1.000  H
  O108     1.0000 0.62647  0.91091  0.41786  Biso   1.000  O
  C140     1.0000 0.91673  0.98681  0.03856  Biso   1.000  C
  C141     1.0000 0.90418  0.93681  0.22113  Biso   1.000  C
  C142     1.0000 0.79259  0.98480  0.22187  Biso   1.000  C
  H61      1.0000 0.55701  0.90799  0.43096  Biso   1.000  H
  O109     1.0000 0.98389  0.01009  0.97179  Biso   1.000  O
  C143     1.0000 0.85487  0.00939  0.13407  Biso   1.000  C
  C144     1.0000 0.95620  0.91420  0.32795  Biso   1.000  C
  O110     1.0000 0.84853  0.96111  0.30217  Biso   1.000  O
  H62      1.0000 0.01102  0.99601  0.90502  Biso   1.000  H
  O111     1.0000 0.79427  0.03209  0.05568  Biso   1.000  O
  O112     1.0000 0.01548  0.93521  0.41638  Biso   1.000  O
  H63      1.0000 0.82600  0.05101  0.01500  Biso   1.000  H
  H64      1.0000 0.99498  0.95999  0.46202  Biso   1.000  H
  Ne1      1.0000 0.73162  0.11820  0.34768  Biso   1.000  Ne
  He1      1.0000 0.76382  0.15655  0.45946  Biso   1.000  He
  He2      1.0000 0.74481  0.11096  0.27782  Biso   1.000  He
  Ar1      1.0000 0.74997  0.11103  0.27581  Biso   1.000  Ar
  Ne2      1.0000 0.23163  0.38180  0.65232  Biso   1.000  Ne
  He3      1.0000 0.23840  0.37931  0.67674  Biso   1.000  He
  He4      1.0000 0.26729  0.32983  0.49922  Biso   1.000  He
  Ar2      1.0000 0.22756  0.38071  0.66101  Biso   1.000  Ar
  Ne3      1.0000 0.26838  0.61820  0.15233  Biso   1.000  Ne
  He5      1.0000 0.25671  0.61609  0.20435  Biso   1.000  He
  He6      1.0000 0.23588  0.65799  0.03615  Biso   1.000  He
  Ar3      1.0000 0.25757  0.61728  0.19931  Biso   1.000  Ar
  Ne4      1.0000 0.76837  0.88180  0.84767  Biso   1.000  Ne
  He7      1.0000 0.78879  0.81992  0.10034  Biso   1.000  He
  He8      1.0000 0.76850  0.91017  0.70779  Biso   1.000  He
  Ar4      1.0000 0.76680  0.90900  0.73546  Biso   1.000  Ar
