data_image0
_cell_length_a       15.242
_cell_length_b       10.639
_cell_length_c       23.324
_cell_angle_alpha    90
_cell_angle_beta     101.8
_cell_angle_gamma    90

_symmetry_space_group_name_H-M    "P 1"
_symmetry_int_tables_number       1

loop_
  _symmetry_equiv_pos_as_xyz
  'x, y, z'

loop_
  _atom_site_label
  _atom_site_occupancy
  _atom_site_fract_x
  _atom_site_fract_y
  _atom_site_fract_z
  _atom_site_thermal_displace_type
  _atom_site_B_iso_or_equiv
  _atom_site_type_symbol
  C1       1.0000 0.50221  0.54422  0.42008  Biso   1.000  C
  C2       1.0000 0.45422  0.64292  0.37869  Biso   1.000  C
  C3       1.0000 0.45751  0.41752  0.40892  Biso   1.000  C
  H1       1.0000 0.50202  0.56199  0.45701  Biso   1.000  H
  O1       1.0000 0.59227  0.53943  0.41163  Biso   1.000  O
  C4       1.0000 0.35513  0.64395  0.38010  Biso   1.000  C
  H2       1.0000 0.46202  0.61904  0.33800  Biso   1.000  H
  O2       1.0000 0.48960  0.76511  0.39302  Biso   1.000  O
  O3       1.0000 0.36403  0.42824  0.41062  Biso   1.000  O
  H3       1.0000 0.46800  0.39402  0.37199  Biso   1.000  H
  C5       1.0000 0.49509  0.32108  0.45521  Biso   1.000  C
  C6       1.0000 0.66363  0.55814  0.46021  Biso   1.000  C
  C7       1.0000 0.31668  0.51283  0.36919  Biso   1.000  C
  H4       1.0000 0.34808  0.67159  0.41899  Biso   1.000  H
  O4       1.0000 0.30562  0.72544  0.33761  Biso   1.000  O
  H5       1.0000 0.55000  0.76605  0.38999  Biso   1.000  H
  H6       1.0000 0.55968  0.31770  0.45929  Biso   1.000  H
  H7       1.0000 0.48252  0.34768  0.49240  Biso   1.000  H
  O5       1.0000 0.45930  0.19870  0.44190  Biso   1.000  O
  H8       1.0000 0.64299  0.58201  0.49301  Biso   1.000  H
  C8       1.0000 0.72670  0.65532  0.44391  Biso   1.000  C
  O6       1.0000 0.71002  0.44374  0.47720  Biso   1.000  O
  O7       1.0000 0.32082  0.47655  0.31155  Biso   1.000  O
  H9       1.0000 0.24804  0.51499  0.37501  Biso   1.000  H
  C9       1.0000 0.28489  0.84237  0.35710  Biso   1.000  C
  C10      1.0000 0.50177  0.13046  0.40528  Biso   1.000  C
  H10      1.0000 0.77179  0.67591  0.47900  Biso   1.000  H
  C11      1.0000 0.77463  0.60645  0.39792  Biso   1.000  C
  O8       1.0000 0.67619  0.76530  0.42530  Biso   1.000  O
  C12      1.0000 0.74842  0.38707  0.43200  Biso   1.000  C
  C13      1.0000 0.23992  0.43500  0.27296  Biso   1.000  C
  H11      1.0000 0.25163  0.88975  0.32482  Biso   1.000  H
  H12      1.0000 0.33919  0.88627  0.37361  Biso   1.000  H
  H13      1.0000 0.24944  0.83250  0.38640  Biso   1.000  H
  H14      1.0000 0.47401  0.04944  0.39832  Biso   1.000  H
  H15      1.0000 0.56394  0.12022  0.42341  Biso   1.000  H
  H16      1.0000 0.49708  0.17426  0.36888  Biso   1.000  H
  H17      1.0000 0.72800  0.59601  0.35500  Biso   1.000  H
  C14      1.0000 0.81490  0.48012  0.41422  Biso   1.000  C
  O9       1.0000 0.84038  0.69490  0.39061  Biso   1.000  O
  C15      1.0000 0.71807  0.88260  0.44128  Biso   1.000  C
  H18      1.0000 0.69698  0.36705  0.39801  Biso   1.000  H
  C16      1.0000 0.78830  0.26422  0.45460  Biso   1.000  C
  C17      1.0000 0.23780  0.29288  0.26639  Biso   1.000  C
  C18      1.0000 0.23753  0.49826  0.21479  Biso   1.000  C
  H19      1.0000 0.18800  0.46226  0.28860  Biso   1.000  H
  H20      1.0000 0.86200  0.49300  0.44899  Biso   1.000  H
  O10      1.0000 0.84418  0.43378  0.36354  Biso   1.000  O
  H21      1.0000 0.88969  0.66078  0.39661  Biso   1.000  H
  H22      1.0000 0.67753  0.94934  0.42622  Biso   1.000  H
  H23      1.0000 0.77122  0.88928  0.42538  Biso   1.000  H
  H24      1.0000 0.73387  0.88871  0.48320  Biso   1.000  H
  H25      1.0000 0.74272  0.21299  0.46682  Biso   1.000  H
  H26      1.0000 0.80901  0.22004  0.42350  Biso   1.000  H
  O11      1.0000 0.85952  0.28114  0.50168  Biso   1.000  O
  H27      1.0000 0.28502  0.26196  0.25102  Biso   1.000  H
  C19      1.0000 0.23853  0.22380  0.32281  Biso   1.000  C
  O12      1.0000 0.15723  0.25961  0.22592  Biso   1.000  O
  C20      1.0000 0.15560  0.45126  0.17060  Biso   1.000  C
  H28      1.0000 0.28997  0.47598  0.20100  Biso   1.000  H
  O13      1.0000 0.23252  0.63079  0.21891  Biso   1.000  O
  C21      1.0000 0.93648  0.40615  0.36748  Biso   1.000  C
  C22      1.0000 0.90120  0.16703  0.52332  Biso   1.000  C
  H29      1.0000 0.22992  0.13460  0.31501  Biso   1.000  H
  H30      1.0000 0.29600  0.23527  0.34922  Biso   1.000  H
  O14      1.0000 0.17062  0.26920  0.34878  Biso   1.000  O
  C23      1.0000 0.15140  0.30858  0.16911  Biso   1.000  C
  H31      1.0000 0.10299  0.47702  0.18300  Biso   1.000  H
  O15      1.0000 0.15479  0.49131  0.11243  Biso   1.000  O
  H32      1.0000 0.23080  0.65063  0.25259  Biso   1.000  H
  H33      1.0000 0.97601  0.44497  0.40598  Biso   1.000  H
  C24      1.0000 0.96549  0.46800  0.31532  Biso   1.000  C
  O16      1.0000 0.95119  0.27766  0.36752  Biso   1.000  O
  H34      1.0000 0.94971  0.18432  0.55569  Biso   1.000  H
  H35      1.0000 0.92412  0.12558  0.49279  Biso   1.000  H
  H36      1.0000 0.85823  0.11364  0.53611  Biso   1.000  H
  C25      1.0000 0.17603  0.22013  0.40550  Biso   1.000  C
  O17      1.0000 0.22117  0.26299  0.14384  Biso   1.000  O
  H37      1.0000 0.09000  0.28001  0.14502  Biso   1.000  H
  C26      1.0000 0.11599  0.61199  0.09601  Biso   1.000  C
  C27      1.0000 0.91817  0.40699  0.25930  Biso   1.000  C
  O18      1.0000 0.94948  0.59912  0.31742  Biso   1.000  O
  H38      1.0000 0.02204  0.46198  0.32202  Biso   1.000  H
  C28      1.0000 0.90509  0.21280  0.31729  Biso   1.000  C
  H39      1.0000 0.12821  0.25388  0.42188  Biso   1.000  H
  H40      1.0000 0.23249  0.24269  0.42972  Biso   1.000  H
  H41      1.0000 0.17091  0.13018  0.40340  Biso   1.000  H
  C29      1.0000 0.20139  0.16317  0.10201  Biso   1.000  C
  H42      1.0000 0.11961  0.62985  0.05620  Biso   1.000  H
  H43      1.0000 0.14811  0.67535  0.12128  Biso   1.000  H
  H44      1.0000 0.05430  0.61181  0.09951  Biso   1.000  H
  H45      1.0000 0.85396  0.43604  0.26000  Biso   1.000  H
  C30      1.0000 0.93066  0.26694  0.26210  Biso   1.000  C
  O19      1.0000 0.95015  0.45625  0.21033  Biso   1.000  O
  C31      1.0000 0.00297  0.67967  0.28939  Biso   1.000  C
  H46      1.0000 0.83996  0.22305  0.31400  Biso   1.000  H
  C32      1.0000 0.92489  0.07886  0.32500  Biso   1.000  C
  C33      1.0000 0.22758  0.20970  0.04630  Biso   1.000  C
  H47      1.0000 0.14398  0.14202  0.09299  Biso   1.000  H
  C34      1.0000 0.25200  0.04380  0.12601  Biso   1.000  C
  H48      1.0000 0.99329  0.24664  0.26201  Biso   1.000  H
  O20      1.0000 0.87446  0.21891  0.20998  Biso   1.000  O
  H49      1.0000 0.96950  0.39863  0.19311  Biso   1.000  H
  H50      1.0000 0.98521  0.76539  0.29302  Biso   1.000  H
  H51      1.0000 0.99430  0.65786  0.24870  Biso   1.000  H
  H52      1.0000 0.06494  0.66980  0.30752  Biso   1.000  H
  H53      1.0000 0.88391  0.03149  0.29552  Biso   1.000  H
  H54      1.0000 0.98536  0.06288  0.31970  Biso   1.000  H
  O21      1.0000 0.91658  0.03967  0.38001  Biso   1.000  O
  H55      1.0000 0.89845  0.05282  0.35749  Biso   1.000  H
  H56      1.0000 0.89005  0.03854  0.29039  Biso   1.000  H
  O22      1.0000 0.00803  0.02228  0.33428  Biso   1.000  O
  C35      1.0000 0.22162  0.10274  0.00272  Biso   1.000  C
  H57      1.0000 0.28802  0.23404  0.05199  Biso   1.000  H
  O23      1.0000 0.17241  0.31027  0.02116  Biso   1.000  O
  H58      1.0000 0.31541  0.06504  0.13972  Biso   1.000  H
  C36      1.0000 0.21838  0.98430  0.17559  Biso   1.000  C
  O24      1.0000 0.24521  0.95112  0.08081  Biso   1.000  O
  C37      1.0000 0.91097  0.13093  0.17590  Biso   1.000  C
  C38      1.0000 0.97683  0.94295  0.40292  Biso   1.000  C
  C39      1.0000 0.05100  0.98496  0.39109  Biso   1.000  C
  C40      1.0000 0.27682  0.99201  0.03110  Biso   1.000  C
  H59      1.0000 0.15609  0.08196  0.99102  Biso   1.000  H
  O25      1.0000 0.24935  0.14268  0.95147  Biso   1.000  O
  H60      1.0000 0.13542  0.32550  0.04130  Biso   1.000  H
  H61      1.0000 0.23170  0.03873  0.20958  Biso   1.000  H
  H62      1.0000 0.24903  0.90497  0.18571  Biso   1.000  H
  O26      1.0000 0.12547  0.96315  0.16048  Biso   1.000  O
  C41      1.0000 0.88638  0.16994  0.11200  Biso   1.000  C
  O27      1.0000 0.87936  0.00968  0.18265  Biso   1.000  O
  H63      1.0000 0.97635  0.13131  0.18838  Biso   1.000  H
  H64      1.0000 0.96710  0.91888  0.44080  Biso   1.000  H
  H65      1.0000 0.96711  0.87170  0.37712  Biso   1.000  H
  H66      1.0000 0.03730  0.97218  0.40642  Biso   1.000  H
  H67      1.0000 0.01626  0.92076  0.40502  Biso   1.000  H
  H68      1.0000 0.10944  0.95206  0.38999  Biso   1.000  H
  H69      1.0000 0.05702  0.05583  0.41702  Biso   1.000  H
  O28      1.0000 0.36666  0.03252  0.04603  Biso   1.000  O
  H70      1.0000 0.27300  0.92105  0.00399  Biso   1.000  H
  C42      1.0000 0.20972  0.07397  0.89970  Biso   1.000  C
  C43      1.0000 0.09290  0.90413  0.20568  Biso   1.000  C
  C44      1.0000 0.78719  0.15706  0.08751  Biso   1.000  C
  H71      1.0000 0.91400  0.12398  0.09102  Biso   1.000  H
  O29      1.0000 0.91900  0.29448  0.10827  Biso   1.000  O
  C45      1.0000 0.78387  0.99662  0.16412  Biso   1.000  C
  C46      1.0000 0.43652  0.95235  0.03342  Biso   1.000  C
  H72      1.0000 0.22525  0.98665  0.90509  Biso   1.000  H
  H73      1.0000 0.23167  0.10631  0.86689  Biso   1.000  H
  H74      1.0000 0.14577  0.08290  0.89260  Biso   1.000  H
  H75      1.0000 0.02952  0.89087  0.19351  Biso   1.000  H
  H76      1.0000 0.10442  0.95639  0.23998  Biso   1.000  H
  H77      1.0000 0.12243  0.82470  0.21449  Biso   1.000  H
  C47      1.0000 0.75820  0.02547  0.09969  Biso   1.000  C
  H78      1.0000 0.74896  0.21600  0.10998  Biso   1.000  H
  O30      1.0000 0.76850  0.18479  0.02694  Biso   1.000  O
  C48      1.0000 0.94308  0.32541  0.05418  Biso   1.000  C
  H79      1.0000 0.75428  0.05687  0.18571  Biso   1.000  H
  C49      1.0000 0.76105  0.86606  0.17989  Biso   1.000  C
  H80      1.0000 0.41000  0.87753  0.01222  Biso   1.000  H
  C50      1.0000 0.49952  0.91334  0.09049  Biso   1.000  C
  C51      1.0000 0.48596  0.02792  0.99540  Biso   1.000  C
  O31      1.0000 0.66259  0.02171  0.07888  Biso   1.000  O
  H81      1.0000 0.78497  0.96099  0.07998  Biso   1.000  H
  H82      1.0000 0.70997  0.15800  0.00701  Biso   1.000  H
  H83      1.0000 0.96419  0.41056  0.05558  Biso   1.000  H
  H84      1.0000 0.89176  0.31657  0.02291  Biso   1.000  H
  H85      1.0000 0.98977  0.26986  0.04761  Biso   1.000  H
  H86      1.0000 0.70128  0.84453  0.15869  Biso   1.000  H
  H87      1.0000 0.80296  0.80703  0.16872  Biso   1.000  H
  O32      1.0000 0.76482  0.85807  0.23950  Biso   1.000  O
  H88      1.0000 0.52200  0.98703  0.11099  Biso   1.000  H
  C52      1.0000 0.45800  0.82780  0.12829  Biso   1.000  C
  O33      1.0000 0.57377  0.84547  0.07599  Biso   1.000  O
  H89      1.0000 0.50499  0.10302  0.01699  Biso   1.000  H
  C53      1.0000 0.57223  0.96146  0.98760  Biso   1.000  C
  O34      1.0000 0.43193  0.04963  0.94013  Biso   1.000  O
  C54      1.0000 0.62597  0.91710  0.04551  Biso   1.000  C
  C55      1.0000 0.72476  0.75204  0.25492  Biso   1.000  C
  H90      1.0000 0.39466  0.84688  0.12378  Biso   1.000  H
  H91      1.0000 0.46375  0.74124  0.11668  Biso   1.000  H
  O35      1.0000 0.50150  0.84453  0.18720  Biso   1.000  O
  H92      1.0000 0.55806  0.88702  0.96601  Biso   1.000  H
  O36      1.0000 0.62465  0.04371  0.96058  Biso   1.000  O
  H93      1.0000 0.46013  0.09052  0.92020  Biso   1.000  H
  H94      1.0000 0.67400  0.85901  0.04301  Biso   1.000  H
  H95      1.0000 0.73016  0.74979  0.29670  Biso   1.000  H
  H96      1.0000 0.75371  0.67911  0.24278  Biso   1.000  H
  H97      1.0000 0.66262  0.75148  0.23621  Biso   1.000  H
  C56      1.0000 0.46942  0.77300  0.22640  Biso   1.000  C
  C57      1.0000 0.63182  0.01203  0.90360  Biso   1.000  C
  H98      1.0000 0.50127  0.79237  0.26530  Biso   1.000  H
  H99      1.0000 0.47731  0.68568  0.21830  Biso   1.000  H
  H100     1.0000 0.40677  0.79021  0.22329  Biso   1.000  H
  H101     1.0000 0.65835  0.93007  0.90368  Biso   1.000  H
  H102     1.0000 0.66875  0.07266  0.88932  Biso   1.000  H
  H103     1.0000 0.57322  0.01128  0.87881  Biso   1.000  H
  O37      1.0000 0.54074  0.69875  0.55810  Biso   1.000  O
  C58      1.0000 0.50488  0.82113  0.54478  Biso   1.000  C
  C59      1.0000 0.49820  0.63051  0.59472  Biso   1.000  C
  C60      1.0000 0.54254  0.91747  0.59112  Biso   1.000  C
  H104     1.0000 0.44030  0.81775  0.54071  Biso   1.000  H
  H105     1.0000 0.51752  0.84773  0.50760  Biso   1.000  H
  H106     1.0000 0.52605  0.54939  0.60172  Biso   1.000  H
  H107     1.0000 0.43610  0.62017  0.57658  Biso   1.000  H
  H108     1.0000 0.50290  0.67431  0.63111  Biso   1.000  H
  C61      1.0000 0.49783  0.04418  0.57991  Biso   1.000  C
  H109     1.0000 0.53204  0.89397  0.62800  Biso   1.000  H
  O38      1.0000 0.63601  0.92819  0.58937  Biso   1.000  O
  O39      1.0000 0.40771  0.03938  0.58836  Biso   1.000  O
  C62      1.0000 0.54582  0.14287  0.62130  Biso   1.000  C
  H110     1.0000 0.49802  0.06204  0.54299  Biso   1.000  H
  C63      1.0000 0.68329  0.01278  0.63081  Biso   1.000  C
  C64      1.0000 0.33641  0.05809  0.53979  Biso   1.000  C
  C65      1.0000 0.64491  0.14390  0.61990  Biso   1.000  C
  H111     1.0000 0.53802  0.11900  0.66199  Biso   1.000  H
  O40      1.0000 0.51044  0.26516  0.60698  Biso   1.000  O
  O41      1.0000 0.67922  0.97650  0.68845  Biso   1.000  O
  H112     1.0000 0.75200  0.01504  0.62498  Biso   1.000  H
  O42      1.0000 0.29004  0.94370  0.52284  Biso   1.000  O
  C66      1.0000 0.27335  0.15528  0.55608  Biso   1.000  C
  H113     1.0000 0.35698  0.08206  0.50698  Biso   1.000  H
  H114     1.0000 0.65190  0.17163  0.58101  Biso   1.000  H
  O43      1.0000 0.69442  0.22540  0.66239  Biso   1.000  O
  H115     1.0000 0.45004  0.26600  0.61000  Biso   1.000  H
  C67      1.0000 0.76012  0.93505  0.72703  Biso   1.000  C
  C68      1.0000 0.25162  0.88711  0.56800  Biso   1.000  C
  C69      1.0000 0.22542  0.10640  0.60212  Biso   1.000  C
  H116     1.0000 0.22825  0.17596  0.52100  Biso   1.000  H
  O44      1.0000 0.32385  0.26534  0.57470  Biso   1.000  O
  C70      1.0000 0.71509  0.34242  0.64289  Biso   1.000  C
  C71      1.0000 0.76251  0.99831  0.78520  Biso   1.000  C
  H117     1.0000 0.81204  0.96231  0.71140  Biso   1.000  H
  C72      1.0000 0.76224  0.79293  0.73360  Biso   1.000  C
  C73      1.0000 0.21174  0.76417  0.54540  Biso   1.000  C
  C74      1.0000 0.18516  0.98007  0.58582  Biso   1.000  C
  H118     1.0000 0.30300  0.86700  0.60199  Biso   1.000  H
  H119     1.0000 0.27204  0.09597  0.64500  Biso   1.000  H
  O45      1.0000 0.15960  0.19494  0.60939  Biso   1.000  O
  C75      1.0000 0.28191  0.38265  0.55871  Biso   1.000  C
  H120     1.0000 0.74843  0.38970  0.67522  Biso   1.000  H
  H121     1.0000 0.66078  0.38631  0.62638  Biso   1.000  H
  H122     1.0000 0.75060  0.33255  0.61359  Biso   1.000  H
  C76      1.0000 0.84444  0.95131  0.82939  Biso   1.000  C
  H123     1.0000 0.71001  0.97603  0.79900  Biso   1.000  H
  O46      1.0000 0.76753  0.13084  0.78113  Biso   1.000  O
  H124     1.0000 0.71504  0.76201  0.74902  Biso   1.000  H
  C77      1.0000 0.76151  0.72385  0.67719  Biso   1.000  C
  O47      1.0000 0.84281  0.75956  0.77408  Biso   1.000  O
  O48      1.0000 0.14052  0.78109  0.49831  Biso   1.000  O
  H125     1.0000 0.25733  0.71304  0.53322  Biso   1.000  H
  H126     1.0000 0.19103  0.71999  0.57649  Biso   1.000  H
  H127     1.0000 0.13805  0.99304  0.55100  Biso   1.000  H
  O49      1.0000 0.15580  0.93383  0.63646  Biso   1.000  O
  H128     1.0000 0.11035  0.16082  0.60339  Biso   1.000  H
  H129     1.0000 0.32253  0.44929  0.57382  Biso   1.000  H
  H130     1.0000 0.22882  0.38932  0.57461  Biso   1.000  H
  H131     1.0000 0.26610  0.38876  0.51680  Biso   1.000  H
  C78      1.0000 0.84864  0.80863  0.83088  Biso   1.000  C
  H132     1.0000 0.89698  0.97697  0.81700  Biso   1.000  H
  O50      1.0000 0.84519  0.99135  0.88756  Biso   1.000  O
  H133     1.0000 0.76925  0.15058  0.74740  Biso   1.000  H
  H134     1.0000 0.77012  0.63465  0.68499  Biso   1.000  H
  H135     1.0000 0.70399  0.73531  0.65082  Biso   1.000  H
  O51      1.0000 0.82942  0.76925  0.65122  Biso   1.000  O
  C79      1.0000 0.09886  0.66698  0.47672  Biso   1.000  C
  C80      1.0000 0.06357  0.90610  0.63251  Biso   1.000  C
  O52      1.0000 0.77881  0.76304  0.85616  Biso   1.000  O
  H136     1.0000 0.91000  0.77996  0.85502  Biso   1.000  H
  C81      1.0000 0.88399  0.11204  0.90399  Biso   1.000  C
  C82      1.0000 0.82401  0.72009  0.59450  Biso   1.000  C
  H137     1.0000 0.05033  0.68427  0.44431  Biso   1.000  H
  H138     1.0000 0.07592  0.62562  0.50720  Biso   1.000  H
  H139     1.0000 0.14182  0.61359  0.46388  Biso   1.000  H
  H140     1.0000 0.02403  0.94501  0.59401  Biso   1.000  H
  C83      1.0000 0.03457  0.96804  0.68472  Biso   1.000  C
  O53      1.0000 0.04886  0.77770  0.63247  Biso   1.000  O
  C84      1.0000 0.79859  0.66322  0.89799  Biso   1.000  C
  H141     1.0000 0.88044  0.12981  0.94380  Biso   1.000  H
  H142     1.0000 0.85193  0.17530  0.87871  Biso   1.000  H
  H143     1.0000 0.94574  0.11185  0.90048  Biso   1.000  H
  H144     1.0000 0.87183  0.75392  0.57811  Biso   1.000  H
  H145     1.0000 0.76750  0.74274  0.57032  Biso   1.000  H
  H146     1.0000 0.82913  0.63023  0.59660  Biso   1.000  H
  C85      1.0000 0.08181  0.90704  0.74070  Biso   1.000  C
  H147     1.0000 0.97795  0.96203  0.67802  Biso   1.000  H
  O54      1.0000 0.05051  0.09907  0.68262  Biso   1.000  O
  C86      1.0000 0.09495  0.71285  0.68271  Biso   1.000  C
  C87      1.0000 0.77239  0.70975  0.95370  Biso   1.000  C
  H148     1.0000 0.85600  0.64198  0.90701  Biso   1.000  H
  C88      1.0000 0.74804  0.54385  0.87398  Biso   1.000  C
  H149     1.0000 0.14601  0.93599  0.74000  Biso   1.000  H
  C89      1.0000 0.06932  0.76690  0.73790  Biso   1.000  C
  O55      1.0000 0.04983  0.95620  0.78967  Biso   1.000  O
  C90      1.0000 0.99714  0.17972  0.71061  Biso   1.000  C
  H150     1.0000 0.16002  0.72300  0.68599  Biso   1.000  H
  C91      1.0000 0.07516  0.57891  0.67500  Biso   1.000  C
  C92      1.0000 0.77843  0.60269  0.99732  Biso   1.000  C
  H151     1.0000 0.71202  0.73400  0.94801  Biso   1.000  H
  O56      1.0000 0.82763  0.81032  0.97884  Biso   1.000  O
  H152     1.0000 0.68465  0.56500  0.86032  Biso   1.000  H
  C93      1.0000 0.78160  0.48435  0.82440  Biso   1.000  C
  O57      1.0000 0.75484  0.45108  0.91918  Biso   1.000  O
  H153     1.0000 0.00675  0.74659  0.73798  Biso   1.000  H
  O58      1.0000 0.12552  0.71886  0.79002  Biso   1.000  O
  H154     1.0000 0.03054  0.89858  0.80688  Biso   1.000  H
  H155     1.0000 0.93512  0.16985  0.69252  Biso   1.000  H
  H156     1.0000 0.01484  0.26544  0.70702  Biso   1.000  H
  H157     1.0000 0.00574  0.15791  0.75130  Biso   1.000  H
  H158     1.0000 0.11615  0.53153  0.70452  Biso   1.000  H
  H159     1.0000 0.01462  0.56293  0.68030  Biso   1.000  H
  O59      1.0000 0.08340  0.53971  0.61999  Biso   1.000  O
  H160     1.0000 0.10166  0.55278  0.64250  Biso   1.000  H
  H161     1.0000 0.11006  0.53849  0.70960  Biso   1.000  H
  O60      1.0000 0.99201  0.52232  0.66571  Biso   1.000  O
  C94      1.0000 0.72322  0.49196  0.96890  Biso   1.000  C
  H162     1.0000 0.84396  0.58201  0.00902  Biso   1.000  H
  O61      1.0000 0.75070  0.64273  0.04853  Biso   1.000  O
  H163     1.0000 0.86463  0.82555  0.95869  Biso   1.000  H
  H164     1.0000 0.75101  0.40502  0.81428  Biso   1.000  H
  H165     1.0000 0.76834  0.53868  0.79041  Biso   1.000  H
  O62      1.0000 0.87450  0.46320  0.83951  Biso   1.000  O
  C95      1.0000 0.08901  0.63089  0.82410  Biso   1.000  C
  C96      1.0000 0.02322  0.44290  0.59708  Biso   1.000  C
  C97      1.0000 0.94898  0.48501  0.60891  Biso   1.000  C
  O63      1.0000 0.63332  0.53247  0.95396  Biso   1.000  O
  H166     1.0000 0.72705  0.42100  0.99601  Biso   1.000  H
  C98      1.0000 0.79025  0.57402  0.10030  Biso   1.000  C
  C99      1.0000 0.90714  0.40408  0.79431  Biso   1.000  C
  H167     1.0000 0.02363  0.63126  0.81161  Biso   1.000  H
  C100     1.0000 0.11366  0.66989  0.88800  Biso   1.000  C
  O64      1.0000 0.12062  0.50973  0.81735  Biso   1.000  O
  H168     1.0000 0.03295  0.41893  0.55919  Biso   1.000  H
  H169     1.0000 0.03294  0.37175  0.62292  Biso   1.000  H
  H170     1.0000 0.96276  0.47222  0.59362  Biso   1.000  H
  H171     1.0000 0.98380  0.42081  0.59502  Biso   1.000  H
  H172     1.0000 0.89060  0.45211  0.61000  Biso   1.000  H
  H173     1.0000 0.94297  0.55579  0.58302  Biso   1.000  H
  C101     1.0000 0.56354  0.45230  0.96662  Biso   1.000  C
  H174     1.0000 0.76837  0.60626  0.13310  Biso   1.000  H
  H175     1.0000 0.85428  0.58295  0.10739  Biso   1.000  H
  H176     1.0000 0.77479  0.48670  0.09491  Biso   1.000  H
  H177     1.0000 0.97052  0.39092  0.80649  Biso   1.000  H
  H178     1.0000 0.89562  0.45643  0.76002  Biso   1.000  H
  H179     1.0000 0.87761  0.32475  0.78551  Biso   1.000  H
  H180     1.0000 0.08606  0.62402  0.90902  Biso   1.000  H
  C102     1.0000 0.21285  0.65711  0.91248  Biso   1.000  C
  O65      1.0000 0.08104  0.79453  0.89172  Biso   1.000  O
  C103     1.0000 0.21612  0.49657  0.83592  Biso   1.000  C
  C104     1.0000 0.50053  0.41329  0.90950  Biso   1.000  C
  C105     1.0000 0.51408  0.52787  0.00459  Biso   1.000  C
  H181     1.0000 0.59005  0.37748  0.98782  Biso   1.000  H
  H182     1.0000 0.25102  0.71604  0.89001  Biso   1.000  H
  C106     1.0000 0.24184  0.52552  0.90031  Biso   1.000  C
  O66      1.0000 0.23156  0.68484  0.97310  Biso   1.000  O
  C107     1.0000 0.05696  0.82545  0.94582  Biso   1.000  C
  H183     1.0000 0.24576  0.55691  0.81428  Biso   1.000  H
  C108     1.0000 0.23892  0.36611  0.82011  Biso   1.000  C
  O67      1.0000 0.42627  0.34552  0.92400  Biso   1.000  O
  H184     1.0000 0.47804  0.48698  0.88901  Biso   1.000  H
  C109     1.0000 0.54204  0.32776  0.87171  Biso   1.000  C
  C110     1.0000 0.42775  0.46151  0.01239  Biso   1.000  C
  H185     1.0000 0.49505  0.60297  0.98300  Biso   1.000  H
  O68      1.0000 0.56806  0.54958  0.05991  Biso   1.000  O
  H186     1.0000 0.21507  0.46104  0.92002  Biso   1.000  H
  O69      1.0000 0.33745  0.52167  0.92111  Biso   1.000  O
  H187     1.0000 0.29007  0.65805  0.99299  Biso   1.000  H
  H188     1.0000 0.03586  0.91061  0.94441  Biso   1.000  H
  H189     1.0000 0.10821  0.81662  0.97709  Biso   1.000  H
  H190     1.0000 0.01027  0.76990  0.95238  Biso   1.000  H
  H191     1.0000 0.29876  0.34449  0.84131  Biso   1.000  H
  H192     1.0000 0.19703  0.30698  0.83132  Biso   1.000  H
  O70      1.0000 0.23523  0.35812  0.76050  Biso   1.000  O
  C111     1.0000 0.37401  0.41714  0.95449  Biso   1.000  C
  H193     1.0000 0.60532  0.34693  0.87622  Biso   1.000  H
  H194     1.0000 0.53622  0.24119  0.88331  Biso   1.000  H
  O71      1.0000 0.49854  0.34449  0.81279  Biso   1.000  O
  H195     1.0000 0.44199  0.38697  0.03398  Biso   1.000  H
  O72      1.0000 0.37539  0.54366  0.03942  Biso   1.000  O
  H196     1.0000 0.53984  0.59047  0.07980  Biso   1.000  H
  C112     1.0000 0.27523  0.25200  0.74512  Biso   1.000  C
  H197     1.0000 0.32604  0.35896  0.95698  Biso   1.000  H
  C113     1.0000 0.53062  0.27296  0.77359  Biso   1.000  C
  C114     1.0000 0.36816  0.51198  0.09640  Biso   1.000  C
  H198     1.0000 0.26981  0.24984  0.70329  Biso   1.000  H
  H199     1.0000 0.24634  0.17906  0.75721  Biso   1.000  H
  H200     1.0000 0.33742  0.25153  0.76378  Biso   1.000  H
  H201     1.0000 0.49871  0.29241  0.73470  Biso   1.000  H
  H202     1.0000 0.52273  0.18573  0.78170  Biso   1.000  H
  H203     1.0000 0.59320  0.29016  0.77670  Biso   1.000  H
  H204     1.0000 0.33131  0.57270  0.11072  Biso   1.000  H
  H205     1.0000 0.42676  0.51133  0.12119  Biso   1.000  H
  H206     1.0000 0.34169  0.43012  0.09631  Biso   1.000  H
