data_image0
_cell_length_a       11.892
_cell_length_b       15.199
_cell_length_c       14.957
_cell_angle_alpha    90
_cell_angle_beta     90.97
_cell_angle_gamma    90

_symmetry_space_group_name_H-M    "P 1"
_symmetry_int_tables_number       1

loop_
  _symmetry_equiv_pos_as_xyz
  'x, y, z'

loop_
  _atom_site_label
  _atom_site_occupancy
  _atom_site_fract_x
  _atom_site_fract_y
  _atom_site_fract_z
  _atom_site_thermal_displace_type
  _atom_site_B_iso_or_equiv
  _atom_site_type_symbol
  C1       1.0000 0.21155  0.58280  0.27951  Biso   1.000  C
  C2       1.0000 0.12094  0.71801  0.21023  Biso   1.000  C
  C3       1.0000 0.25103  0.63807  0.12738  Biso   1.000  C
  C4       1.0000 0.25103  0.63807  0.12732  Biso   1.000  C
  N1       1.0000 0.12143  0.51951  0.29255  Biso   1.000  N
  H1       1.0000 0.22071  0.61866  0.33441  Biso   1.000  H
  H2       1.0000 0.28275  0.55056  0.27028  Biso   1.000  H
  N2       1.0000 0.19136  0.64096  0.20408  Biso   1.000  N
  N3       1.0000 0.00210  0.69820  0.20903  Biso   1.000  N
  H3       1.0000 0.14282  0.75590  0.26232  Biso   1.000  H
  C5       1.0000 0.13853  0.76545  0.12003  Biso   1.000  C
  N4       1.0000 0.22248  0.71169  0.07770  Biso   1.000  N
  O1       1.0000 0.31944  0.58260  0.10565  Biso   1.000  O
  O2       1.0000 0.31944  0.58260  0.10558  Biso   1.000  O
  C6       1.0000 0.14467  0.43154  0.28619  Biso   1.000  C
  C7       1.0000 0.02623  0.53517  0.35106  Biso   1.000  C
  C8       1.0000 0.94176  0.67879  0.29007  Biso   1.000  C
  C9       1.0000 0.94168  0.67879  0.29007  Biso   1.000  C
  C10      1.0000 0.94849  0.72728  0.13220  Biso   1.000  C
  N5       1.0000 0.02830  0.76209  0.07696  Biso   1.000  N
  H4       1.0000 0.16504  0.82729  0.12879  Biso   1.000  H
  C11      1.0000 0.28526  0.74130  0.00140  Biso   1.000  C
  N6       1.0000 0.05810  0.38470  0.32351  Biso   1.000  N
  O3       1.0000 0.22824  0.39937  0.25370  Biso   1.000  O
  C12      1.0000 0.97215  0.44240  0.35875  Biso   1.000  C
  H5       1.0000 0.05113  0.55846  0.41070  Biso   1.000  H
  N7       1.0000 0.93509  0.58701  0.31234  Biso   1.000  N
  H6       1.0000 0.97883  0.71031  0.34049  Biso   1.000  H
  H7       1.0000 0.86435  0.70228  0.28359  Biso   1.000  H
  O4       1.0000 0.84749  0.72261  0.11575  Biso   1.000  O
  C13      1.0000 0.00100  0.81532  0.99940  Biso   1.000  C
  N8       1.0000 0.22887  0.72814  0.91615  Biso   1.000  N
  H8       1.0000 0.35824  0.70978  0.00087  Biso   1.000  H
  H9       1.0000 0.30165  0.80479  0.00869  Biso   1.000  H
  C14      1.0000 0.04643  0.29147  0.30880  Biso   1.000  C
  H10      1.0000 0.95458  0.42759  0.42207  Biso   1.000  H
  N9       1.0000 0.87024  0.45023  0.30371  Biso   1.000  N
  H11      1.0000 0.95450  0.42759  0.42207  Biso   1.000  H
  C15      1.0000 0.84695  0.53635  0.28392  Biso   1.000  C
  H12      1.0000 0.91889  0.82598  0.99759  Biso   1.000  H
  N10      1.0000 0.03359  0.77630  0.91501  Biso   1.000  N
  H13      1.0000 0.03864  0.87308  0.00588  Biso   1.000  H
  H14      1.0000 0.03855  0.87308  0.00588  Biso   1.000  H
  C16      1.0000 0.25594  0.66116  0.86011  Biso   1.000  C
  C17      1.0000 0.14472  0.78650  0.87770  Biso   1.000  C
  N11      1.0000 0.98933  0.26765  0.22568  Biso   1.000  N
  H15      1.0000 0.00437  0.26587  0.35921  Biso   1.000  H
  H16      1.0000 0.12221  0.26462  0.30946  Biso   1.000  H
  H17      1.0000 0.00428  0.26587  0.35921  Biso   1.000  H
  C18      1.0000 0.78500  0.38253  0.29709  Biso   1.000  C
  C19      1.0000 0.78508  0.38253  0.29709  Biso   1.000  C
  O5       1.0000 0.76088  0.56273  0.24641  Biso   1.000  O
  C20      1.0000 0.95504  0.75301  0.85109  Biso   1.000  C
  N12      1.0000 0.20135  0.67360  0.78054  Biso   1.000  N
  O6       1.0000 0.32140  0.60083  0.87797  Biso   1.000  O
  O7       1.0000 0.32132  0.60083  0.87797  Biso   1.000  O
  H18      1.0000 0.17014  0.84927  0.87857  Biso   1.000  H
  C21      1.0000 0.13004  0.75097  0.78074  Biso   1.000  C
  C22      1.0000 0.87004  0.24903  0.21926  Biso   1.000  C
  C23      1.0000 0.04505  0.24692  0.14891  Biso   1.000  C
  C24      1.0000 0.04496  0.24692  0.14891  Biso   1.000  C
  H19      1.0000 0.70992  0.41062  0.29382  Biso   1.000  H
  N13      1.0000 0.79873  0.32640  0.21939  Biso   1.000  N
  H20      1.0000 0.78818  0.34581  0.35179  Biso   1.000  H
  O8       1.0000 0.85350  0.75189  0.86125  Biso   1.000  O
  N14      1.0000 0.01075  0.73229  0.77432  Biso   1.000  N
  C25      1.0000 0.21500  0.61747  0.70291  Biso   1.000  C
  C26      1.0000 0.21500  0.61747  0.70284  Biso   1.000  C
  H21      1.0000 0.15380  0.79518  0.73527  Biso   1.000  H
  C27      1.0000 0.85528  0.21350  0.12223  Biso   1.000  C
  C28      1.0000 0.85536  0.21350  0.12223  Biso   1.000  C
  H22      1.0000 0.84637  0.20482  0.26466  Biso   1.000  H
  H23      1.0000 0.84628  0.20482  0.26466  Biso   1.000  H
  N15      1.0000 0.96649  0.22370  0.08499  Biso   1.000  N
  N16      1.0000 0.96641  0.22370  0.08499  Biso   1.000  N
  O9       1.0000 0.14650  0.24811  0.13875  Biso   1.000  O
  C29      1.0000 0.74415  0.33884  0.13989  Biso   1.000  C
  C30      1.0000 0.74406  0.33884  0.13989  Biso   1.000  C
  C31      1.0000 0.95365  0.70847  0.69114  Biso   1.000  C
  H24      1.0000 0.21182  0.65419  0.64821  Biso   1.000  H
  H25      1.0000 0.29016  0.58938  0.70618  Biso   1.000  H
  N17      1.0000 0.12984  0.54977  0.69629  Biso   1.000  N
  N18      1.0000 0.77121  0.27186  0.08385  Biso   1.000  N
  H26      1.0000 0.82995  0.15067  0.12137  Biso   1.000  H
  N19      1.0000 0.77121  0.27186  0.08379  Biso   1.000  N
  H27      1.0000 0.82986  0.15067  0.12143  Biso   1.000  H
  C32      1.0000 0.99909  0.18462  0.00060  Biso   1.000  C
  O10      1.0000 0.67868  0.39917  0.12203  Biso   1.000  O
  H28      1.0000 0.87787  0.73538  0.69047  Biso   1.000  H
  H29      1.0000 0.99572  0.73406  0.64079  Biso   1.000  H
  N20      1.0000 0.94199  0.61530  0.67649  Biso   1.000  N
  C33      1.0000 0.15314  0.46358  0.71601  Biso   1.000  C
  C34      1.0000 0.02793  0.55760  0.64125  Biso   1.000  C
  C35      1.0000 0.71482  0.25870  0.99853  Biso   1.000  C
  C36      1.0000 0.71474  0.25870  0.99860  Biso   1.000  C
  H30      1.0000 0.08120  0.17402  0.00241  Biso   1.000  H
  H31      1.0000 0.96145  0.12692  0.99412  Biso   1.000  H
  N21      1.0000 0.97179  0.23784  0.92297  Biso   1.000  N
  H32      1.0000 0.96153  0.12692  0.99412  Biso   1.000  H
  C37      1.0000 0.85549  0.56846  0.71381  Biso   1.000  C
  C38      1.0000 0.85541  0.56846  0.71381  Biso   1.000  C
  N22      1.0000 0.06499  0.41299  0.68766  Biso   1.000  N
  O11      1.0000 0.23920  0.43727  0.75359  Biso   1.000  O
  C39      1.0000 0.97386  0.46483  0.64894  Biso   1.000  C
  H33      1.0000 0.04559  0.57241  0.57786  Biso   1.000  H
  H34      1.0000 0.04550  0.57241  0.57786  Biso   1.000  H
  H35      1.0000 0.64193  0.29022  0.99913  Biso   1.000  H
  N23      1.0000 0.77761  0.28824  0.92230  Biso   1.000  N
  H36      1.0000 0.69844  0.19521  0.99131  Biso   1.000  H
  H37      1.0000 0.64192  0.29022  0.99906  Biso   1.000  H
  H38      1.0000 0.64184  0.29022  0.99913  Biso   1.000  H
  H39      1.0000 0.64184  0.29022  0.99906  Biso   1.000  H
  C40      1.0000 0.86155  0.23455  0.87997  Biso   1.000  C
  C41      1.0000 0.05159  0.27272  0.86780  Biso   1.000  C
  N24      1.0000 0.87857  0.48049  0.70745  Biso   1.000  N
  N25      1.0000 0.87865  0.48049  0.70739  Biso   1.000  N
  N26      1.0000 0.87857  0.48049  0.70739  Biso   1.000  N
  O12      1.0000 0.77184  0.60063  0.74630  Biso   1.000  O
  C42      1.0000 0.05832  0.32114  0.70993  Biso   1.000  C
  H40      1.0000 0.94896  0.44148  0.58930  Biso   1.000  H
  C43      1.0000 0.74905  0.36187  0.87262  Biso   1.000  C
  C44      1.0000 0.87914  0.28199  0.78977  Biso   1.000  C
  H41      1.0000 0.83505  0.17271  0.87121  Biso   1.000  H
  N27      1.0000 0.99799  0.30180  0.79090  Biso   1.000  N
  O13      1.0000 0.15260  0.27739  0.88425  Biso   1.000  O
  C45      1.0000 0.78853  0.41713  0.72049  Biso   1.000  C
  H42      1.0000 0.02126  0.28969  0.65951  Biso   1.000  H
  H43      1.0000 0.13574  0.29772  0.71641  Biso   1.000  H
  N28      1.0000 0.80864  0.35897  0.79592  Biso   1.000  N
  O14      1.0000 0.68065  0.41733  0.89435  Biso   1.000  O
  N29      1.0000 0.80872  0.35897  0.79592  Biso   1.000  N
  H44      1.0000 0.85726  0.24410  0.73768  Biso   1.000  H
  H45      1.0000 0.77937  0.38128  0.66559  Biso   1.000  H
  H46      1.0000 0.71734  0.44937  0.72972  Biso   1.000  H
  O15      1.0000 0.35347  0.74808  0.36122  Biso   1.000  O
  C46      1.0000 0.45500  0.74696  0.35112  Biso   1.000  C
  N30      1.0000 0.51072  0.76768  0.27436  Biso   1.000  N
  N31      1.0000 0.53356  0.72367  0.41498  Biso   1.000  N
  O16      1.0000 0.35347  0.74814  0.36122  Biso   1.000  O
  C47      1.0000 0.45362  0.79150  0.19118  Biso   1.000  C
  C48      1.0000 0.63001  0.74900  0.28078  Biso   1.000  C
  C49      1.0000 0.64469  0.71347  0.37774  Biso   1.000  C
  C50      1.0000 0.50096  0.68465  0.49937  Biso   1.000  C
  H47      1.0000 0.37784  0.76459  0.19051  Biso   1.000  H
  H48      1.0000 0.49568  0.76591  0.14082  Biso   1.000  H
  N32      1.0000 0.44195  0.88466  0.17646  Biso   1.000  N
  H49      1.0000 0.65368  0.70478  0.23531  Biso   1.000  H
  N33      1.0000 0.70132  0.82637  0.28058  Biso   1.000  N
  H50      1.0000 0.67010  0.65070  0.37861  Biso   1.000  H
  N34      1.0000 0.72884  0.77183  0.41619  Biso   1.000  N
  H51      1.0000 0.53861  0.62688  0.50592  Biso   1.000  H
  H52      1.0000 0.41885  0.67399  0.49763  Biso   1.000  H
  N35      1.0000 0.52835  0.73788  0.57700  Biso   1.000  N
  C51      1.0000 0.35538  0.93157  0.21384  Biso   1.000  C
  C52      1.0000 0.52790  0.94236  0.14129  Biso   1.000  C
  C53      1.0000 0.35538  0.93151  0.21384  Biso   1.000  C
  C54      1.0000 0.71505  0.88249  0.20288  Biso   1.000  C
  C55      1.0000 0.75590  0.83881  0.36008  Biso   1.000  C
  C56      1.0000 0.78532  0.75867  0.50144  Biso   1.000  C
  C57      1.0000 0.63858  0.73452  0.62000  Biso   1.000  C
  C58      1.0000 0.44854  0.77268  0.63217  Biso   1.000  C
  H53      1.0000 0.54547  0.92756  0.07790  Biso   1.000  H
  N36      1.0000 0.62981  0.95019  0.19626  Biso   1.000  N
  C59      1.0000 0.47382  0.03513  0.14898  Biso   1.000  C
  O17      1.0000 0.27173  0.89934  0.24627  Biso   1.000  O
  N37      1.0000 0.37853  0.01954  0.20742  Biso   1.000  N
  N38      1.0000 0.37853  0.01947  0.20742  Biso   1.000  N
  H54      1.0000 0.71178  0.84578  0.14818  Biso   1.000  H
  H55      1.0000 0.79013  0.91059  0.20622  Biso   1.000  H
  O18      1.0000 0.82137  0.89914  0.37794  Biso   1.000  O
  H56      1.0000 0.80178  0.69518  0.50873  Biso   1.000  H
  H57      1.0000 0.85821  0.79018  0.50091  Biso   1.000  H
  N39      1.0000 0.72253  0.78828  0.57767  Biso   1.000  N
  H58      1.0000 0.66509  0.67268  0.62883  Biso   1.000  H
  C60      1.0000 0.62099  0.78196  0.71020  Biso   1.000  C
  O19      1.0000 0.34754  0.77742  0.61572  Biso   1.000  O
  N40      1.0000 0.50215  0.80176  0.70907  Biso   1.000  N
  O20      1.0000 0.34754  0.77735  0.61572  Biso   1.000  O
  C61      1.0000 0.65310  0.03638  0.21605  Biso   1.000  C
  H59      1.0000 0.44892  0.05849  0.08927  Biso   1.000  H
  N41      1.0000 0.56496  0.08698  0.18763  Biso   1.000  N
  C62      1.0000 0.28850  0.08283  0.22053  Biso   1.000  C
  C63      1.0000 0.75108  0.86190  0.62735  Biso   1.000  C
  N42      1.0000 0.69150  0.85900  0.70405  Biso   1.000  N
  H60      1.0000 0.64287  0.74413  0.76229  Biso   1.000  H
  H61      1.0000 0.64287  0.74406  0.76229  Biso   1.000  H
  C64      1.0000 0.44181  0.82117  0.79011  Biso   1.000  C
  O21      1.0000 0.73917  0.06270  0.25363  Biso   1.000  O
  C65      1.0000 0.55829  0.17883  0.20990  Biso   1.000  C
  H62      1.0000 0.27934  0.11869  0.16563  Biso   1.000  H
  H63      1.0000 0.21730  0.05060  0.22969  Biso   1.000  H
  N43      1.0000 0.30861  0.14100  0.29596  Biso   1.000  N
  O22      1.0000 0.81949  0.91730  0.60562  Biso   1.000  O
  C66      1.0000 0.71160  0.91717  0.77948  Biso   1.000  C
  N44      1.0000 0.43514  0.91295  0.81231  Biso   1.000  N
  H64      1.0000 0.36440  0.79768  0.78363  Biso   1.000  H
  H65      1.0000 0.47888  0.78966  0.84053  Biso   1.000  H
  H66      1.0000 0.52122  0.21028  0.15948  Biso   1.000  H
  H67      1.0000 0.63570  0.20232  0.21638  Biso   1.000  H
  N45      1.0000 0.49795  0.19817  0.29094  Biso   1.000  N
  H68      1.0000 0.63570  0.20225  0.21638  Biso   1.000  H
  C67      1.0000 0.24902  0.13810  0.37265  Biso   1.000  C
  C68      1.0000 0.37911  0.21797  0.28981  Biso   1.000  C
  N46      1.0000 0.62157  0.98046  0.79259  Biso   1.000  N
  H69      1.0000 0.72076  0.88131  0.83438  Biso   1.000  H
  H70      1.0000 0.78280  0.94940  0.77032  Biso   1.000  H
  C69      1.0000 0.34700  0.96362  0.78396  Biso   1.000  C
  C70      1.0000 0.52628  0.96480  0.85103  Biso   1.000  C
  C71      1.0000 0.55156  0.22725  0.36777  Biso   1.000  C
  N47      1.0000 0.27758  0.21172  0.42234  Biso   1.000  N
  O23      1.0000 0.18061  0.08264  0.39439  Biso   1.000  O
  N48      1.0000 0.27758  0.21166  0.42234  Biso   1.000  N
  H71      1.0000 0.35723  0.25587  0.23772  Biso   1.000  H
  C72      1.0000 0.36152  0.26541  0.38001  Biso   1.000  C
  C73      1.0000 0.64464  0.06843  0.78617  Biso   1.000  C
  O24      1.0000 0.26093  0.93723  0.74638  Biso   1.000  O
  N49      1.0000 0.37029  0.04974  0.80375  Biso   1.000  N
  H72      1.0000 0.55118  0.94151  0.91067  Biso   1.000  H
  H73      1.0000 0.55118  0.94144  0.91067  Biso   1.000  H
  C74      1.0000 0.47220  0.05757  0.85872  Biso   1.000  C
  N50      1.0000 0.47175  0.26212  0.42301  Biso   1.000  N
  O25      1.0000 0.65256  0.22258  0.38422  Biso   1.000  O
  C75      1.0000 0.21479  0.24127  0.49857  Biso   1.000  C
  H74      1.0000 0.33501  0.32732  0.37118  Biso   1.000  H
  H75      1.0000 0.33501  0.32726  0.37118  Biso   1.000  H
  N51      1.0000 0.55815  0.11527  0.82355  Biso   1.000  N
  O26      1.0000 0.72829  0.10060  0.75367  Biso   1.000  O
  C76      1.0000 0.28505  0.11744  0.79713  Biso   1.000  C
  H76      1.0000 0.45463  0.07237  0.92211  Biso   1.000  H
  C77      1.0000 0.49914  0.31535  0.50064  Biso   1.000  C
  H77      1.0000 0.19832  0.30482  0.49128  Biso   1.000  H
  H78      1.0000 0.14189  0.20982  0.49910  Biso   1.000  H
  N52      1.0000 0.27126  0.22811  0.58382  Biso   1.000  N
  H79      1.0000 0.19832  0.30476  0.49128  Biso   1.000  H
  H80      1.0000 0.14189  0.20975  0.49910  Biso   1.000  H
  C78      1.0000 0.54649  0.20850  0.80883  Biso   1.000  C
  H81      1.0000 0.20997  0.08941  0.79379  Biso   1.000  H
  N53      1.0000 0.29879  0.17363  0.71943  Biso   1.000  N
  H82      1.0000 0.28832  0.15415  0.85183  Biso   1.000  H
  H83      1.0000 0.20997  0.08935  0.79379  Biso   1.000  H
  N54      1.0000 0.29879  0.17356  0.71943  Biso   1.000  N
  H84      1.0000 0.46141  0.37312  0.49409  Biso   1.000  H
  H85      1.0000 0.58125  0.32601  0.50238  Biso   1.000  H
  N55      1.0000 0.46654  0.27633  0.58496  Biso   1.000  N
  H86      1.0000 0.46141  0.37305  0.49409  Biso   1.000  H
  H87      1.0000 0.58125  0.32594  0.50238  Biso   1.000  H
  N56      1.0000 0.46654  0.27627  0.58496  Biso   1.000  N
  C79      1.0000 0.24420  0.16113  0.63993  Biso   1.000  C
  C80      1.0000 0.35533  0.28647  0.62227  Biso   1.000  C
  H88      1.0000 0.62226  0.23541  0.80950  Biso   1.000  H
  H89      1.0000 0.50442  0.23409  0.85919  Biso   1.000  H
  N57      1.0000 0.48938  0.23232  0.72565  Biso   1.000  N
  H90      1.0000 0.62226  0.23534  0.80950  Biso   1.000  H
  C81      1.0000 0.37009  0.25094  0.71923  Biso   1.000  C
  C82      1.0000 0.54510  0.25304  0.64889  Biso   1.000  C
  C83      1.0000 0.54510  0.25298  0.64889  Biso   1.000  C
  O27      1.0000 0.17873  0.10080  0.62207  Biso   1.000  O
  H91      1.0000 0.33000  0.34923  0.62140  Biso   1.000  H
  H92      1.0000 0.34642  0.29522  0.76470  Biso   1.000  H
  H93      1.0000 0.34642  0.29515  0.76470  Biso   1.000  H
  O28      1.0000 0.64663  0.25186  0.63879  Biso   1.000  O
  Ne1      1.0000 0.99343  0.48778  0.99859  Biso   1.000  Ne
  He1      1.0000 0.22296  0.40917  0.03099  Biso   1.000  He
  He2      1.0000 0.77513  0.59141  0.96904  Biso   1.000  He
  Ar1      1.0000 0.99280  0.49654  0.00424  Biso   1.000  Ar
  Ne2      1.0000 0.48677  0.00554  0.49838  Biso   1.000  Ne
  He3      1.0000 0.73316  0.09400  0.53087  Biso   1.000  He
  He4      1.0000 0.27292  0.90788  0.46905  Biso   1.000  He
  Ar2      1.0000 0.49345  0.00198  0.50182  Biso   1.000  Ar
