data_image0
_cell_length_a       11.873
_cell_length_b       15.284
_cell_length_c       15.04
_cell_angle_alpha    90
_cell_angle_beta     90.67
_cell_angle_gamma    90

_symmetry_space_group_name_H-M    "P 1"
_symmetry_int_tables_number       1

loop_
  _symmetry_equiv_pos_as_xyz
  'x, y, z'

loop_
  _atom_site_label
  _atom_site_occupancy
  _atom_site_fract_x
  _atom_site_fract_y
  _atom_site_fract_z
  _atom_site_thermal_displace_type
  _atom_site_B_iso_or_equiv
  _atom_site_type_symbol
  C1       1.0000 0.71178  0.08532  0.27814  Biso   1.000  C
  C2       1.0000 0.71178  0.08525  0.27814  Biso   1.000  C
  C3       1.0000 0.61921  0.21958  0.20952  Biso   1.000  C
  C4       1.0000 0.61912  0.21958  0.20952  Biso   1.000  C
  C5       1.0000 0.75088  0.13988  0.12647  Biso   1.000  C
  C6       1.0000 0.75088  0.13988  0.12654  Biso   1.000  C
  N1       1.0000 0.62261  0.02159  0.29111  Biso   1.000  N
  N2       1.0000 0.62252  0.02159  0.29111  Biso   1.000  N
  N3       1.0000 0.62261  0.02153  0.29111  Biso   1.000  N
  N4       1.0000 0.62252  0.02153  0.29111  Biso   1.000  N
  H1       1.0000 0.72025  0.12091  0.33280  Biso   1.000  H
  H2       1.0000 0.78357  0.05391  0.26883  Biso   1.000  H
  N5       1.0000 0.69172  0.14329  0.20360  Biso   1.000  N
  H3       1.0000 0.72025  0.12085  0.33280  Biso   1.000  H
  H4       1.0000 0.78357  0.05385  0.26883  Biso   1.000  H
  N6       1.0000 0.50095  0.19942  0.20926  Biso   1.000  N
  N7       1.0000 0.50095  0.19942  0.20932  Biso   1.000  N
  H5       1.0000 0.64077  0.25779  0.26092  Biso   1.000  H
  C7       1.0000 0.63801  0.26610  0.11982  Biso   1.000  C
  C8       1.0000 0.63792  0.26610  0.11982  Biso   1.000  C
  N8       1.0000 0.72134  0.21290  0.07673  Biso   1.000  N
  O1       1.0000 0.82006  0.08525  0.10539  Biso   1.000  O
  O2       1.0000 0.82006  0.08525  0.10546  Biso   1.000  O
  C9       1.0000 0.52627  0.03559  0.34909  Biso   1.000  C
  C10      1.0000 0.64709  0.93398  0.28400  Biso   1.000  C
  C11      1.0000 0.64701  0.93398  0.28400  Biso   1.000  C
  C12      1.0000 0.43998  0.17855  0.28951  Biso   1.000  C
  C13      1.0000 0.44693  0.22782  0.13279  Biso   1.000  C
  C14      1.0000 0.44693  0.22775  0.13279  Biso   1.000  C
  N9       1.0000 0.52722  0.26224  0.07747  Biso   1.000  N
  N10      1.0000 0.52713  0.26224  0.07747  Biso   1.000  N
  H6       1.0000 0.66433  0.32766  0.12820  Biso   1.000  H
  C15      1.0000 0.78398  0.24117  0.00093  Biso   1.000  C
  N11      1.0000 0.43473  0.08636  0.31019  Biso   1.000  N
  C16      1.0000 0.47365  0.94340  0.35641  Biso   1.000  C
  H7       1.0000 0.54998  0.05889  0.40861  Biso   1.000  H
  N12      1.0000 0.55969  0.88668  0.31984  Biso   1.000  N
  N13      1.0000 0.55961  0.88668  0.31984  Biso   1.000  N
  O3       1.0000 0.73168  0.90277  0.25155  Biso   1.000  O
  O4       1.0000 0.73168  0.90271  0.25155  Biso   1.000  O
  H8       1.0000 0.36215  0.20119  0.28320  Biso   1.000  H
  H9       1.0000 0.47611  0.20950  0.34012  Biso   1.000  H
  H10      1.0000 0.47602  0.20950  0.34012  Biso   1.000  H
  O5       1.0000 0.34579  0.22206  0.11663  Biso   1.000  O
  O6       1.0000 0.34579  0.22200  0.11663  Biso   1.000  O
  C17      1.0000 0.49810  0.31451  0.00000  Biso   1.000  C
  C18      1.0000 0.49810  0.31445  0.00000  Biso   1.000  C
  N14      1.0000 0.72629  0.22730  0.91642  Biso   1.000  N
  H11      1.0000 0.80083  0.30437  0.00738  Biso   1.000  H
  H12      1.0000 0.85674  0.20950  0.00013  Biso   1.000  H
  C19      1.0000 0.34606  0.03599  0.28313  Biso   1.000  C
  N15      1.0000 0.37119  0.95073  0.30182  Biso   1.000  N
  N16      1.0000 0.37119  0.95067  0.30182  Biso   1.000  N
  H13      1.0000 0.45631  0.92790  0.41931  Biso   1.000  H
  H14      1.0000 0.45622  0.92790  0.41931  Biso   1.000  H
  C20      1.0000 0.55039  0.79357  0.30581  Biso   1.000  C
  N17      1.0000 0.53089  0.27545  0.91628  Biso   1.000  N
  H15      1.0000 0.41555  0.32406  0.99880  Biso   1.000  H
  H16      1.0000 0.53466  0.37242  0.00572  Biso   1.000  H
  H17      1.0000 0.53466  0.37235  0.00572  Biso   1.000  H
  C21      1.0000 0.64243  0.28559  0.87832  Biso   1.000  C
  C22      1.0000 0.64235  0.28559  0.87832  Biso   1.000  C
  C23      1.0000 0.75453  0.16082  0.86063  Biso   1.000  C
  C24      1.0000 0.75444  0.16082  0.86063  Biso   1.000  C
  C25      1.0000 0.75453  0.16076  0.86063  Biso   1.000  C
  C26      1.0000 0.75444  0.16076  0.86063  Biso   1.000  C
  O7       1.0000 0.25962  0.06242  0.24696  Biso   1.000  O
  C27      1.0000 0.28653  0.88282  0.29583  Biso   1.000  C
  C28      1.0000 0.28653  0.88275  0.29583  Biso   1.000  C
  N18      1.0000 0.49207  0.76904  0.22362  Biso   1.000  N
  H18      1.0000 0.50979  0.76760  0.35661  Biso   1.000  H
  H19      1.0000 0.62694  0.76806  0.30541  Biso   1.000  H
  C29      1.0000 0.45238  0.25137  0.85278  Biso   1.000  C
  C30      1.0000 0.62694  0.24987  0.78210  Biso   1.000  C
  H20      1.0000 0.66788  0.34788  0.87891  Biso   1.000  H
  C31      1.0000 0.62686  0.24987  0.78210  Biso   1.000  C
  N19      1.0000 0.69886  0.17306  0.78170  Biso   1.000  N
  O8       1.0000 0.82023  0.10135  0.87812  Biso   1.000  O
  H21      1.0000 0.29037  0.84638  0.35022  Biso   1.000  H
  N20      1.0000 0.30105  0.82694  0.21830  Biso   1.000  N
  H22      1.0000 0.21103  0.91017  0.29291  Biso   1.000  H
  C32      1.0000 0.37306  0.75007  0.21790  Biso   1.000  C
  C33      1.0000 0.54762  0.74856  0.14722  Biso   1.000  C
  C34      1.0000 0.54754  0.74856  0.14722  Biso   1.000  C
  N21      1.0000 0.50793  0.23096  0.77638  Biso   1.000  N
  O9       1.0000 0.35029  0.25000  0.86349  Biso   1.000  O
  N22      1.0000 0.50785  0.23096  0.77638  Biso   1.000  N
  H23      1.0000 0.65010  0.29377  0.73648  Biso   1.000  H
  C35      1.0000 0.71338  0.11718  0.70424  Biso   1.000  C
  C36      1.0000 0.24547  0.83918  0.13944  Biso   1.000  C
  C37      1.0000 0.35757  0.71441  0.12168  Biso   1.000  C
  H24      1.0000 0.34981  0.70616  0.26352  Biso   1.000  H
  N23      1.0000 0.46911  0.72455  0.08372  Biso   1.000  N
  N24      1.0000 0.46903  0.72455  0.08378  Biso   1.000  N
  O10      1.0000 0.64971  0.75000  0.13651  Biso   1.000  O
  O11      1.0000 0.64963  0.75000  0.13651  Biso   1.000  O
  C38      1.0000 0.44961  0.20636  0.69419  Biso   1.000  C
  H25      1.0000 0.78889  0.08977  0.70709  Biso   1.000  H
  N25      1.0000 0.62881  0.04927  0.69818  Biso   1.000  N
  H26      1.0000 0.70954  0.15356  0.64978  Biso   1.000  H
  N26      1.0000 0.27371  0.77264  0.08358  Biso   1.000  N
  O12      1.0000 0.17969  0.89865  0.12188  Biso   1.000  O
  N27      1.0000 0.27362  0.77264  0.08365  Biso   1.000  N
  O13      1.0000 0.17969  0.89859  0.12188  Biso   1.000  O
  H27      1.0000 0.33212  0.65212  0.12109  Biso   1.000  H
  H28      1.0000 0.33204  0.65212  0.12109  Biso   1.000  H
  C39      1.0000 0.50190  0.68549  0.00000  Biso   1.000  C
  H29      1.0000 0.49021  0.23240  0.64339  Biso   1.000  H
  H30      1.0000 0.37297  0.23188  0.69459  Biso   1.000  H
  N28      1.0000 0.44031  0.11326  0.68016  Biso   1.000  N
  C40      1.0000 0.52635  0.05660  0.64359  Biso   1.000  C
  C41      1.0000 0.52626  0.05660  0.64359  Biso   1.000  C
  C42      1.0000 0.65394  0.96401  0.71687  Biso   1.000  C
  C43      1.0000 0.65385  0.96401  0.71694  Biso   1.000  C
  C44      1.0000 0.65394  0.96395  0.71687  Biso   1.000  C
  C45      1.0000 0.65385  0.96395  0.71694  Biso   1.000  C
  C46      1.0000 0.21602  0.75877  0.99907  Biso   1.000  C
  C47      1.0000 0.21594  0.75877  0.99914  Biso   1.000  C
  H31      1.0000 0.46526  0.62758  0.99428  Biso   1.000  H
  N29      1.0000 0.47278  0.73776  0.92253  Biso   1.000  N
  N30      1.0000 0.47279  0.73776  0.92260  Biso   1.000  N
  N31      1.0000 0.47278  0.73770  0.92253  Biso   1.000  N
  N32      1.0000 0.47279  0.73770  0.92260  Biso   1.000  N
  H32      1.0000 0.58437  0.67587  0.00120  Biso   1.000  H
  C48      1.0000 0.35291  0.06595  0.71600  Biso   1.000  C
  C49      1.0000 0.47373  0.96441  0.65091  Biso   1.000  C
  C50      1.0000 0.47365  0.96441  0.65091  Biso   1.000  C
  H33      1.0000 0.54369  0.07210  0.58069  Biso   1.000  H
  N33      1.0000 0.56519  0.91357  0.68981  Biso   1.000  N
  O14      1.0000 0.74030  0.93758  0.75304  Biso   1.000  O
  H34      1.0000 0.14318  0.79050  0.99987  Biso   1.000  H
  N34      1.0000 0.27857  0.78710  0.92327  Biso   1.000  N
  H35      1.0000 0.14318  0.79050  0.99993  Biso   1.000  H
  H36      1.0000 0.19908  0.69556  0.99262  Biso   1.000  H
  C51      1.0000 0.36199  0.73390  0.88018  Biso   1.000  C
  C52      1.0000 0.55299  0.77218  0.86721  Biso   1.000  C
  N35      1.0000 0.37739  0.97841  0.70889  Biso   1.000  N
  O15      1.0000 0.26824  0.09723  0.74845  Biso   1.000  O
  H37      1.0000 0.45002  0.94111  0.59139  Biso   1.000  H
  H38      1.0000 0.44994  0.94111  0.59139  Biso   1.000  H
  H39      1.0000 0.45002  0.94105  0.59139  Biso   1.000  H
  H40      1.0000 0.44994  0.94105  0.59139  Biso   1.000  H
  C53      1.0000 0.56002  0.82138  0.71049  Biso   1.000  C
  C54      1.0000 0.55993  0.82138  0.71049  Biso   1.000  C
  C55      1.0000 0.24903  0.86012  0.87353  Biso   1.000  C
  H41      1.0000 0.33559  0.67234  0.87180  Biso   1.000  H
  C56      1.0000 0.38079  0.78042  0.79048  Biso   1.000  C
  H42      1.0000 0.33559  0.67227  0.87180  Biso   1.000  H
  C57      1.0000 0.38079  0.78036  0.79048  Biso   1.000  C
  N36      1.0000 0.49896  0.80058  0.79074  Biso   1.000  N
  O16      1.0000 0.65421  0.77794  0.88337  Biso   1.000  O
  O17      1.0000 0.65413  0.77794  0.88337  Biso   1.000  O
  C58      1.0000 0.28814  0.91468  0.72192  Biso   1.000  C
  H43      1.0000 0.52389  0.79050  0.65988  Biso   1.000  H
  H44      1.0000 0.63777  0.79881  0.71680  Biso   1.000  H
  N37      1.0000 0.30828  0.85671  0.79640  Biso   1.000  N
  O18      1.0000 0.17986  0.91475  0.89461  Biso   1.000  O
  H45      1.0000 0.35923  0.74221  0.73908  Biso   1.000  H
  H46      1.0000 0.35914  0.74221  0.73908  Biso   1.000  H
  H47      1.0000 0.21643  0.94609  0.73117  Biso   1.000  H
  H48      1.0000 0.27967  0.87909  0.66720  Biso   1.000  H
  H49      1.0000 0.21635  0.94609  0.73123  Biso   1.000  H
  O19      1.0000 0.76827  0.40277  0.24842  Biso   1.000  O
  C59      1.0000 0.85286  0.43398  0.21597  Biso   1.000  C
  N38      1.0000 0.94026  0.38668  0.18020  Biso   1.000  N
  N39      1.0000 0.87735  0.52153  0.20892  Biso   1.000  N
  C60      1.0000 0.94956  0.29357  0.19423  Biso   1.000  C
  C61      1.0000 0.02630  0.44340  0.14363  Biso   1.000  C
  C62      1.0000 0.97368  0.53559  0.15087  Biso   1.000  C
  C63      1.0000 0.78818  0.58532  0.22189  Biso   1.000  C
  H50      1.0000 0.99016  0.26760  0.14343  Biso   1.000  H
  H51      1.0000 0.87301  0.26812  0.19463  Biso   1.000  H
  N40      1.0000 0.00788  0.26904  0.27642  Biso   1.000  N
  H52      1.0000 0.04373  0.42790  0.08072  Biso   1.000  H
  N41      1.0000 0.12877  0.45073  0.19822  Biso   1.000  N
  H53      1.0000 0.94998  0.55889  0.09143  Biso   1.000  H
  N42      1.0000 0.06522  0.58636  0.18984  Biso   1.000  N
  H54      1.0000 0.77970  0.62091  0.16723  Biso   1.000  H
  H55      1.0000 0.71639  0.55391  0.23120  Biso   1.000  H
  N43      1.0000 0.80831  0.64329  0.29636  Biso   1.000  N
  C64      1.0000 0.95242  0.24863  0.35282  Biso   1.000  C
  C65      1.0000 0.12689  0.25007  0.28213  Biso   1.000  C
  C66      1.0000 0.21342  0.38282  0.20420  Biso   1.000  C
  C67      1.0000 0.15389  0.53599  0.21690  Biso   1.000  C
  C68      1.0000 0.05997  0.67862  0.21052  Biso   1.000  C
  C69      1.0000 0.74907  0.63988  0.37350  Biso   1.000  C
  C70      1.0000 0.88075  0.71958  0.29051  Biso   1.000  C
  O20      1.0000 0.85024  0.25000  0.36352  Biso   1.000  O
  N44      1.0000 0.03084  0.22455  0.41625  Biso   1.000  N
  H56      1.0000 0.15005  0.20616  0.23652  Biso   1.000  H
  C71      1.0000 0.14238  0.21441  0.37828  Biso   1.000  C
  N45      1.0000 0.19890  0.32694  0.28167  Biso   1.000  N
  H57      1.0000 0.20958  0.34638  0.14981  Biso   1.000  H
  H58      1.0000 0.28884  0.41017  0.20713  Biso   1.000  H
  O21      1.0000 0.24025  0.56242  0.25308  Biso   1.000  O
  N46      1.0000 0.99900  0.69942  0.29071  Biso   1.000  N
  H59      1.0000 0.13780  0.70119  0.21677  Biso   1.000  H
  H60      1.0000 0.02385  0.70950  0.15992  Biso   1.000  H
  N47      1.0000 0.77861  0.71290  0.42323  Biso   1.000  N
  O22      1.0000 0.67990  0.58525  0.39457  Biso   1.000  O
  C72      1.0000 0.86194  0.76610  0.38021  Biso   1.000  C
  H61      1.0000 0.85918  0.75779  0.23911  Biso   1.000  H
  C73      1.0000 0.99806  0.18549  0.50003  Biso   1.000  C
  H62      1.0000 0.16791  0.15212  0.37888  Biso   1.000  H
  N48      1.0000 0.22625  0.27264  0.41638  Biso   1.000  N
  C74      1.0000 0.25448  0.33918  0.36060  Biso   1.000  C
  C75      1.0000 0.05294  0.72775  0.36718  Biso   1.000  C
  C76      1.0000 0.71598  0.74117  0.49910  Biso   1.000  C
  N49      1.0000 0.97282  0.76224  0.42257  Biso   1.000  N
  H63      1.0000 0.83554  0.82766  0.37183  Biso   1.000  H
  N50      1.0000 0.97274  0.76224  0.42257  Biso   1.000  N
  H64      1.0000 0.91558  0.17587  0.49884  Biso   1.000  H
  H65      1.0000 0.03470  0.12758  0.50569  Biso   1.000  H
  N51      1.0000 0.02717  0.23776  0.57743  Biso   1.000  N
  C77      1.0000 0.28393  0.25877  0.50090  Biso   1.000  C
  O23      1.0000 0.32026  0.39859  0.37808  Biso   1.000  O
  O24      1.0000 0.15417  0.72200  0.38334  Biso   1.000  O
  N52      1.0000 0.77366  0.72730  0.58362  Biso   1.000  N
  H66      1.0000 0.69912  0.80437  0.49259  Biso   1.000  H
  H67      1.0000 0.64322  0.70950  0.49990  Biso   1.000  H
  H68      1.0000 0.69903  0.80437  0.49259  Biso   1.000  H
  H69      1.0000 0.64313  0.70950  0.49990  Biso   1.000  H
  C78      1.0000 0.00185  0.81451  0.50003  Biso   1.000  C
  C79      1.0000 0.94696  0.27218  0.63282  Biso   1.000  C
  C80      1.0000 0.13796  0.23390  0.61979  Biso   1.000  C
  H70      1.0000 0.30087  0.19556  0.50742  Biso   1.000  H
  H71      1.0000 0.35677  0.29050  0.50010  Biso   1.000  H
  N53      1.0000 0.22138  0.28710  0.57677  Biso   1.000  N
  C81      1.0000 0.85760  0.78559  0.62172  Biso   1.000  C
  C82      1.0000 0.74551  0.66076  0.63941  Biso   1.000  C
  C83      1.0000 0.74543  0.66076  0.63941  Biso   1.000  C
  H72      1.0000 0.96529  0.87235  0.49432  Biso   1.000  H
  N54      1.0000 0.96906  0.77545  0.58375  Biso   1.000  N
  H73      1.0000 0.08441  0.82406  0.50123  Biso   1.000  H
  O25      1.0000 0.84574  0.27794  0.61666  Biso   1.000  O
  N55      1.0000 0.00099  0.30058  0.70929  Biso   1.000  N
  H74      1.0000 0.16436  0.17227  0.62823  Biso   1.000  H
  C84      1.0000 0.11916  0.28042  0.70949  Biso   1.000  C
  C85      1.0000 0.25084  0.36012  0.62651  Biso   1.000  C
  C86      1.0000 0.87310  0.74987  0.71793  Biso   1.000  C
  H75      1.0000 0.83208  0.84788  0.62112  Biso   1.000  H
  N56      1.0000 0.80109  0.67306  0.71833  Biso   1.000  N
  O26      1.0000 0.67964  0.60135  0.62192  Biso   1.000  O
  C87      1.0000 0.04757  0.75137  0.64719  Biso   1.000  C
  C88      1.0000 0.93993  0.32138  0.78948  Biso   1.000  C
  H76      1.0000 0.14072  0.24221  0.76089  Biso   1.000  H
  N57      1.0000 0.19167  0.35671  0.70364  Biso   1.000  N
  O27      1.0000 0.32009  0.41475  0.60543  Biso   1.000  O
  H77      1.0000 0.84985  0.79377  0.76348  Biso   1.000  H
  N58      1.0000 0.99202  0.73096  0.72359  Biso   1.000  N
  C89      1.0000 0.78657  0.61718  0.79580  Biso   1.000  C
  O28      1.0000 0.14966  0.75000  0.63655  Biso   1.000  O
  H78      1.0000 0.97606  0.29050  0.84008  Biso   1.000  H
  H79      1.0000 0.86219  0.29881  0.78323  Biso   1.000  H
  N59      1.0000 0.93477  0.41357  0.81016  Biso   1.000  N
  C90      1.0000 0.21173  0.41468  0.77811  Biso   1.000  C
  C91      1.0000 0.05034  0.70636  0.80584  Biso   1.000  C
  H80      1.0000 0.71106  0.58977  0.79294  Biso   1.000  H
  H81      1.0000 0.79032  0.65356  0.85019  Biso   1.000  H
  N60      1.0000 0.87114  0.54927  0.80178  Biso   1.000  N
  C92      1.0000 0.84610  0.46401  0.78310  Biso   1.000  C
  C93      1.0000 0.02622  0.46441  0.84913  Biso   1.000  C
  H82      1.0000 0.22029  0.37909  0.83284  Biso   1.000  H
  H83      1.0000 0.28360  0.44609  0.76880  Biso   1.000  H
  N61      1.0000 0.12256  0.47841  0.79114  Biso   1.000  N
  H84      1.0000 0.28352  0.44609  0.76880  Biso   1.000  H
  H85      1.0000 0.00974  0.73240  0.85664  Biso   1.000  H
  H86      1.0000 0.12698  0.73188  0.80544  Biso   1.000  H
  N62      1.0000 0.05965  0.61326  0.81987  Biso   1.000  N
  C94      1.0000 0.97369  0.55660  0.85644  Biso   1.000  C
  O29      1.0000 0.75965  0.43758  0.74699  Biso   1.000  O
  H87      1.0000 0.04993  0.44111  0.90864  Biso   1.000  H
  C95      1.0000 0.14705  0.56602  0.78403  Biso   1.000  C
  H88      1.0000 0.95626  0.57210  0.91934  Biso   1.000  H
  O30      1.0000 0.23163  0.59723  0.75158  Biso   1.000  O
  Ne1      1.0000 0.51726  0.99811  0.01013  Biso   1.000  Ne
  He1      1.0000 0.73407  0.90911  0.02815  Biso   1.000  He
  He2      1.0000 0.27355  0.08852  0.97170  Biso   1.000  He
  Ar1      1.0000 0.50175  0.99613  0.00723  Biso   1.000  Ar
  Ne2      1.0000 0.99625  0.50590  0.50084  Biso   1.000  Ne
  He3      1.0000 0.23546  0.59131  0.52815  Biso   1.000  He
  He4      1.0000 0.77188  0.41098  0.47179  Biso   1.000  He
  Ar2      1.0000 0.99529  0.50235  0.50300  Biso   1.000  Ar
