data_image0
_cell_length_a       12.17
_cell_length_b       15.994
_cell_length_c       14.416
_cell_angle_alpha    90
_cell_angle_beta     92.46
_cell_angle_gamma    90

_symmetry_space_group_name_H-M    "P 1"
_symmetry_int_tables_number       1

loop_
  _symmetry_equiv_pos_as_xyz
  'x, y, z'

loop_
  _atom_site_label
  _atom_site_occupancy
  _atom_site_fract_x
  _atom_site_fract_y
  _atom_site_fract_z
  _atom_site_thermal_displace_type
  _atom_site_B_iso_or_equiv
  _atom_site_type_symbol
  C1       1.0000 0.60178  0.76579  0.22412  Biso   1.000  C
  N1       1.0000 0.48570  0.78698  0.21822  Biso   1.000  N
  H1       1.0000 0.62001  0.72909  0.27877  Biso   1.000  H
  H2       1.0000 0.62001  0.72909  0.27884  Biso   1.000  H
  N2       1.0000 0.67566  0.83681  0.22114  Biso   1.000  N
  C2       1.0000 0.61982  0.71983  0.13123  Biso   1.000  C
  H3       1.0000 0.62001  0.72915  0.27877  Biso   1.000  H
  H4       1.0000 0.62001  0.72915  0.27884  Biso   1.000  H
  C3       1.0000 0.42613  0.81524  0.29731  Biso   1.000  C
  C4       1.0000 0.43373  0.75672  0.13817  Biso   1.000  C
  C5       1.0000 0.43373  0.75672  0.13824  Biso   1.000  C
  N3       1.0000 0.51269  0.72496  0.08304  Biso   1.000  N
  N4       1.0000 0.51269  0.72496  0.08311  Biso   1.000  N
  H5       1.0000 0.64359  0.66050  0.14143  Biso   1.000  H
  N5       1.0000 0.70517  0.76954  0.09040  Biso   1.000  N
  C6       1.0000 0.69732  0.89202  0.29960  Biso   1.000  C
  C7       1.0000 0.69732  0.89208  0.29960  Biso   1.000  C
  C8       1.0000 0.73748  0.83706  0.14414  Biso   1.000  C
  H6       1.0000 0.34864  0.79680  0.28918  Biso   1.000  H
  H7       1.0000 0.45793  0.78792  0.35396  Biso   1.000  H
  N6       1.0000 0.42797  0.90453  0.31098  Biso   1.000  N
  H8       1.0000 0.34864  0.79680  0.28925  Biso   1.000  H
  H9       1.0000 0.45793  0.78792  0.35403  Biso   1.000  H
  N7       1.0000 0.42798  0.90453  0.31105  Biso   1.000  N
  O1       1.0000 0.33445  0.75835  0.11998  Biso   1.000  O
  O2       1.0000 0.33445  0.75835  0.12005  Biso   1.000  O
  C9       1.0000 0.48723  0.68251  0.99604  Biso   1.000  C
  C10      1.0000 0.76434  0.74334  0.00979  Biso   1.000  C
  C11      1.0000 0.76435  0.74334  0.00986  Biso   1.000  C
  O3       1.0000 0.80982  0.88614  0.12685  Biso   1.000  O
  H10      1.0000 0.69690  0.85901  0.35764  Biso   1.000  H
  H11      1.0000 0.77137  0.91684  0.29508  Biso   1.000  H
  N8       1.0000 0.61637  0.95911  0.30411  Biso   1.000  N
  H12      1.0000 0.77137  0.91684  0.29515  Biso   1.000  H
  N9       1.0000 0.61637  0.95911  0.30418  Biso   1.000  N
  C12      1.0000 0.34627  0.95517  0.27495  Biso   1.000  C
  C13      1.0000 0.51673  0.95173  0.35660  Biso   1.000  C
  C14      1.0000 0.34627  0.95523  0.27495  Biso   1.000  C
  H13      1.0000 0.52620  0.62811  0.99653  Biso   1.000  H
  N10      1.0000 0.51734  0.72952  0.91432  Biso   1.000  N
  H14      1.0000 0.40736  0.67094  0.99132  Biso   1.000  H
  H15      1.0000 0.40737  0.67094  0.99139  Biso   1.000  H
  H16      1.0000 0.83952  0.76710  0.01451  Biso   1.000  H
  N11      1.0000 0.71182  0.76879  0.92224  Biso   1.000  N
  H17      1.0000 0.77129  0.68163  0.01062  Biso   1.000  H
  C15      1.0000 0.64573  0.04070  0.29182  Biso   1.000  C
  H18      1.0000 0.53334  0.93141  0.42131  Biso   1.000  H
  C16      1.0000 0.47181  0.04245  0.35549  Biso   1.000  C
  C17      1.0000 0.47182  0.04245  0.35556  Biso   1.000  C
  C18      1.0000 0.47181  0.04252  0.35549  Biso   1.000  C
  C19      1.0000 0.47182  0.04252  0.35556  Biso   1.000  C
  O4       1.0000 0.26187  0.93066  0.23433  Biso   1.000  O
  N12      1.0000 0.37529  0.03670  0.29140  Biso   1.000  N
  N13      1.0000 0.37530  0.03670  0.29147  Biso   1.000  N
  N14      1.0000 0.37529  0.03676  0.29140  Biso   1.000  N
  N15      1.0000 0.37530  0.03676  0.29147  Biso   1.000  N
  C20      1.0000 0.62434  0.72208  0.87433  Biso   1.000  C
  C21      1.0000 0.44030  0.76466  0.85357  Biso   1.000  C
  C22      1.0000 0.62434  0.72215  0.87433  Biso   1.000  C
  C23      1.0000 0.74618  0.83644  0.87239  Biso   1.000  C
  N16      1.0000 0.56268  0.09047  0.32140  Biso   1.000  N
  O5       1.0000 0.73225  0.06540  0.26099  Biso   1.000  O
  O6       1.0000 0.73225  0.06546  0.26099  Biso   1.000  O
  H19      1.0000 0.45161  0.06121  0.41874  Biso   1.000  H
  C24      1.0000 0.29364  0.10323  0.28370  Biso   1.000  C
  N17      1.0000 0.49474  0.79198  0.77699  Biso   1.000  N
  O7       1.0000 0.34204  0.77135  0.86523  Biso   1.000  O
  O8       1.0000 0.34204  0.77135  0.86530  Biso   1.000  O
  C25      1.0000 0.60952  0.76904  0.78004  Biso   1.000  C
  H20      1.0000 0.64524  0.66231  0.86523  Biso   1.000  H
  N18      1.0000 0.68573  0.83869  0.79039  Biso   1.000  N
  O9       1.0000 0.82059  0.88439  0.89592  Biso   1.000  O
  C26      1.0000 0.56360  0.17957  0.30709  Biso   1.000  C
  C27      1.0000 0.56360  0.17963  0.30709  Biso   1.000  C
  H21      1.0000 0.21994  0.07803  0.27252  Biso   1.000  H
  H22      1.0000 0.29321  0.13399  0.34320  Biso   1.000  H
  N19      1.0000 0.31427  0.16137  0.20954  Biso   1.000  N
  N20      1.0000 0.31427  0.16137  0.20961  Biso   1.000  N
  H23      1.0000 0.29321  0.13405  0.34320  Biso   1.000  H
  C28      1.0000 0.43648  0.82043  0.69284  Biso   1.000  C
  H24      1.0000 0.62752  0.73240  0.72665  Biso   1.000  H
  C29      1.0000 0.70644  0.89684  0.71623  Biso   1.000  C
  H25      1.0000 0.53068  0.20683  0.36097  Biso   1.000  H
  N21      1.0000 0.50534  0.20802  0.22294  Biso   1.000  N
  H26      1.0000 0.53068  0.20683  0.36104  Biso   1.000  H
  N22      1.0000 0.50534  0.20802  0.22301  Biso   1.000  N
  H27      1.0000 0.64101  0.19845  0.30557  Biso   1.000  H
  H28      1.0000 0.64101  0.19845  0.30564  Biso   1.000  H
  C30      1.0000 0.39047  0.23096  0.21989  Biso   1.000  C
  C31      1.0000 0.25390  0.16362  0.12761  Biso   1.000  C
  C32      1.0000 0.39048  0.23096  0.21996  Biso   1.000  C
  H29      1.0000 0.35907  0.80161  0.69436  Biso   1.000  H
  H30      1.0000 0.46932  0.79323  0.63896  Biso   1.000  H
  N23      1.0000 0.43732  0.90959  0.67860  Biso   1.000  N
  H31      1.0000 0.70687  0.86601  0.65673  Biso   1.000  H
  N24      1.0000 0.62479  0.96330  0.70853  Biso   1.000  N
  H32      1.0000 0.70687  0.86601  0.65680  Biso   1.000  H
  H33      1.0000 0.78014  0.92203  0.72741  Biso   1.000  H
  H34      1.0000 0.78015  0.92203  0.72748  Biso   1.000  H
  C33      1.0000 0.55979  0.23534  0.14643  Biso   1.000  C
  C34      1.0000 0.37574  0.27792  0.12560  Biso   1.000  C
  H35      1.0000 0.37248  0.26766  0.27335  Biso   1.000  H
  N25      1.0000 0.28818  0.23121  0.07776  Biso   1.000  N
  O10      1.0000 0.17949  0.11567  0.10401  Biso   1.000  O
  O11      1.0000 0.17949  0.11567  0.10408  Biso   1.000  O
  C35      1.0000 0.52827  0.95755  0.64444  Biso   1.000  C
  C36      1.0000 0.35435  0.95930  0.70818  Biso   1.000  C
  C37      1.0000 0.65373  0.04483  0.72505  Biso   1.000  C
  O12      1.0000 0.65804  0.22865  0.13470  Biso   1.000  O
  N26      1.0000 0.48266  0.27048  0.08568  Biso   1.000  N
  O13      1.0000 0.65804  0.22871  0.13470  Biso   1.000  O
  H36      1.0000 0.35484  0.33769  0.13470  Biso   1.000  H
  H37      1.0000 0.35484  0.33775  0.13470  Biso   1.000  H
  C38      1.0000 0.23565  0.25672  0.99014  Biso   1.000  C
  O14      1.0000 0.26783  0.93460  0.73894  Biso   1.000  O
  N27      1.0000 0.38363  0.04095  0.69582  Biso   1.000  N
  H38      1.0000 0.54847  0.93885  0.58126  Biso   1.000  H
  C39      1.0000 0.48335  0.04833  0.64340  Biso   1.000  C
  N28      1.0000 0.57202  0.09554  0.68895  Biso   1.000  N
  O15      1.0000 0.73821  0.06940  0.76567  Biso   1.000  O
  C40      1.0000 0.51277  0.31749  0.00389  Biso   1.000  C
  C41      1.0000 0.51277  0.31749  0.00396  Biso   1.000  C
  H39      1.0000 0.22879  0.31843  0.98931  Biso   1.000  H
  H40      1.0000 0.16056  0.23290  0.98542  Biso   1.000  H
  H41      1.0000 0.22879  0.31843  0.98938  Biso   1.000  H
  H42      1.0000 0.16056  0.23290  0.98549  Biso   1.000  H
  N29      1.0000 0.29483  0.23052  0.90960  Biso   1.000  N
  C42      1.0000 0.30276  0.10798  0.70033  Biso   1.000  C
  H43      1.0000 0.46674  0.06865  0.57862  Biso   1.000  H
  H44      1.0000 0.46675  0.06865  0.57869  Biso   1.000  H
  C43      1.0000 0.57395  0.18482  0.70263  Biso   1.000  C
  C44      1.0000 0.57396  0.18482  0.70269  Biso   1.000  C
  N30      1.0000 0.48739  0.27504  0.91689  Biso   1.000  N
  H45      1.0000 0.47388  0.37189  0.00340  Biso   1.000  H
  H46      1.0000 0.59271  0.32912  0.00861  Biso   1.000  H
  H47      1.0000 0.47388  0.37195  0.00340  Biso   1.000  H
  C45      1.0000 0.26260  0.16300  0.85586  Biso   1.000  C
  C46      1.0000 0.38026  0.28023  0.86871  Biso   1.000  C
  C47      1.0000 0.38026  0.28023  0.86877  Biso   1.000  C
  N31      1.0000 0.32434  0.16319  0.77886  Biso   1.000  N
  H48      1.0000 0.22863  0.08322  0.70485  Biso   1.000  H
  H49      1.0000 0.30318  0.14099  0.64236  Biso   1.000  H
  H50      1.0000 0.30318  0.14105  0.64236  Biso   1.000  H
  H51      1.0000 0.65144  0.20320  0.71075  Biso   1.000  H
  H52      1.0000 0.54215  0.21208  0.64597  Biso   1.000  H
  N32      1.0000 0.51437  0.21302  0.78171  Biso   1.000  N
  N33      1.0000 0.51438  0.21302  0.78178  Biso   1.000  N
  H53      1.0000 0.54215  0.21214  0.64597  Biso   1.000  H
  N34      1.0000 0.51437  0.21308  0.78171  Biso   1.000  N
  N35      1.0000 0.51438  0.21308  0.78178  Biso   1.000  N
  C48      1.0000 0.56635  0.24334  0.86176  Biso   1.000  C
  O16      1.0000 0.19026  0.11392  0.87308  Biso   1.000  O
  O17      1.0000 0.19026  0.11392  0.87315  Biso   1.000  O
  H54      1.0000 0.35649  0.33950  0.85857  Biso   1.000  H
  C49      1.0000 0.39822  0.23421  0.77588  Biso   1.000  C
  O18      1.0000 0.66563  0.24172  0.87995  Biso   1.000  O
  H55      1.0000 0.38007  0.27091  0.72116  Biso   1.000  H
  O19      1.0000 0.84191  0.72871  0.36528  Biso   1.000  O
  C50      1.0000 0.94016  0.73534  0.35361  Biso   1.000  C
  N36      1.0000 0.99469  0.70802  0.27703  Biso   1.000  N
  O20      1.0000 0.84199  0.72871  0.36528  Biso   1.000  O
  N37      1.0000 0.01729  0.77048  0.41437  Biso   1.000  N
  C51      1.0000 0.93635  0.67963  0.19288  Biso   1.000  C
  C52      1.0000 0.10947  0.73096  0.28009  Biso   1.000  C
  C53      1.0000 0.12429  0.77792  0.37437  Biso   1.000  C
  C54      1.0000 0.98718  0.81749  0.49609  Biso   1.000  C
  N38      1.0000 0.93735  0.59047  0.17865  Biso   1.000  N
  N39      1.0000 0.93727  0.59047  0.17865  Biso   1.000  N
  H56      1.0000 0.85902  0.69839  0.19441  Biso   1.000  H
  H57      1.0000 0.96927  0.70683  0.13900  Biso   1.000  H
  N40      1.0000 0.18568  0.66137  0.29043  Biso   1.000  N
  H58      1.0000 0.12755  0.76760  0.22669  Biso   1.000  H
  H59      1.0000 0.12747  0.76760  0.22669  Biso   1.000  H
  N41      1.0000 0.21177  0.73121  0.42221  Biso   1.000  N
  H60      1.0000 0.14519  0.83775  0.36528  Biso   1.000  H
  N42      1.0000 0.01272  0.77504  0.58302  Biso   1.000  N
  H61      1.0000 0.90732  0.82912  0.49137  Biso   1.000  H
  H62      1.0000 0.02607  0.87195  0.49657  Biso   1.000  H
  C55      1.0000 0.85430  0.54070  0.20822  Biso   1.000  C
  C56      1.0000 0.02822  0.54252  0.14449  Biso   1.000  C
  C57      1.0000 0.20639  0.60323  0.21628  Biso   1.000  C
  C58      1.0000 0.24613  0.66362  0.37236  Biso   1.000  C
  C59      1.0000 0.26446  0.75672  0.50977  Biso   1.000  C
  C60      1.0000 0.26437  0.75672  0.50977  Biso   1.000  C
  C61      1.0000 0.93368  0.74334  0.63821  Biso   1.000  C
  C62      1.0000 0.11985  0.78023  0.63120  Biso   1.000  C
  N43      1.0000 0.88358  0.45905  0.19587  Biso   1.000  N
  O21      1.0000 0.76778  0.56546  0.23898  Biso   1.000  O
  C63      1.0000 0.98330  0.45167  0.14338  Biso   1.000  C
  N44      1.0000 0.12466  0.53676  0.20857  Biso   1.000  N
  H63      1.0000 0.04834  0.56121  0.08130  Biso   1.000  H
  H64      1.0000 0.28010  0.57803  0.22753  Biso   1.000  H
  H65      1.0000 0.20674  0.63399  0.15678  Biso   1.000  H
  O22      1.0000 0.32054  0.61567  0.39597  Biso   1.000  O
  N45      1.0000 0.20520  0.73052  0.59037  Biso   1.000  N
  H66      1.0000 0.27132  0.81843  0.51060  Biso   1.000  H
  H67      1.0000 0.33947  0.73290  0.51449  Biso   1.000  H
  N46      1.0000 0.98573  0.71302  0.71820  Biso   1.000  N
  O23      1.0000 0.83448  0.74172  0.62002  Biso   1.000  O
  C64      1.0000 0.10181  0.73421  0.72410  Biso   1.000  C
  H68      1.0000 0.14362  0.83950  0.64141  Biso   1.000  H
  C65      1.0000 0.80271  0.39208  0.20038  Biso   1.000  C
  N47      1.0000 0.07198  0.40453  0.18899  Biso   1.000  N
  H69      1.0000 0.96669  0.43141  0.07867  Biso   1.000  H
  C66      1.0000 0.15368  0.45523  0.22510  Biso   1.000  C
  C67      1.0000 0.23751  0.66300  0.64411  Biso   1.000  C
  C68      1.0000 0.92616  0.68476  0.79728  Biso   1.000  C
  N48      1.0000 0.17569  0.66319  0.72104  Biso   1.000  N
  H70      1.0000 0.12004  0.77091  0.77881  Biso   1.000  H
  N49      1.0000 0.82429  0.33681  0.27891  Biso   1.000  N
  H71      1.0000 0.72858  0.41678  0.20489  Biso   1.000  H
  H72      1.0000 0.80305  0.35901  0.14240  Biso   1.000  H
  C69      1.0000 0.07390  0.31524  0.20267  Biso   1.000  C
  O24      1.0000 0.23816  0.43066  0.26564  Biso   1.000  O
  O25      1.0000 0.30985  0.61386  0.62683  Biso   1.000  O
  N50      1.0000 0.92801  0.59554  0.81103  Biso   1.000  N
  H73      1.0000 0.95796  0.71214  0.85401  Biso   1.000  H
  H74      1.0000 0.84859  0.70320  0.78916  Biso   1.000  H
  C70      1.0000 0.19735  0.60798  0.79957  Biso   1.000  C
  C71      1.0000 0.76255  0.33700  0.35591  Biso   1.000  C
  C72      1.0000 0.76247  0.33700  0.35591  Biso   1.000  C
  C73      1.0000 0.89817  0.26579  0.27592  Biso   1.000  C
  N51      1.0000 0.01433  0.28698  0.28175  Biso   1.000  N
  H75      1.0000 0.15139  0.29680  0.21079  Biso   1.000  H
  H76      1.0000 0.04210  0.28792  0.14601  Biso   1.000  H
  C74      1.0000 0.84630  0.54483  0.77485  Biso   1.000  C
  C75      1.0000 0.01676  0.54833  0.85657  Biso   1.000  C
  N52      1.0000 0.11640  0.54095  0.80415  Biso   1.000  N
  H77      1.0000 0.27140  0.58322  0.79506  Biso   1.000  H
  H78      1.0000 0.19693  0.64099  0.85762  Biso   1.000  H
  N53      1.0000 0.79478  0.26954  0.40964  Biso   1.000  N
  O26      1.0000 0.69021  0.38614  0.37312  Biso   1.000  O
  O27      1.0000 0.69013  0.38614  0.37312  Biso   1.000  O
  C76      1.0000 0.88021  0.21983  0.36882  Biso   1.000  C
  H79      1.0000 0.88002  0.22909  0.22121  Biso   1.000  H
  C77      1.0000 0.06630  0.25672  0.36181  Biso   1.000  C
  N54      1.0000 0.87532  0.46330  0.79138  Biso   1.000  N
  O28      1.0000 0.76182  0.56934  0.73431  Biso   1.000  O
  C78      1.0000 0.97184  0.45755  0.85546  Biso   1.000  C
  H80      1.0000 0.03337  0.56859  0.92128  Biso   1.000  H
  C79      1.0000 0.14576  0.45930  0.79180  Biso   1.000  C
  C80      1.0000 0.14568  0.45930  0.79180  Biso   1.000  C
  C81      1.0000 0.73560  0.24328  0.49019  Biso   1.000  C
  H81      1.0000 0.85644  0.16050  0.35861  Biso   1.000  H
  N55      1.0000 0.98726  0.22496  0.41694  Biso   1.000  N
  O29      1.0000 0.16558  0.25828  0.38000  Biso   1.000  O
  C82      1.0000 0.79367  0.39684  0.78367  Biso   1.000  C
  N56      1.0000 0.06271  0.40959  0.82130  Biso   1.000  N
  H82      1.0000 0.95164  0.43879  0.91872  Biso   1.000  H
  O30      1.0000 0.23220  0.43460  0.76097  Biso   1.000  O
  H83      1.0000 0.72875  0.18163  0.48942  Biso   1.000  H
  H84      1.0000 0.66051  0.26710  0.48546  Biso   1.000  H
  N57      1.0000 0.78821  0.26879  0.57774  Biso   1.000  N
  C83      1.0000 0.01280  0.18251  0.50386  Biso   1.000  C
  N58      1.0000 0.81430  0.33863  0.70959  Biso   1.000  N
  H85      1.0000 0.71997  0.42203  0.77249  Biso   1.000  H
  H86      1.0000 0.79324  0.36601  0.84317  Biso   1.000  H
  C84      1.0000 0.06363  0.32043  0.80707  Biso   1.000  C
  C85      1.0000 0.75393  0.33644  0.62759  Biso   1.000  C
  C86      1.0000 0.87577  0.22215  0.62558  Biso   1.000  C
  C87      1.0000 0.87568  0.22215  0.62558  Biso   1.000  C
  N59      1.0000 0.98278  0.22952  0.58565  Biso   1.000  N
  N60      1.0000 0.98269  0.22952  0.58565  Biso   1.000  N
  H87      1.0000 0.97391  0.12811  0.50338  Biso   1.000  H
  H88      1.0000 0.09274  0.17088  0.50858  Biso   1.000  H
  C88      1.0000 0.89059  0.26904  0.71986  Biso   1.000  C
  C89      1.0000 0.89050  0.26904  0.71986  Biso   1.000  C
  N61      1.0000 0.00529  0.29198  0.72299  Biso   1.000  N
  H89      1.0000 0.14104  0.30161  0.80561  Biso   1.000  H
  H90      1.0000 0.03079  0.29323  0.86102  Biso   1.000  H
  H91      1.0000 0.03071  0.29323  0.86102  Biso   1.000  H
  O31      1.0000 0.67952  0.38439  0.60405  Biso   1.000  O
  H92      1.0000 0.85478  0.16231  0.63467  Biso   1.000  H
  C90      1.0000 0.05982  0.26466  0.64641  Biso   1.000  C
  H93      1.0000 0.87251  0.23240  0.77326  Biso   1.000  H
  O32      1.0000 0.15807  0.27135  0.63467  Biso   1.000  O
