data_image0
_cell_length_a       13.7
_cell_length_b       29.35
_cell_length_c       11.92
_cell_angle_alpha    90
_cell_angle_beta     90
_cell_angle_gamma    90

_symmetry_space_group_name_H-M    "P 1"
_symmetry_int_tables_number       1

loop_
  _symmetry_equiv_pos_as_xyz
  'x, y, z'

loop_
  _atom_site_label
  _atom_site_occupancy
  _atom_site_fract_x
  _atom_site_fract_y
  _atom_site_fract_z
  _atom_site_thermal_displace_type
  _atom_site_B_iso_or_equiv
  _atom_site_type_symbol
  C1       1.0000 0.48219  0.47261  0.49102  Biso   1.000  C
  O1       1.0000 0.38131  0.45990  0.48993  Biso   1.000  O
  C2       1.0000 0.49117  0.52211  0.45092  Biso   1.000  C
  C3       1.0000 0.51723  0.46630  0.60998  Biso   1.000  C
  H1       1.0000 0.52102  0.45261  0.44102  Biso   1.000  H
  C4       1.0000 0.33766  0.46290  0.38289  Biso   1.000  C
  C5       1.0000 0.44321  0.52879  0.33758  Biso   1.000  C
  O2       1.0000 0.59358  0.53291  0.43909  Biso   1.000  O
  H2       1.0000 0.46299  0.54078  0.50998  Biso   1.000  H
  O3       1.0000 0.52920  0.41911  0.63800  Biso   1.000  O
  H3       1.0000 0.47102  0.48078  0.66502  Biso   1.000  H
  H4       1.0000 0.58898  0.47789  0.60998  Biso   1.000  H
  O4       1.0000 0.39117  0.43799  0.30294  Biso   1.000  O
  C6       1.0000 0.33781  0.51281  0.34270  Biso   1.000  C
  H5       1.0000 0.26803  0.45319  0.38700  Biso   1.000  H
  O5       1.0000 0.44591  0.57618  0.30612  Biso   1.000  O
  H6       1.0000 0.48197  0.51049  0.27802  Biso   1.000  H
  C7       1.0000 0.62562  0.57281  0.49497  Biso   1.000  C
  H7       1.0000 0.47000  0.40429  0.66602  Biso   1.000  H
  C8       1.0000 0.34971  0.39731  0.25529  Biso   1.000  C
  O6       1.0000 0.29533  0.51601  0.23372  Biso   1.000  O
  H8       1.0000 0.29803  0.53308  0.39698  Biso   1.000  H
  H9       1.0000 0.52504  0.58521  0.30696  Biso   1.000  H
  C9       1.0000 0.68964  0.60041  0.41636  Biso   1.000  C
  O7       1.0000 0.67869  0.56201  0.59211  Biso   1.000  O
  H10      1.0000 0.57102  0.59131  0.51997  Biso   1.000  H
  C10      1.0000 0.39161  0.35581  0.31342  Biso   1.000  C
  C11      1.0000 0.37861  0.39901  0.13331  Biso   1.000  C
  H11      1.0000 0.27401  0.39680  0.26502  Biso   1.000  H
  H12      1.0000 0.23599  0.51618  0.24102  Biso   1.000  H
  C12      1.0000 0.78073  0.57411  0.38532  Biso   1.000  C
  O8       1.0000 0.63350  0.61308  0.32223  Biso   1.000  O
  H13      1.0000 0.70701  0.62869  0.46200  Biso   1.000  H
  C13      1.0000 0.76489  0.53451  0.57659  Biso   1.000  C
  O9       1.0000 0.36409  0.31560  0.25193  Biso   1.000  O
  C14      1.0000 0.35533  0.34889  0.43221  Biso   1.000  C
  H14      1.0000 0.46401  0.36119  0.30604  Biso   1.000  H
  C15      1.0000 0.35591  0.35489  0.07441  Biso   1.000  C
  O10      1.0000 0.32861  0.43530  0.07727  Biso   1.000  O
  H15      1.0000 0.45504  0.40450  0.12903  Biso   1.000  H
  C16      1.0000 0.83343  0.55462  0.48758  Biso   1.000  C
  O11      1.0000 0.84299  0.60511  0.32500  Biso   1.000  O
  H16      1.0000 0.75701  0.54589  0.32601  Biso   1.000  H
  H17      1.0000 0.67401  0.61761  0.27601  Biso   1.000  H
  C17      1.0000 0.81000  0.53380  0.69639  Biso   1.000  C
  H18      1.0000 0.74299  0.50279  0.55302  Biso   1.000  H
  C18      1.0000 0.39861  0.31509  0.14094  Biso   1.000  C
  O12      1.0000 0.25299  0.34532  0.43314  Biso   1.000  O
  H19      1.0000 0.38102  0.37591  0.48104  Biso   1.000  H
  H20      1.0000 0.38803  0.32041  0.45797  Biso   1.000  H
  H21      1.0000 0.28504  0.35090  0.07601  Biso   1.000  H
  O13      1.0000 0.39153  0.35400  0.96233  Biso   1.000  O
  H22      1.0000 0.33401  0.45891  0.13003  Biso   1.000  H
  O14      1.0000 0.89591  0.52051  0.43809  Biso   1.000  O
  H23      1.0000 0.87504  0.57928  0.52500  Biso   1.000  H
  H24      1.0000 0.87898  0.59029  0.28003  Biso   1.000  H
  O15      1.0000 0.82861  0.58031  0.73532  Biso   1.000  O
  H25      1.0000 0.75599  0.51451  0.74899  Biso   1.000  H
  H26      1.0000 0.87000  0.52051  0.70503  Biso   1.000  H
  O16      1.0000 0.50102  0.31911  0.13809  Biso   1.000  O
  H27      1.0000 0.37599  0.28399  0.10604  Biso   1.000  H
  H28      1.0000 0.22898  0.35411  0.48901  Biso   1.000  H
  H29      1.0000 0.45898  0.34569  0.96703  Biso   1.000  H
  C19      1.0000 0.97328  0.50290  0.50294  Biso   1.000  C
  C20      1.0000 0.55730  0.28099  0.09992  Biso   1.000  C
  O17      1.0000 0.94577  0.46160  0.55738  Biso   1.000  O
  C21      1.0000 0.06036  0.49421  0.42668  Biso   1.000  C
  H30      1.0000 0.99102  0.52419  0.56896  Biso   1.000  H
  C22      1.0000 0.63022  0.30089  0.01711  Biso   1.000  C
  C23      1.0000 0.60759  0.25860  0.20008  Biso   1.000  C
  H31      1.0000 0.51299  0.25891  0.06300  Biso   1.000  H
  C24      1.0000 0.91898  0.42538  0.48112  Biso   1.000  C
  C25      1.0000 0.03533  0.45799  0.34128  Biso   1.000  C
  O18      1.0000 0.09139  0.53441  0.36997  Biso   1.000  O
  H32      1.0000 0.11299  0.48419  0.47701  Biso   1.000  H
  H33      1.0000 0.66401  0.33029  0.05000  Biso   1.000  H
  C26      1.0000 0.70737  0.26600  0.98792  Biso   1.000  C
  O19      1.0000 0.57650  0.31489  0.91980  Biso   1.000  O
  C27      1.0000 0.53803  0.22940  0.26854  Biso   1.000  C
  O20      1.0000 0.68467  0.22848  0.16309  Biso   1.000  O
  H34      1.0000 0.64000  0.28382  0.25000  Biso   1.000  H
  C28      1.0000 0.00511  0.41499  0.40327  Biso   1.000  C
  C29      1.0000 0.89190  0.38501  0.55260  Biso   1.000  C
  H35      1.0000 0.86000  0.43319  0.43498  Biso   1.000  H
  H36      1.0000 0.97299  0.46801  0.28800  Biso   1.000  H
  O21      1.0000 0.11898  0.45060  0.27232  Biso   1.000  O
  H37      1.0000 0.10599  0.55009  0.41896  Biso   1.000  H
  C30      1.0000 0.75613  0.24971  0.09446  Biso   1.000  C
  O22      1.0000 0.78029  0.28532  0.91594  Biso   1.000  O
  H38      1.0000 0.68102  0.23799  0.95302  Biso   1.000  H
  H39      1.0000 0.61701  0.33779  0.87701  Biso   1.000  H
  O23      1.0000 0.58292  0.21339  0.36862  Biso   1.000  O
  H40      1.0000 0.48000  0.24661  0.28700  Biso   1.000  H
  H41      1.0000 0.51102  0.20269  0.22601  Biso   1.000  H
  O24      1.0000 0.97380  0.38239  0.32139  Biso   1.000  O
  H42      1.0000 0.06000  0.40361  0.44203  Biso   1.000  H
  O25      1.0000 0.80270  0.39329  0.61183  Biso   1.000  O
  H43      1.0000 0.94599  0.37639  0.60302  Biso   1.000  H
  H44      1.0000 0.88197  0.35550  0.50797  Biso   1.000  H
  H45      1.0000 0.09803  0.42951  0.22198  Biso   1.000  H
  O26      1.0000 0.79577  0.28801  0.14841  Biso   1.000  O
  H46      1.0000 0.81000  0.22889  0.07701  Biso   1.000  H
  H47      1.0000 0.76504  0.28239  0.84497  Biso   1.000  H
  H48      1.0000 0.61197  0.18859  0.35201  Biso   1.000  H
  C31      1.0000 0.03161  0.34269  0.30738  Biso   1.000  C
  H49      1.0000 0.73898  0.38089  0.56602  Biso   1.000  H
  C32      1.0000 0.89467  0.28671  0.18809  Biso   1.000  C
  C33      1.0000 0.04496  0.33441  0.18247  Biso   1.000  C
  O27      1.0000 0.98701  0.30470  0.35822  Biso   1.000  O
  H50      1.0000 0.09299  0.34770  0.34899  Biso   1.000  H
  C34      1.0000 0.94628  0.32579  0.12928  Biso   1.000  C
  C35      1.0000 0.89182  0.29349  0.31552  Biso   1.000  C
  H51      1.0000 0.92401  0.25659  0.17097  Biso   1.000  H
  O28      1.0000 0.09161  0.37349  0.13658  Biso   1.000  O
  H52      1.0000 0.07701  0.30719  0.17601  Biso   1.000  H
  O29      1.0000 0.96051  0.31560  0.01376  Biso   1.000  O
  H53      1.0000 0.90701  0.35291  0.13700  Biso   1.000  H
  C36      1.0000 0.86117  0.25060  0.37567  Biso   1.000  C
  H54      1.0000 0.83599  0.31721  0.32601  Biso   1.000  H
  H55      1.0000 0.10197  0.36279  0.07802  Biso   1.000  H
  H56      1.0000 0.90000  0.30869  0.98599  Biso   1.000  H
  O30      1.0000 0.92569  0.21370  0.35059  Biso   1.000  O
  H57      1.0000 0.86197  0.25789  0.46401  Biso   1.000  H
  H58      1.0000 0.78803  0.24150  0.34497  Biso   1.000  H
  H59      1.0000 0.98000  0.21881  0.38196  Biso   1.000  H
  O31      1.0000 0.38102  0.54940  0.77232  Biso   1.000  O
  C37      1.0000 0.46467  0.54201  0.84128  Biso   1.000  C
  H60      1.0000 0.40197  0.57049  0.72198  Biso   1.000  H
  C38      1.0000 0.43964  0.50579  0.92668  Biso   1.000  C
  C39      1.0000 0.49489  0.58501  0.90327  Biso   1.000  C
  H61      1.0000 0.52701  0.53199  0.78800  Biso   1.000  H
  C40      1.0000 0.52672  0.49710  0.00294  Biso   1.000  C
  O32      1.0000 0.40861  0.46559  0.86997  Biso   1.000  O
  H62      1.0000 0.38701  0.51581  0.97701  Biso   1.000  H
  C41      1.0000 0.58102  0.57462  0.98112  Biso   1.000  C
  O33      1.0000 0.52620  0.61761  0.82139  Biso   1.000  O
  H63      1.0000 0.44000  0.59639  0.94203  Biso   1.000  H
  O34      1.0000 0.60409  0.47949  0.93809  Biso   1.000  O
  O35      1.0000 0.55423  0.53840  0.05738  Biso   1.000  O
  H64      1.0000 0.50898  0.47581  0.06896  Biso   1.000  H
  H65      1.0000 0.39401  0.44991  0.91896  Biso   1.000  H
  H66      1.0000 0.64000  0.56681  0.93498  Biso   1.000  H
  C42      1.0000 0.60810  0.61499  0.05260  Biso   1.000  C
  C43      1.0000 0.46839  0.65731  0.80738  Biso   1.000  C
  C44      1.0000 0.66657  0.44538  0.98758  Biso   1.000  C
  O36      1.0000 0.69730  0.60671  0.11183  Biso   1.000  O
  H67      1.0000 0.55401  0.62361  0.10302  Biso   1.000  H
  H68      1.0000 0.61803  0.64450  0.00797  Biso   1.000  H
  C45      1.0000 0.45504  0.66559  0.68247  Biso   1.000  C
  O37      1.0000 0.51299  0.69530  0.85822  Biso   1.000  O
  H69      1.0000 0.40701  0.65230  0.84899  Biso   1.000  H
  C46      1.0000 0.71927  0.42589  0.88532  Biso   1.000  C
  C47      1.0000 0.73511  0.46549  0.07659  Biso   1.000  C
  H70      1.0000 0.62496  0.42072  0.02500  Biso   1.000  H
  H71      1.0000 0.76102  0.61911  0.06602  Biso   1.000  H
  C48      1.0000 0.55372  0.67421  0.62928  Biso   1.000  C
  O38      1.0000 0.40839  0.62651  0.63658  Biso   1.000  O
  H72      1.0000 0.42299  0.69281  0.67601  Biso   1.000  H
  C49      1.0000 0.60818  0.70651  0.81552  Biso   1.000  C
  O39      1.0000 0.65701  0.39489  0.82500  Biso   1.000  O
  C50      1.0000 0.81036  0.39959  0.91636  Biso   1.000  C
  H73      1.0000 0.74299  0.45411  0.82601  Biso   1.000  H
  O40      1.0000 0.82131  0.43799  0.09211  Biso   1.000  O
  C51      1.0000 0.69000  0.46620  0.19639  Biso   1.000  C
  H74      1.0000 0.75701  0.49721  0.05302  Biso   1.000  H
  C52      1.0000 0.60533  0.71329  0.68809  Biso   1.000  C
  O41      1.0000 0.53949  0.68440  0.51376  Biso   1.000  O
  H75      1.0000 0.59299  0.64709  0.63700  Biso   1.000  H
  H76      1.0000 0.39803  0.63721  0.57802  Biso   1.000  H
  C53      1.0000 0.63883  0.74940  0.87567  Biso   1.000  C
  H77      1.0000 0.66401  0.68279  0.82601  Biso   1.000  H
  H78      1.0000 0.62102  0.40971  0.78003  Biso   1.000  H
  C54      1.0000 0.87438  0.42719  0.99497  Biso   1.000  C
  O42      1.0000 0.86650  0.38692  0.82223  Biso   1.000  O
  H79      1.0000 0.79299  0.37131  0.96200  Biso   1.000  H
  O43      1.0000 0.67139  0.41969  0.23532  Biso   1.000  O
  H80      1.0000 0.74401  0.48549  0.24899  Biso   1.000  H
  H81      1.0000 0.63000  0.47949  0.20503  Biso   1.000  H
  O44      1.0000 0.70423  0.71199  0.64841  Biso   1.000  O
  H82      1.0000 0.57599  0.74341  0.67097  Biso   1.000  H
  H83      1.0000 0.60000  0.69131  0.48599  Biso   1.000  H
  O45      1.0000 0.57431  0.78630  0.85059  Biso   1.000  O
  H84      1.0000 0.63803  0.74211  0.96401  Biso   1.000  H
  H85      1.0000 0.71197  0.75850  0.84497  Biso   1.000  H
  O46      1.0000 0.90642  0.46709  0.93909  Biso   1.000  O
  H86      1.0000 0.92898  0.40869  0.01997  Biso   1.000  H
  H87      1.0000 0.82599  0.38239  0.77601  Biso   1.000  H
  C55      1.0000 0.74387  0.75029  0.59446  Biso   1.000  C
  H88      1.0000 0.52000  0.78119  0.88196  Biso   1.000  H
  C56      1.0000 0.00883  0.47789  0.95092  Biso   1.000  C
  C57      1.0000 0.79263  0.73400  0.48792  Biso   1.000  C
  O47      1.0000 0.81533  0.77152  0.66309  Biso   1.000  O
  H89      1.0000 0.69000  0.77111  0.57701  Biso   1.000  H
  C58      1.0000 0.05679  0.47121  0.83758  Biso   1.000  C
  C59      1.0000 0.01781  0.52739  0.99102  Biso   1.000  C
  H90      1.0000 0.03701  0.45922  0.00998  Biso   1.000  H
  C60      1.0000 0.86978  0.69911  0.51711  Biso   1.000  C
  O48      1.0000 0.71971  0.71468  0.41594  Biso   1.000  O
  H91      1.0000 0.81898  0.76201  0.45302  Biso   1.000  H
  C61      1.0000 0.89241  0.74140  0.70008  Biso   1.000  C
  C62      1.0000 0.16219  0.48719  0.84270  Biso   1.000  C
  O49      1.0000 0.05409  0.42382  0.80612  Biso   1.000  O
  H92      1.0000 0.01803  0.48951  0.77802  Biso   1.000  H
  H93      1.0000 0.97898  0.54739  0.94102  Biso   1.000  H
  C63      1.0000 0.98277  0.53370  0.10998  Biso   1.000  C
  O50      1.0000 0.11869  0.54010  0.98993  Biso   1.000  O
  C64      1.0000 0.94270  0.71901  0.59992  Biso   1.000  C
  O51      1.0000 0.92350  0.68511  0.41980  Biso   1.000  O
  H94      1.0000 0.83599  0.66971  0.55000  Biso   1.000  H
  H95      1.0000 0.73504  0.71761  0.34497  Biso   1.000  H
  C65      1.0000 0.96197  0.77060  0.76854  Biso   1.000  C
  H96      1.0000 0.86000  0.71618  0.75000  Biso   1.000  H
  C66      1.0000 0.16234  0.53710  0.88289  Biso   1.000  C
  O52      1.0000 0.20467  0.48399  0.73372  Biso   1.000  O
  H97      1.0000 0.20197  0.46692  0.89698  Biso   1.000  H
  H98      1.0000 0.97496  0.41479  0.80696  Biso   1.000  H
  O53      1.0000 0.97080  0.58089  0.13800  Biso   1.000  O
  H99      1.0000 0.91102  0.52211  0.10998  Biso   1.000  H
  H100     1.0000 0.02898  0.51922  0.16502  Biso   1.000  H
  O54      1.0000 0.99898  0.68089  0.63809  Biso   1.000  O
  H101     1.0000 0.98701  0.74109  0.56300  Biso   1.000  H
  H102     1.0000 0.88299  0.66221  0.37701  Biso   1.000  H
  O55      1.0000 0.91708  0.78661  0.86862  Biso   1.000  O
  H103     1.0000 0.98898  0.79731  0.72601  Biso   1.000  H
  H104     1.0000 0.02000  0.75339  0.78700  Biso   1.000  H
  O56      1.0000 0.10883  0.56201  0.80294  Biso   1.000  O
  H105     1.0000 0.23197  0.54681  0.88700  Biso   1.000  H
  H106     1.0000 0.26401  0.48382  0.74102  Biso   1.000  H
  H107     1.0000 0.03000  0.59571  0.16602  Biso   1.000  H
  C67      1.0000 0.10139  0.68491  0.64094  Biso   1.000  C
  H108     1.0000 0.88803  0.81141  0.85201  Biso   1.000  H
  C68      1.0000 0.15029  0.60269  0.75529  Biso   1.000  C
  C69      1.0000 0.14409  0.64511  0.57441  Biso   1.000  C
  O57      1.0000 0.13591  0.68440  0.75193  Biso   1.000  O
  H109     1.0000 0.12401  0.71601  0.60604  Biso   1.000  H
  C70      1.0000 0.12139  0.60099  0.63331  Biso   1.000  C
  C71      1.0000 0.10839  0.64419  0.81342  Biso   1.000  C
  H110     1.0000 0.22599  0.60320  0.76502  Biso   1.000  H
  O58      1.0000 0.10847  0.64600  0.46233  Biso   1.000  O
  H111     1.0000 0.21504  0.64910  0.57601  Biso   1.000  H
  O59      1.0000 0.17139  0.56470  0.57727  Biso   1.000  O
  H112     1.0000 0.04504  0.59550  0.62903  Biso   1.000  H
  C72      1.0000 0.14467  0.65111  0.93221  Biso   1.000  C
  H113     1.0000 0.03599  0.63881  0.80604  Biso   1.000  H
  H114     1.0000 0.04102  0.65431  0.46703  Biso   1.000  H
  H115     1.0000 0.16599  0.54109  0.63003  Biso   1.000  H
  O60      1.0000 0.24701  0.65468  0.93314  Biso   1.000  O
  H116     1.0000 0.11898  0.62409  0.98104  Biso   1.000  H
  H117     1.0000 0.11197  0.67959  0.95797  Biso   1.000  H
  H118     1.0000 0.27102  0.64589  0.98901  Biso   1.000  H
  O61      1.0000 0.42569  0.28630  0.64941  Biso   1.000  O
  C73      1.0000 0.36117  0.24940  0.62433  Biso   1.000  C
  H119     1.0000 0.48000  0.28119  0.61804  Biso   1.000  H
  C74      1.0000 0.39182  0.20651  0.68448  Biso   1.000  C
  H120     1.0000 0.36197  0.24211  0.53599  Biso   1.000  H
  H121     1.0000 0.28803  0.25850  0.65503  Biso   1.000  H
  O62      1.0000 0.48701  0.19530  0.64178  Biso   1.000  O
  C75      1.0000 0.39467  0.21329  0.81191  Biso   1.000  C
  H122     1.0000 0.33599  0.18279  0.67399  Biso   1.000  H
  C76      1.0000 0.53161  0.15731  0.69262  Biso   1.000  C
  C77      1.0000 0.44628  0.17421  0.87072  Biso   1.000  C
  O63      1.0000 0.29577  0.21199  0.85159  Biso   1.000  O
  H123     1.0000 0.42401  0.24341  0.82903  Biso   1.000  H
  O64      1.0000 0.47380  0.11761  0.67861  Biso   1.000  O
  C78      1.0000 0.54504  0.16559  0.81753  Biso   1.000  C
  H124     1.0000 0.59299  0.15230  0.65101  Biso   1.000  H
  O65      1.0000 0.46051  0.18440  0.98624  Biso   1.000  O
  H125     1.0000 0.40701  0.14709  0.86300  Biso   1.000  H
  C79      1.0000 0.25613  0.25029  0.90554  Biso   1.000  C
  C80      1.0000 0.50511  0.08501  0.59673  Biso   1.000  C
  O66      1.0000 0.59161  0.12651  0.86342  Biso   1.000  O
  H126     1.0000 0.57701  0.19281  0.82399  Biso   1.000  H
  H127     1.0000 0.40000  0.19131  0.01401  Biso   1.000  H
  O67      1.0000 0.18467  0.27152  0.83691  Biso   1.000  O
  H128     1.0000 0.31000  0.27111  0.92299  Biso   1.000  H
  C81      1.0000 0.20737  0.23400  0.01208  Biso   1.000  C
  C82      1.0000 0.41898  0.07462  0.51888  Biso   1.000  C
  C83      1.0000 0.53533  0.04201  0.65872  Biso   1.000  C
  H129     1.0000 0.56000  0.09639  0.55797  Biso   1.000  H
  H130     1.0000 0.60197  0.13721  0.92198  Biso   1.000  H
  C84      1.0000 0.10759  0.24140  0.79992  Biso   1.000  C
  C85      1.0000 0.13022  0.19911  0.98289  Biso   1.000  C
  O68      1.0000 0.28029  0.21468  0.08406  Biso   1.000  O
  H131     1.0000 0.18102  0.26201  0.04698  Biso   1.000  H
  C86      1.0000 0.39190  0.11499  0.44740  Biso   1.000  C
  O69      1.0000 0.44577  0.03840  0.44262  Biso   1.000  O
  H132     1.0000 0.36000  0.06681  0.56502  Biso   1.000  H
  C87      1.0000 0.56036  0.00579  0.57332  Biso   1.000  C
  O70      1.0000 0.61898  0.04940  0.72768  Biso   1.000  O
  H133     1.0000 0.47299  0.03199  0.71200  Biso   1.000  H
  C88      1.0000 0.05730  0.21901  0.90008  Biso   1.000  C
  C89      1.0000 0.03803  0.27060  0.73146  Biso   1.000  C
  H134     1.0000 0.14000  0.21618  0.75000  Biso   1.000  H
  H135     1.0000 0.16401  0.16971  0.95000  Biso   1.000  H
  O71      1.0000 0.07650  0.18511  0.08020  Biso   1.000  O
  H136     1.0000 0.26504  0.21761  0.15503  Biso   1.000  H
  O72      1.0000 0.30270  0.10671  0.38817  Biso   1.000  O
  H137     1.0000 0.44599  0.12361  0.39698  Biso   1.000  H
  H138     1.0000 0.38197  0.14450  0.49203  Biso   1.000  H
  C90      1.0000 0.47328  0.99710  0.49706  Biso   1.000  C
  H139     1.0000 0.61299  0.01581  0.52299  Biso   1.000  H
  O73      1.0000 0.59139  0.96559  0.63003  Biso   1.000  O
  H140     1.0000 0.59803  0.07049  0.77802  Biso   1.000  H
  O74      1.0000 0.00102  0.18089  0.86191  Biso   1.000  O
  H141     1.0000 0.01299  0.24109  0.93700  Biso   1.000  H
  O75      1.0000 0.08292  0.28661  0.63138  Biso   1.000  O
  H142     1.0000 0.01102  0.29731  0.77399  Biso   1.000  H
  H143     1.0000 0.98000  0.25339  0.71300  Biso   1.000  H
  H144     1.0000 0.11701  0.16221  0.12299  Biso   1.000  H
  H145     1.0000 0.23898  0.11911  0.43398  Biso   1.000  H
  O76      1.0000 0.39591  0.97949  0.56191  Biso   1.000  O
  H146     1.0000 0.49102  0.97581  0.43104  Biso   1.000  H
  H147     1.0000 0.60599  0.94991  0.58104  Biso   1.000  H
  C91      1.0000 0.89861  0.18491  0.85906  Biso   1.000  C
  H148     1.0000 0.11197  0.31141  0.64799  Biso   1.000  H
  C92      1.0000 0.33343  0.94538  0.51242  Biso   1.000  C
  C93      1.0000 0.85591  0.14511  0.92559  Biso   1.000  C
  O77      1.0000 0.86409  0.18440  0.74807  Biso   1.000  O
  H149     1.0000 0.87599  0.21601  0.89396  Biso   1.000  H
  C94      1.0000 0.28073  0.92589  0.61468  Biso   1.000  C
  C95      1.0000 0.26489  0.96549  0.42341  Biso   1.000  C
  H150     1.0000 0.37504  0.92072  0.47500  Biso   1.000  H
  C96      1.0000 0.87861  0.10099  0.86669  Biso   1.000  C
  H151     1.0000 0.78504  0.14910  0.92399  Biso   1.000  H
  O78      1.0000 0.89153  0.14600  0.03767  Biso   1.000  O
  C97      1.0000 0.89161  0.14419  0.68658  Biso   1.000  C
  C98      1.0000 0.18964  0.89959  0.58364  Biso   1.000  C
  O79      1.0000 0.34299  0.89489  0.67500  Biso   1.000  O
  H152     1.0000 0.25701  0.95411  0.67399  Biso   1.000  H
  C99      1.0000 0.31000  0.96620  0.30361  Biso   1.000  C
  O80      1.0000 0.17869  0.93799  0.40789  Biso   1.000  O
  H153     1.0000 0.24299  0.99721  0.44698  Biso   1.000  H
  C100     1.0000 0.84971  0.10269  0.74471  Biso   1.000  C
  O81      1.0000 0.82861  0.06470  0.92273  Biso   1.000  O
  H154     1.0000 0.95504  0.09550  0.87097  Biso   1.000  H
  H155     1.0000 0.95898  0.15431  0.03297  Biso   1.000  H
  C101     1.0000 0.85533  0.15111  0.56779  Biso   1.000  C
  H156     1.0000 0.96401  0.13881  0.69396  Biso   1.000  H
  C102     1.0000 0.12562  0.92719  0.50503  Biso   1.000  C
  O82      1.0000 0.13350  0.88692  0.67777  Biso   1.000  O
  H157     1.0000 0.20701  0.87131  0.53800  Biso   1.000  H
  H158     1.0000 0.37898  0.90971  0.71997  Biso   1.000  H
  O83      1.0000 0.32861  0.91969  0.26468  Biso   1.000  O
  H159     1.0000 0.25599  0.98549  0.25101  Biso   1.000  H
  H160     1.0000 0.37000  0.97949  0.29497  Biso   1.000  H
  O84      1.0000 0.89117  0.06201  0.69706  Biso   1.000  O
  H161     1.0000 0.77401  0.10320  0.73498  Biso   1.000  H
  H162     1.0000 0.83401  0.04109  0.86997  Biso   1.000  H
  O85      1.0000 0.75299  0.15468  0.56686  Biso   1.000  O
  H163     1.0000 0.88102  0.12409  0.51896  Biso   1.000  H
  H164     1.0000 0.88803  0.17959  0.54203  Biso   1.000  H
  O86      1.0000 0.09358  0.96709  0.56091  Biso   1.000  O
  H165     1.0000 0.07102  0.90869  0.48003  Biso   1.000  H
  H166     1.0000 0.17401  0.88239  0.72399  Biso   1.000  H
  C103     1.0000 0.83766  0.03710  0.61711  Biso   1.000  C
  H167     1.0000 0.72898  0.14589  0.51099  Biso   1.000  H
  C104     1.0000 0.99117  0.97789  0.54908  Biso   1.000  C
  C105     1.0000 0.83781  0.98719  0.65730  Biso   1.000  C
  O87      1.0000 0.88131  0.04010  0.51007  Biso   1.000  O
  H168     1.0000 0.76803  0.04681  0.61300  Biso   1.000  H
  C106     1.0000 0.94321  0.97121  0.66242  Biso   1.000  C
  H169     1.0000 0.96299  0.95922  0.49002  Biso   1.000  H
  C107     1.0000 0.98219  0.02739  0.50898  Biso   1.000  C
  O88      1.0000 0.79533  0.98399  0.76628  Biso   1.000  O
  H170     1.0000 0.79803  0.96692  0.60302  Biso   1.000  H
  O89      1.0000 0.94591  0.92382  0.69388  Biso   1.000  O
  H171     1.0000 0.98197  0.98951  0.72198  Biso   1.000  H
  C108     1.0000 0.01723  0.03370  0.39002  Biso   1.000  C
  H172     1.0000 0.02102  0.04739  0.55898  Biso   1.000  H
  H173     1.0000 0.73599  0.98382  0.75898  Biso   1.000  H
  H174     1.0000 0.02504  0.91479  0.69304  Biso   1.000  H
  O90      1.0000 0.02920  0.08089  0.36200  Biso   1.000  O
  H175     1.0000 0.08898  0.02211  0.39002  Biso   1.000  H
  H176     1.0000 0.97102  0.01922  0.33498  Biso   1.000  H
  H177     1.0000 0.97000  0.09571  0.33398  Biso   1.000  H
  O91      1.0000 0.31533  0.72848  0.33691  Biso   1.000  O
  C109     1.0000 0.39241  0.75860  0.29992  Biso   1.000  C
  C110     1.0000 0.24387  0.74971  0.40554  Biso   1.000  C
  C111     1.0000 0.46197  0.72940  0.23146  Biso   1.000  C
  C112     1.0000 0.44270  0.78099  0.40008  Biso   1.000  C
  H178     1.0000 0.36000  0.78382  0.25000  Biso   1.000  H
  C113     1.0000 0.29263  0.76600  0.51208  Biso   1.000  C
  O92      1.0000 0.20423  0.78801  0.35159  Biso   1.000  O
  H179     1.0000 0.19000  0.72889  0.42299  Biso   1.000  H
  O93      1.0000 0.41708  0.71339  0.13138  Biso   1.000  O
  H180     1.0000 0.52000  0.74661  0.21300  Biso   1.000  H
  H181     1.0000 0.48898  0.70269  0.27399  Biso   1.000  H
  C114     1.0000 0.36978  0.80089  0.48289  Biso   1.000  C
  O94      1.0000 0.49898  0.81911  0.36191  Biso   1.000  O
  H182     1.0000 0.48701  0.75891  0.43700  Biso   1.000  H
  O95      1.0000 0.21971  0.78532  0.58406  Biso   1.000  O
  H183     1.0000 0.31898  0.73799  0.54698  Biso   1.000  H
  C115     1.0000 0.10533  0.78671  0.31191  Biso   1.000  C
  H184     1.0000 0.38803  0.68859  0.14799  Biso   1.000  H
  O96      1.0000 0.42350  0.81489  0.58020  Biso   1.000  O
  H185     1.0000 0.33599  0.83029  0.45000  Biso   1.000  H
  C116     1.0000 0.60139  0.81509  0.35906  Biso   1.000  C
  H186     1.0000 0.23504  0.78239  0.65503  Biso   1.000  H
  C117     1.0000 0.05372  0.82579  0.37072  Biso   1.000  C
  C118     1.0000 0.10818  0.79349  0.18448  Biso   1.000  C
  H187     1.0000 0.07599  0.75659  0.32903  Biso   1.000  H
  H188     1.0000 0.38299  0.83779  0.62299  Biso   1.000  H
  C119     1.0000 0.64409  0.85489  0.42559  Biso   1.000  C
  O97      1.0000 0.63591  0.81560  0.24807  Biso   1.000  O
  H189     1.0000 0.62401  0.78399  0.39396  Biso   1.000  H
  O98      1.0000 0.03949  0.81560  0.48624  Biso   1.000  O
  H190     1.0000 0.09299  0.85291  0.36300  Biso   1.000  H
  C120     1.0000 0.95504  0.83441  0.31753  Biso   1.000  C
  C121     1.0000 0.13883  0.75060  0.12433  Biso   1.000  C
  O99      1.0000 0.01299  0.80470  0.14178  Biso   1.000  O
  H191     1.0000 0.16401  0.81721  0.17399  Biso   1.000  H
  C122     1.0000 0.62139  0.89901  0.36669  Biso   1.000  C
  O100     1.0000 0.60847  0.85400  0.53767  Biso   1.000  O
  H192     1.0000 0.71504  0.85090  0.42399  Biso   1.000  H
  C123     1.0000 0.60839  0.85581  0.18658  Biso   1.000  C
  H193     1.0000 0.10000  0.80869  0.51401  Biso   1.000  H
  C124     1.0000 0.96839  0.84269  0.19262  Biso   1.000  C
  O101     1.0000 0.90839  0.87349  0.36342  Biso   1.000  O
  H194     1.0000 0.92299  0.80719  0.32399  Biso   1.000  H
  O102     1.0000 0.07431  0.71370  0.14941  Biso   1.000  O
  H195     1.0000 0.13803  0.75789  0.03599  Biso   1.000  H
  H196     1.0000 0.21197  0.74150  0.15503  Biso   1.000  H
  C125     1.0000 0.65029  0.89731  0.24471  Biso   1.000  C
  O103     1.0000 0.67139  0.93530  0.42273  Biso   1.000  O
  H197     1.0000 0.54504  0.90450  0.37097  Biso   1.000  H
  H198     1.0000 0.54102  0.84569  0.53297  Biso   1.000  H
  C126     1.0000 0.64467  0.84889  0.06779  Biso   1.000  C
  H199     1.0000 0.53599  0.86119  0.19396  Biso   1.000  H
  O104     1.0000 0.02620  0.88239  0.17861  Biso   1.000  O
  H200     1.0000 0.90701  0.84770  0.15101  Biso   1.000  H
  H201     1.0000 0.89803  0.86279  0.42198  Biso   1.000  H
  H202     1.0000 0.02000  0.71881  0.11804  Biso   1.000  H
  O105     1.0000 0.60883  0.93799  0.19706  Biso   1.000  O
  H203     1.0000 0.72599  0.89680  0.23498  Biso   1.000  H
  H204     1.0000 0.66599  0.95891  0.36997  Biso   1.000  H
  O106     1.0000 0.74701  0.84532  0.06686  Biso   1.000  O
  H205     1.0000 0.61898  0.87591  0.01896  Biso   1.000  H
  H206     1.0000 0.61197  0.82041  0.04203  Biso   1.000  H
  C127     1.0000 0.99489  0.91499  0.09673  Biso   1.000  C
  C128     1.0000 0.66234  0.96290  0.11711  Biso   1.000  C
  H207     1.0000 0.77102  0.85411  0.01099  Biso   1.000  H
  C129     1.0000 0.08102  0.92538  0.01888  Biso   1.000  C
  C130     1.0000 0.96467  0.95799  0.15872  Biso   1.000  C
  H208     1.0000 0.94000  0.90361  0.05797  Biso   1.000  H
  O107     1.0000 0.61869  0.95990  0.01007  Biso   1.000  O
  H209     1.0000 0.73197  0.95319  0.11300  Biso   1.000  H
  C131     1.0000 0.66219  0.01281  0.15730  Biso   1.000  C
  H210     1.0000 0.14000  0.93319  0.06502  Biso   1.000  H
  C132     1.0000 0.10810  0.88501  0.94740  Biso   1.000  C
  O108     1.0000 0.05423  0.96160  0.94262  Biso   1.000  O
  H211     1.0000 0.02701  0.96801  0.21200  Biso   1.000  H
  C133     1.0000 0.93964  0.99421  0.07332  Biso   1.000  C
  O109     1.0000 0.88102  0.95060  0.22768  Biso   1.000  O
  C134     1.0000 0.51781  0.97261  0.00898  Biso   1.000  C
  C135     1.0000 0.55679  0.02879  0.16242  Biso   1.000  C
  O110     1.0000 0.70467  0.01601  0.26628  Biso   1.000  O
  H212     1.0000 0.70197  0.03308  0.10302  Biso   1.000  H
  O111     1.0000 0.19730  0.89329  0.88817  Biso   1.000  O
  H213     1.0000 0.05401  0.87639  0.89698  Biso   1.000  H
  H214     1.0000 0.11803  0.85550  0.99203  Biso   1.000  H
  C136     1.0000 0.02672  0.00290  0.99706  Biso   1.000  C
  H215     1.0000 0.88701  0.98419  0.02299  Biso   1.000  H
  O112     1.0000 0.90861  0.03441  0.13003  Biso   1.000  O
  H216     1.0000 0.90197  0.92951  0.27802  Biso   1.000  H
  H217     1.0000 0.47898  0.95261  0.05898  Biso   1.000  H
  C137     1.0000 0.48277  0.96630  0.89002  Biso   1.000  C
  C138     1.0000 0.50883  0.02211  0.04908  Biso   1.000  C
  O113     1.0000 0.55409  0.07618  0.19388  Biso   1.000  O
  H218     1.0000 0.51803  0.01049  0.22198  Biso   1.000  H
  H219     1.0000 0.76401  0.01618  0.25898  Biso   1.000  H
  H220     1.0000 0.26102  0.88089  0.93398  Biso   1.000  H
  H221     1.0000 0.00898  0.02419  0.93104  Biso   1.000  H
  O114     1.0000 0.10409  0.02051  0.06191  Biso   1.000  O
  H222     1.0000 0.89401  0.05009  0.08104  Biso   1.000  H
  O115     1.0000 0.47080  0.91911  0.86200  Biso   1.000  O
  H223     1.0000 0.52898  0.98078  0.83498  Biso   1.000  H
  H224     1.0000 0.41102  0.97789  0.89002  Biso   1.000  H
  H225     1.0000 0.53701  0.04078  0.99002  Biso   1.000  H
  O116     1.0000 0.40642  0.03291  0.06091  Biso   1.000  O
  H226     1.0000 0.47504  0.08521  0.19304  Biso   1.000  H
  C139     1.0000 0.16657  0.05462  0.01242  Biso   1.000  C
  H227     1.0000 0.53000  0.90429  0.83398  Biso   1.000  H
  C140     1.0000 0.37438  0.07281  0.00503  Biso   1.000  C
  C141     1.0000 0.23511  0.03451  0.92341  Biso   1.000  C
  C142     1.0000 0.21927  0.07411  0.11468  Biso   1.000  C
  H228     1.0000 0.12504  0.07928  0.97500  Biso   1.000  H
  O117     1.0000 0.32131  0.06201  0.90789  Biso   1.000  O
  H229     1.0000 0.42898  0.09131  0.98003  Biso   1.000  H
  C143     1.0000 0.31036  0.10041  0.08364  Biso   1.000  C
  C144     1.0000 0.19000  0.03380  0.80361  Biso   1.000  C
  H230     1.0000 0.25701  0.00279  0.94698  Biso   1.000  H
  O118     1.0000 0.15701  0.10511  0.17500  Biso   1.000  O
  H231     1.0000 0.24299  0.04589  0.17399  Biso   1.000  H
  O119     1.0000 0.36650  0.11308  0.17777  Biso   1.000  O
  H232     1.0000 0.29299  0.12869  0.03800  Biso   1.000  H
  O120     1.0000 0.17139  0.08031  0.76468  Biso   1.000  O
  H233     1.0000 0.24401  0.01451  0.75101  Biso   1.000  H
  H234     1.0000 0.13000  0.02051  0.79497  Biso   1.000  H
  H235     1.0000 0.12102  0.09029  0.21997  Biso   1.000  H
  H236     1.0000 0.32599  0.11761  0.22399  Biso   1.000  H
