data_image0
_cell_length_a       14.856
_cell_length_b       33.991
_cell_length_c       9.517
_cell_angle_alpha    90
_cell_angle_beta     90
_cell_angle_gamma    90

_symmetry_space_group_name_H-M    "P 1"
_symmetry_int_tables_number       1

loop_
  _symmetry_equiv_pos_as_xyz
  'x, y, z'

loop_
  _atom_site_label
  _atom_site_occupancy
  _atom_site_fract_x
  _atom_site_fract_y
  _atom_site_fract_z
  _atom_site_thermal_displace_type
  _atom_site_B_iso_or_equiv
  _atom_site_type_symbol
  C1       1.0000 0.53998  0.49510  0.44846  Biso   1.000  C
  C2       1.0000 0.56152  0.45250  0.48314  Biso   1.000  C
  C3       1.0000 0.44009  0.50460  0.47378  Biso   1.000  C
  H1       1.0000 0.55398  0.49999  0.34696  Biso   1.000  H
  O1       1.0000 0.59922  0.52070  0.52254  Biso   1.000  O
  O2       1.0000 0.54597  0.44500  0.62887  Biso   1.000  O
  H2       1.0000 0.62702  0.44700  0.46296  Biso   1.000  H
  O3       1.0000 0.50357  0.42900  0.39939  Biso   1.000  O
  C4       1.0000 0.38113  0.47639  0.39151  Biso   1.000  C
  H3       1.0000 0.42602  0.50199  0.57602  Biso   1.000  H
  O4       1.0000 0.41943  0.54379  0.42755  Biso   1.000  O
  H4       1.0000 0.58502  0.52499  0.59998  Biso   1.000  H
  C5       1.0000 0.59908  0.41429  0.69423  Biso   1.000  C
  C6       1.0000 0.40778  0.43370  0.42482  Biso   1.000  C
  H5       1.0000 0.39001  0.48001  0.29001  Biso   1.000  H
  O5       1.0000 0.28938  0.48260  0.43270  Biso   1.000  O
  H6       1.0000 0.44999  0.54100  0.36997  Biso   1.000  H
  C7       1.0000 0.57869  0.41891  0.84985  Biso   1.000  C
  C8       1.0000 0.57351  0.37260  0.64127  Biso   1.000  C
  H7       1.0000 0.66303  0.41899  0.67805  Biso   1.000  H
  C9       1.0000 0.36322  0.40390  0.33057  Biso   1.000  C
  H8       1.0000 0.39297  0.42800  0.52695  Biso   1.000  H
  C10      1.0000 0.23068  0.49610  0.32699  Biso   1.000  C
  C11      1.0000 0.61638  0.38469  0.93590  Biso   1.000  C
  H9       1.0000 0.51198  0.41999  0.86204  Biso   1.000  H
  O6       1.0000 0.61800  0.45480  0.89808  Biso   1.000  O
  O7       1.0000 0.60851  0.34259  0.73626  Biso   1.000  O
  C12      1.0000 0.61470  0.36060  0.49974  Biso   1.000  C
  H10      1.0000 0.50801  0.37001  0.63297  Biso   1.000  H
  H11      1.0000 0.37702  0.40599  0.22896  Biso   1.000  H
  H12      1.0000 0.28998  0.40599  0.33403  Biso   1.000  H
  O8       1.0000 0.38133  0.36521  0.38079  Biso   1.000  O
  C13      1.0000 0.15819  0.52099  0.40055  Biso   1.000  C
  H13      1.0000 0.26602  0.51399  0.25996  Biso   1.000  H
  O9       1.0000 0.19137  0.46439  0.25029  Biso   1.000  O
  C14      1.0000 0.58212  0.34639  0.87790  Biso   1.000  C
  H14      1.0000 0.68302  0.38501  0.92802  Biso   1.000  H
  O10      1.0000 0.59303  0.38860  0.07975  Biso   1.000  O
  H15      1.0000 0.55499  0.46601  0.97499  Biso   1.000  H
  H16      1.0000 0.59101  0.37701  0.42303  Biso   1.000  H
  H17      1.0000 0.60400  0.33200  0.48198  Biso   1.000  H
  O11      1.0000 0.70948  0.36601  0.50163  Biso   1.000  O
  H18      1.0000 0.39997  0.36301  0.45004  Biso   1.000  H
  C15      1.0000 0.10003  0.49490  0.49081  Biso   1.000  C
  H19      1.0000 0.11699  0.53299  0.32500  Biso   1.000  H
  O12      1.0000 0.19729  0.55259  0.47578  Biso   1.000  O
  C16      1.0000 0.14028  0.43809  0.33950  Biso   1.000  C
  O13      1.0000 0.48782  0.34580  0.89104  Biso   1.000  O
  H20      1.0000 0.60999  0.32400  0.93401  Biso   1.000  H
  H21      1.0000 0.56502  0.40499  0.16003  Biso   1.000  H
  H22      1.0000 0.73001  0.37001  0.57497  Biso   1.000  H
  C17      1.0000 0.06200  0.46100  0.40244  Biso   1.000  C
  H23      1.0000 0.13900  0.48401  0.56699  Biso   1.000  H
  O14      1.0000 0.02807  0.51711  0.55122  Biso   1.000  O
  H24      1.0000 0.25000  0.54600  0.51203  Biso   1.000  H
  C18      1.0000 0.11329  0.40299  0.25229  Biso   1.000  C
  H25      1.0000 0.18100  0.42900  0.41799  Biso   1.000  H
  C19      1.0000 0.44487  0.30961  0.93517  Biso   1.000  C
  O15      1.0000 0.01582  0.43629  0.50026  Biso   1.000  O
  H26      1.0000 0.02201  0.47001  0.32605  Biso   1.000  H
  H27      1.0000 0.00000  0.49999  0.61196  Biso   1.000  H
  H28      1.0000 0.16801  0.39299  0.19996  Biso   1.000  H
  H29      1.0000 0.09397  0.38101  0.31995  Biso   1.000  H
  O16      1.0000 0.04200  0.41261  0.15541  Biso   1.000  O
  C20      1.0000 0.38200  0.29511  0.82179  Biso   1.000  C
  H30      1.0000 0.49199  0.28899  0.95597  Biso   1.000  H
  C21      1.0000 0.39358  0.31870  0.07103  Biso   1.000  C
  C22      1.0000 0.92468  0.42499  0.47242  Biso   1.000  C
  H31      1.0000 0.00303  0.38999  0.11800  Biso   1.000  H
  C23      1.0000 0.42791  0.28269  0.68583  Biso   1.000  C
  H32      1.0000 0.33603  0.31600  0.80004  Biso   1.000  H
  O17      1.0000 0.33502  0.26080  0.87286  Biso   1.000  O
  C24      1.0000 0.33603  0.28349  0.11348  Biso   1.000  C
  H33      1.0000 0.35299  0.34300  0.05296  Biso   1.000  H
  O18      1.0000 0.45840  0.32741  0.17548  Biso   1.000  O
  C25      1.0000 0.87251  0.43191  0.61049  Biso   1.000  C
  O19      1.0000 0.92071  0.38510  0.43386  Biso   1.000  O
  H34      1.0000 0.89903  0.44200  0.39897  Biso   1.000  H
  O20      1.0000 0.35938  0.27619  0.58044  Biso   1.000  O
  H35      1.0000 0.46897  0.30299  0.65504  Biso   1.000  H
  H36      1.0000 0.46103  0.25701  0.70295  Biso   1.000  H
  C26      1.0000 0.27942  0.26839  0.98886  Biso   1.000  C
  H37      1.0000 0.37500  0.26101  0.14500  Biso   1.000  H
  O21      1.0000 0.27942  0.29461  0.22518  Biso   1.000  O
  H38      1.0000 0.47503  0.34200  0.22497  Biso   1.000  H
  C27      1.0000 0.91559  0.40749  0.72439  Biso   1.000  C
  H39      1.0000 0.80802  0.42499  0.59599  Biso   1.000  H
  O22      1.0000 0.87783  0.47301  0.64127  Biso   1.000  O
  C28      1.0000 0.96237  0.35930  0.53515  Biso   1.000  C
  H40      1.0000 0.35003  0.24901  0.58495  Biso   1.000  H
  O23      1.0000 0.21567  0.29749  0.95545  Biso   1.000  O
  H41      1.0000 0.24697  0.24301  0.01902  Biso   1.000  H
  C29      1.0000 0.91990  0.36401  0.68110  Biso   1.000  C
  H42      1.0000 0.97799  0.41599  0.74404  Biso   1.000  H
  O24      1.0000 0.86261  0.41129  0.85237  Biso   1.000  O
  H43      1.0000 0.80998  0.48101  0.65504  Biso   1.000  H
  H44      1.0000 0.02800  0.36601  0.54103  Biso   1.000  H
  C30      1.0000 0.95369  0.31811  0.47483  Biso   1.000  C
  C31      1.0000 0.12338  0.28631  0.94935  Biso   1.000  C
  O25      1.0000 0.97873  0.34639  0.78260  Biso   1.000  O
  H45      1.0000 0.85797  0.35200  0.68299  Biso   1.000  H
  H46      1.0000 0.89499  0.39999  0.89997  Biso   1.000  H
  H47      1.0000 0.98203  0.31700  0.38100  Biso   1.000  H
  H48      1.0000 0.98499  0.29899  0.53904  Biso   1.000  H
  O26      1.0000 0.86302  0.30590  0.46054  Biso   1.000  O
  C32      1.0000 0.09410  0.28240  0.79605  Biso   1.000  C
  H49      1.0000 0.11302  0.26101  0.99895  Biso   1.000  H
  C33      1.0000 0.07357  0.31861  0.02753  Biso   1.000  C
  C34      1.0000 0.95039  0.31179  0.84827  Biso   1.000  C
  H50      1.0000 0.80499  0.30499  0.42503  Biso   1.000  H
  C35      1.0000 0.13281  0.24651  0.72491  Biso   1.000  C
  H51      1.0000 0.11302  0.30699  0.74204  Biso   1.000  H
  O27      1.0000 0.99650  0.27881  0.79332  Biso   1.000  O
  H52      1.0000 0.09599  0.34400  0.99002  Biso   1.000  H
  C36      1.0000 0.97240  0.31561  0.00525  Biso   1.000  C
  O28      1.0000 0.09013  0.31550  0.17442  Biso   1.000  O
  H53      1.0000 0.88402  0.30799  0.83902  Biso   1.000  H
  H54      1.0000 0.09902  0.24201  0.63402  Biso   1.000  H
  H55      1.0000 0.19702  0.25001  0.70295  Biso   1.000  H
  O29      1.0000 0.12493  0.21120  0.80340  Biso   1.000  O
  H56      1.0000 0.94898  0.29099  0.05601  Biso   1.000  H
  O30      1.0000 0.92973  0.35080  0.05905  Biso   1.000  O
  H57      1.0000 0.16000  0.31399  0.19996  Biso   1.000  H
  H58      1.0000 0.07499  0.20500  0.84995  Biso   1.000  H
  H59      1.0000 0.87500  0.34500  0.11001  Biso   1.000  H
  O31      1.0000 0.63739  0.58871  0.35242  Biso   1.000  O
  C37      1.0000 0.58441  0.59251  0.22444  Biso   1.000  C
  H60      1.0000 0.60501  0.60001  0.40002  Biso   1.000  H
  C38      1.0000 0.62749  0.56809  0.11054  Biso   1.000  C
  C39      1.0000 0.58010  0.63599  0.18115  Biso   1.000  C
  H61      1.0000 0.52201  0.58401  0.24398  Biso   1.000  H
  C40      1.0000 0.57532  0.57501  0.97237  Biso   1.000  C
  H62      1.0000 0.69198  0.57501  0.09604  Biso   1.000  H
  O32      1.0000 0.62217  0.52699  0.14133  Biso   1.000  O
  C41      1.0000 0.53763  0.64070  0.03510  Biso   1.000  C
  H63      1.0000 0.64203  0.64800  0.18304  Biso   1.000  H
  O33      1.0000 0.52127  0.65361  0.28265  Biso   1.000  O
  O34      1.0000 0.48418  0.56371  0.00032  Biso   1.000  O
  H64      1.0000 0.60097  0.55800  0.89902  Biso   1.000  H
  O35      1.0000 0.57929  0.61490  0.93391  Biso   1.000  O
  H65      1.0000 0.69002  0.51899  0.15499  Biso   1.000  H
  H66      1.0000 0.47200  0.63399  0.04098  Biso   1.000  H
  C42      1.0000 0.54631  0.68189  0.97478  Biso   1.000  C
  C43      1.0000 0.54961  0.68821  0.34832  Biso   1.000  C
  C44      1.0000 0.43800  0.53900  0.90239  Biso   1.000  C
  H67      1.0000 0.51501  0.70101  0.03898  Biso   1.000  H
  H68      1.0000 0.51797  0.68300  0.88095  Biso   1.000  H
  O36      1.0000 0.63698  0.69410  0.96049  Biso   1.000  O
  C45      1.0000 0.52760  0.68439  0.50531  Biso   1.000  C
  H69      1.0000 0.61598  0.69201  0.33897  Biso   1.000  H
  O37      1.0000 0.50350  0.72119  0.29326  Biso   1.000  O
  C46      1.0000 0.39997  0.50510  0.99075  Biso   1.000  C
  C47      1.0000 0.35972  0.56191  0.83955  Biso   1.000  C
  H70      1.0000 0.47799  0.52999  0.82600  Biso   1.000  H
  H71      1.0000 0.69501  0.69501  0.92498  Biso   1.000  H
  C48      1.0000 0.42643  0.68139  0.52748  Biso   1.000  C
  H72      1.0000 0.55102  0.70901  0.55595  Biso   1.000  H
  O38      1.0000 0.57027  0.64920  0.55910  Biso   1.000  O
  C49      1.0000 0.40590  0.71760  0.29610  Biso   1.000  C
  O39      1.0000 0.47193  0.48289  0.05117  Biso   1.000  O
  H73      1.0000 0.36100  0.51599  0.06704  Biso   1.000  H
  C50      1.0000 0.34181  0.47901  0.90049  Biso   1.000  C
  O40      1.0000 0.30863  0.53561  0.75034  Biso   1.000  O
  C51      1.0000 0.38671  0.59701  0.75234  Biso   1.000  C
  H74      1.0000 0.31900  0.57100  0.91804  Biso   1.000  H
  C52      1.0000 0.37662  0.71369  0.44941  Biso   1.000  C
  H75      1.0000 0.40401  0.65600  0.48997  Biso   1.000  H
  O41      1.0000 0.40987  0.68450  0.67437  Biso   1.000  O
  H76      1.0000 0.62500  0.65500  0.60996  Biso   1.000  H
  C53      1.0000 0.36719  0.75349  0.22486  Biso   1.000  C
  H77      1.0000 0.38698  0.69301  0.24199  Biso   1.000  H
  H78      1.0000 0.50000  0.49999  0.11201  Biso   1.000  H
  C54      1.0000 0.26932  0.50390  0.82705  Biso   1.000  C
  H79      1.0000 0.38301  0.46701  0.82505  Biso   1.000  H
  O42      1.0000 0.30271  0.44741  0.97583  Biso   1.000  O
  H80      1.0000 0.33199  0.60701  0.70001  Biso   1.000  H
  H81      1.0000 0.40603  0.61899  0.82001  Biso   1.000  H
  O43      1.0000 0.45800  0.58739  0.65535  Biso   1.000  O
  H82      1.0000 0.38698  0.73899  0.49900  Biso   1.000  H
  O44      1.0000 0.28433  0.70251  0.45550  Biso   1.000  O
  H83      1.0000 0.34000  0.68601  0.70001  Biso   1.000  H
  H84      1.0000 0.40098  0.75799  0.13397  Biso   1.000  H
  H85      1.0000 0.30298  0.74999  0.20301  Biso   1.000  H
  O45      1.0000 0.37507  0.78880  0.30335  Biso   1.000  O
  H86      1.0000 0.23398  0.48601  0.76001  Biso   1.000  H
  O46      1.0000 0.21062  0.51740  0.93275  Biso   1.000  O
  H87      1.0000 0.25000  0.45400  0.01198  Biso   1.000  H
  H88      1.0000 0.49697  0.61001  0.61805  Biso   1.000  H
  C55      1.0000 0.22058  0.73161  0.48891  Biso   1.000  C
  H89      1.0000 0.42501  0.79500  0.35001  Biso   1.000  H
  C56      1.0000 0.11887  0.52361  0.89146  Biso   1.000  C
  C57      1.0000 0.16397  0.71651  0.61353  Biso   1.000  C
  H90      1.0000 0.25303  0.75699  0.51897  Biso   1.000  H
  O47      1.0000 0.16498  0.73920  0.37291  Biso   1.000  O
  C58      1.0000 0.05991  0.49540  0.97384  Biso   1.000  C
  C59      1.0000 0.09222  0.56630  0.92477  Biso   1.000  C
  H91      1.0000 0.10999  0.51999  0.78995  Biso   1.000  H
  C60      1.0000 0.10642  0.68130  0.57098  Biso   1.000  C
  H92      1.0000 0.12500  0.73899  0.64495  Biso   1.000  H
  O48      1.0000 0.22058  0.70539  0.72523  Biso   1.000  O
  C61      1.0000 0.11800  0.70489  0.32185  Biso   1.000  C
  H93      1.0000 0.07398  0.49801  0.07597  Biso   1.000  H
  C62      1.0000 0.96002  0.50490  0.94851  Biso   1.000  C
  O49      1.0000 0.08057  0.45621  0.92760  Biso   1.000  O
  H94      1.0000 0.10703  0.57200  0.02700  Biso   1.000  H
  O50      1.0000 0.99643  0.57100  0.89944  Biso   1.000  O
  C63      1.0000 0.13678  0.59610  0.83062  Biso   1.000  C
  C64      1.0000 0.05513  0.69039  0.43522  Biso   1.000  C
  H95      1.0000 0.14701  0.65700  0.55301  Biso   1.000  H
  O51      1.0000 0.04160  0.67259  0.67553  Biso   1.000  O
  C65      1.0000 0.07209  0.71731  0.18577  Biso   1.000  C
  H96      1.0000 0.16397  0.68400  0.29999  Biso   1.000  H
  C66      1.0000 0.93848  0.54750  0.98308  Biso   1.000  C
  H97      1.0000 0.94602  0.49999  0.84701  Biso   1.000  H
  O52      1.0000 0.90078  0.47930  0.02249  Biso   1.000  O
  H98      1.0000 0.05001  0.45900  0.87002  Biso   1.000  H
  H99      1.0000 0.12298  0.59401  0.72901  Biso   1.000  H
  H100     1.0000 0.21002  0.59401  0.83398  Biso   1.000  H
  O53      1.0000 0.11867  0.63479  0.88084  Biso   1.000  O
  O54      1.0000 0.01218  0.65420  0.39098  Biso   1.000  O
  H101     1.0000 0.00801  0.71101  0.45603  Biso   1.000  H
  H102     1.0000 0.02497  0.65800  0.72502  Biso   1.000  H
  H103     1.0000 0.03103  0.69701  0.15499  Biso   1.000  H
  H104     1.0000 0.03897  0.74299  0.20301  Biso   1.000  H
  O55      1.0000 0.14062  0.72381  0.08038  Biso   1.000  O
  H105     1.0000 0.87298  0.55300  0.96301  Biso   1.000  H
  O56      1.0000 0.95403  0.55500  0.12893  Biso   1.000  O
  H106     1.0000 0.91498  0.47501  0.10003  Biso   1.000  H
  H107     1.0000 0.10003  0.63699  0.94998  Biso   1.000  H
  C67      1.0000 0.91788  0.65361  0.37785  Biso   1.000  C
  H108     1.0000 0.14997  0.75099  0.08501  Biso   1.000  H
  C68      1.0000 0.90092  0.58571  0.19418  Biso   1.000  C
  C69      1.0000 0.88362  0.61531  0.43585  Biso   1.000  C
  O57      1.0000 0.89149  0.65741  0.23631  Biso   1.000  O
  H109     1.0000 0.89001  0.67600  0.43396  Biso   1.000  H
  C70      1.0000 0.92131  0.58109  0.34980  Biso   1.000  C
  C71      1.0000 0.92649  0.62740  0.14133  Biso   1.000  C
  H110     1.0000 0.83697  0.58101  0.17800  Biso   1.000  H
  H111     1.0000 0.81698  0.61499  0.42797  Biso   1.000  H
  O58      1.0000 0.90697  0.61140  0.57980  Biso   1.000  O
  H112     1.0000 0.98802  0.58001  0.36198  Biso   1.000  H
  O59      1.0000 0.88200  0.54520  0.39813  Biso   1.000  O
  C72      1.0000 0.88530  0.63940  0.99968  Biso   1.000  C
  H113     1.0000 0.99199  0.62999  0.13303  Biso   1.000  H
  H114     1.0000 0.93498  0.59501  0.65998  Biso   1.000  H
  H115     1.0000 0.94501  0.53399  0.47504  Biso   1.000  H
  H116     1.0000 0.90899  0.62299  0.92298  Biso   1.000  H
  H117     1.0000 0.89600  0.66800  0.98203  Biso   1.000  H
  O60      1.0000 0.79052  0.63399  0.00158  Biso   1.000  O
  H118     1.0000 0.76999  0.62999  0.07502  Biso   1.000  H
  O61      1.0000 0.62493  0.28881  0.19660  Biso   1.000  O
  C73      1.0000 0.63281  0.25351  0.27509  Biso   1.000  C
  H119     1.0000 0.57499  0.29499  0.15005  Biso   1.000  H
  C74      1.0000 0.59410  0.21759  0.20395  Biso   1.000  C
  H120     1.0000 0.59902  0.25801  0.36598  Biso   1.000  H
  H121     1.0000 0.69702  0.25001  0.29705  Biso   1.000  H
  O62      1.0000 0.49650  0.22121  0.20668  Biso   1.000  O
  C75      1.0000 0.62338  0.21370  0.05065  Biso   1.000  C
  H122     1.0000 0.61302  0.19299  0.25796  Biso   1.000  H
  C76      1.0000 0.45039  0.18820  0.15173  Biso   1.000  C
  C77      1.0000 0.57357  0.18140  0.97247  Biso   1.000  C
  H123     1.0000 0.61302  0.23900  0.00105  Biso   1.000  H
  O63      1.0000 0.71567  0.20249  0.04455  Biso   1.000  O
  H124     1.0000 0.38402  0.19199  0.16098  Biso   1.000  H
  O64      1.0000 0.47873  0.15360  0.21740  Biso   1.000  O
  C78      1.0000 0.47240  0.18440  0.99475  Biso   1.000  C
  H125     1.0000 0.59599  0.15601  0.00998  Biso   1.000  H
  O65      1.0000 0.59013  0.18449  0.82558  Biso   1.000  O
  C79      1.0000 0.77942  0.23159  0.01114  Biso   1.000  C
  C80      1.0000 0.41990  0.13601  0.31890  Biso   1.000  C
  H126     1.0000 0.44898  0.20900  0.94399  Biso   1.000  H
  O66      1.0000 0.42973  0.14919  0.94095  Biso   1.000  O
  H127     1.0000 0.66000  0.18599  0.80004  Biso   1.000  H
  O67      1.0000 0.83502  0.23921  0.12714  Biso   1.000  O
  C81      1.0000 0.83603  0.21650  0.88652  Biso   1.000  C
  H128     1.0000 0.74697  0.25701  0.98098  Biso   1.000  H
  C82      1.0000 0.41559  0.09250  0.27561  Biso   1.000  C
  C83      1.0000 0.46237  0.14071  0.46485  Biso   1.000  C
  H129     1.0000 0.35797  0.14801  0.31701  Biso   1.000  H
  H130     1.0000 0.37500  0.15501  0.88999  Biso   1.000  H
  C84      1.0000 0.88200  0.20491  0.17821  Biso   1.000  C
  C85      1.0000 0.89358  0.18131  0.92897  Biso   1.000  C
  H131     1.0000 0.87500  0.23900  0.85500  Biso   1.000  H
  O68      1.0000 0.77942  0.20541  0.77482  Biso   1.000  O
  C86      1.0000 0.37251  0.06811  0.38951  Biso   1.000  C
  H132     1.0000 0.47799  0.08399  0.25596  Biso   1.000  H
  O69      1.0000 0.36261  0.08870  0.14763  Biso   1.000  O
  C87      1.0000 0.45369  0.18190  0.52517  Biso   1.000  C
  H133     1.0000 0.52800  0.13401  0.45897  Biso   1.000  H
  O70      1.0000 0.42071  0.11491  0.56614  Biso   1.000  O
  C88      1.0000 0.94487  0.19040  0.06483  Biso   1.000  C
  C89      1.0000 0.92791  0.21729  0.31417  Biso   1.000  C
  H134     1.0000 0.83603  0.18399  0.19996  Biso   1.000  H
  H135     1.0000 0.85299  0.15701  0.94704  Biso   1.000  H
  O71      1.0000 0.95840  0.17260  0.82452  Biso   1.000  O
  C90      1.0000 0.42468  0.07499  0.52758  Biso   1.000  C
  H136     1.0000 0.30802  0.07499  0.40401  Biso   1.000  H
  O72      1.0000 0.37783  0.02701  0.35873  Biso   1.000  O
  H137     1.0000 0.39499  0.10000  0.10003  Biso   1.000  H
  H138     1.0000 0.48203  0.18299  0.61900  Biso   1.000  H
  H139     1.0000 0.48499  0.20099  0.46096  Biso   1.000  H
  O73      1.0000 0.36302  0.19411  0.53946  Biso   1.000  O
  H140     1.0000 0.99199  0.21100  0.04403  Biso   1.000  H
  O74      1.0000 0.98782  0.15419  0.10896  Biso   1.000  O
  H141     1.0000 0.96897  0.19699  0.34496  Biso   1.000  H
  H142     1.0000 0.96103  0.24301  0.29705  Biso   1.000  H
  O75      1.0000 0.85938  0.22379  0.41956  Biso   1.000  O
  H143     1.0000 0.97503  0.15801  0.77503  Biso   1.000  H
  H144     1.0000 0.39903  0.05799  0.60103  Biso   1.000  H
  O76      1.0000 0.51582  0.06369  0.49974  Biso   1.000  O
  H145     1.0000 0.30998  0.01901  0.34496  Biso   1.000  H
  H146     1.0000 0.30499  0.19499  0.57497  Biso   1.000  H
  C91      1.0000 0.08212  0.15360  0.12210  Biso   1.000  C
  H147     1.0000 0.85003  0.25101  0.41505  Biso   1.000  H
  C92      1.0000 0.56200  0.03901  0.59756  Biso   1.000  C
  C93      1.0000 0.11638  0.11530  0.06410  Biso   1.000  C
  H148     1.0000 0.10999  0.17599  0.06599  Biso   1.000  H
  O77      1.0000 0.10851  0.15739  0.26374  Biso   1.000  O
  C94      1.0000 0.60003  0.00509  0.50919  Biso   1.000  C
  C95      1.0000 0.64028  0.06190  0.66050  Biso   1.000  C
  H149     1.0000 0.52201  0.03001  0.67395  Biso   1.000  H
  O78      1.0000 0.09303  0.11141  0.92025  Biso   1.000  O
  C96      1.0000 0.07869  0.08111  0.15015  Biso   1.000  C
  H150     1.0000 0.18302  0.11500  0.07198  Biso   1.000  H
  C97      1.0000 0.07351  0.12739  0.35873  Biso   1.000  C
  H151     1.0000 0.63900  0.01600  0.43301  Biso   1.000  H
  C98      1.0000 0.65819  0.97899  0.59945  Biso   1.000  C
  O79      1.0000 0.52807  0.98291  0.44878  Biso   1.000  O
  C99      1.0000 0.61329  0.09700  0.74771  Biso   1.000  C
  H152     1.0000 0.68100  0.07099  0.58201  Biso   1.000  H
  O80      1.0000 0.69137  0.03560  0.74971  Biso   1.000  O
  H153     1.0000 0.06502  0.09500  0.83997  Biso   1.000  H
  C100     1.0000 0.09908  0.08570  0.30577  Biso   1.000  C
  H154     1.0000 0.01198  0.07999  0.13796  Biso   1.000  H
  O81      1.0000 0.11800  0.04519  0.10192  Biso   1.000  O
  C101     1.0000 0.11470  0.13939  0.50026  Biso   1.000  C
  H155     1.0000 0.00801  0.13001  0.36703  Biso   1.000  H
  C102     1.0000 0.73068  0.00391  0.67301  Biso   1.000  C
  H156     1.0000 0.61699  0.96699  0.67500  Biso   1.000  H
  O82      1.0000 0.69729  0.94740  0.52422  Biso   1.000  O
  H157     1.0000 0.50000  0.00000  0.38804  Biso   1.000  H
  H158     1.0000 0.66801  0.10700  0.80004  Biso   1.000  H
  H159     1.0000 0.59397  0.11900  0.68005  Biso   1.000  H
  O83      1.0000 0.54200  0.08741  0.84459  Biso   1.000  O
  H160     1.0000 0.16303  0.08099  0.32195  Biso   1.000  H
  O84      1.0000 0.04597  0.05501  0.37113  Biso   1.000  O
  H161     1.0000 0.05499  0.03401  0.02501  Biso   1.000  H
  H162     1.0000 0.09101  0.12300  0.57697  Biso   1.000  H
  H163     1.0000 0.10400  0.16799  0.51802  Biso   1.000  H
  O85      1.0000 0.20948  0.13401  0.49837  Biso   1.000  O
  O86      1.0000 0.78938  0.01739  0.56730  Biso   1.000  O
  H164     1.0000 0.76602  0.98600  0.74004  Biso   1.000  H
  H165     1.0000 0.75000  0.95399  0.48797  Biso   1.000  H
  H166     1.0000 0.50303  0.11000  0.88200  Biso   1.000  H
  C103     1.0000 0.06152  0.04751  0.51686  Biso   1.000  C
  H167     1.0000 0.23001  0.13001  0.42503  Biso   1.000  H
  C104     1.0000 0.88113  0.02359  0.60849  Biso   1.000  C
  O87      1.0000 0.00357  0.07099  0.60061  Biso   1.000  O
  C105     1.0000 0.03998  0.00491  0.55154  Biso   1.000  C
  H168     1.0000 0.12702  0.05301  0.53704  Biso   1.000  H
  C106     1.0000 0.90778  0.06631  0.57518  Biso   1.000  C
  H169     1.0000 0.89001  0.02001  0.70999  Biso   1.000  H
  C107     1.0000 0.94009  0.99541  0.52622  Biso   1.000  C
  O88      1.0000 0.09922  0.97929  0.47746  Biso   1.000  O
  H170     1.0000 0.05398  0.00000  0.65304  Biso   1.000  H
  C108     1.0000 0.86322  0.09611  0.66943  Biso   1.000  C
  H171     1.0000 0.89297  0.07199  0.47305  Biso   1.000  H
  H172     1.0000 0.92602  0.99800  0.42398  Biso   1.000  H
  O89      1.0000 0.91943  0.95619  0.57245  Biso   1.000  O
  H173     1.0000 0.08502  0.97499  0.40002  Biso   1.000  H
  H174     1.0000 0.87702  0.09400  0.77104  Biso   1.000  H
  H175     1.0000 0.78998  0.09400  0.66597  Biso   1.000  H
  O90      1.0000 0.88133  0.13480  0.61921  Biso   1.000  O
  H176     1.0000 0.94999  0.95899  0.63003  Biso   1.000  H
  H177     1.0000 0.89997  0.13701  0.54996  Biso   1.000  H
  O91      1.0000 0.87507  0.71119  0.69665  Biso   1.000  O
  C109     1.0000 0.86719  0.74649  0.77514  Biso   1.000  C
  H178     1.0000 0.92501  0.70501  0.64999  Biso   1.000  H
  C110     1.0000 0.90590  0.78241  0.70390  Biso   1.000  C
  H179     1.0000 0.90098  0.74199  0.86603  Biso   1.000  H
  H180     1.0000 0.80298  0.74999  0.79699  Biso   1.000  H
  C111     1.0000 0.87662  0.78630  0.55059  Biso   1.000  C
  H181     1.0000 0.88698  0.80701  0.75801  Biso   1.000  H
  O92      1.0000 0.00350  0.77879  0.70674  Biso   1.000  O
  C112     1.0000 0.92643  0.81860  0.47252  Biso   1.000  C
  H182     1.0000 0.88698  0.76100  0.50100  Biso   1.000  H
  O93      1.0000 0.78433  0.79751  0.54450  Biso   1.000  O
  C113     1.0000 0.04961  0.81180  0.65168  Biso   1.000  C
  H183     1.0000 0.90401  0.84399  0.51003  Biso   1.000  H
  O94      1.0000 0.90987  0.81551  0.32563  Biso   1.000  O
  C114     1.0000 0.02760  0.81560  0.49469  Biso   1.000  C
  C115     1.0000 0.72058  0.76841  0.51109  Biso   1.000  C
  H184     1.0000 0.11598  0.80801  0.66103  Biso   1.000  H
  O95      1.0000 0.02127  0.84640  0.71735  Biso   1.000  O
  H185     1.0000 0.84000  0.81401  0.29999  Biso   1.000  H
  H186     1.0000 0.05102  0.79100  0.44405  Biso   1.000  H
  O96      1.0000 0.07027  0.85081  0.44090  Biso   1.000  O
  C116     1.0000 0.66397  0.78350  0.38647  Biso   1.000  C
  H187     1.0000 0.75303  0.74299  0.48103  Biso   1.000  H
  O97      1.0000 0.66498  0.76079  0.62709  Biso   1.000  O
  C117     1.0000 0.08010  0.86399  0.81885  Biso   1.000  C
  H188     1.0000 0.12500  0.84499  0.39004  Biso   1.000  H
  C118     1.0000 0.60642  0.81869  0.42902  Biso   1.000  C
  H189     1.0000 0.62500  0.76100  0.35505  Biso   1.000  H
  O98      1.0000 0.72058  0.79459  0.27477  Biso   1.000  O
  C119     1.0000 0.61800  0.79509  0.67815  Biso   1.000  C
  C120     1.0000 0.08441  0.90750  0.77556  Biso   1.000  C
  C121     1.0000 0.03763  0.85929  0.96490  Biso   1.000  C
  H190     1.0000 0.14203  0.85199  0.81696  Biso   1.000  H
  C122     1.0000 0.55513  0.80960  0.56478  Biso   1.000  C
  H191     1.0000 0.64701  0.84299  0.44699  Biso   1.000  H
  O99      1.0000 0.54160  0.82740  0.32447  Biso   1.000  O
  C123     1.0000 0.57209  0.78271  0.81423  Biso   1.000  C
  H192     1.0000 0.66397  0.81601  0.70001  Biso   1.000  H
  C124     1.0000 0.12749  0.93189  0.88946  Biso   1.000  C
  H193     1.0000 0.02201  0.91601  0.75602  Biso   1.000  H
  O100     1.0000 0.13739  0.91130  0.64758  Biso   1.000  O
  H194     1.0000 0.97200  0.86599  0.95902  Biso   1.000  H
  C125     1.0000 0.04631  0.81810  0.02522  Biso   1.000  C
  O101     1.0000 0.07929  0.88509  0.06609  Biso   1.000  O
  H195     1.0000 0.50801  0.78900  0.54397  Biso   1.000  H
  O102     1.0000 0.51218  0.84581  0.60902  Biso   1.000  O
  H196     1.0000 0.52497  0.84199  0.27498  Biso   1.000  H
  H197     1.0000 0.53103  0.80301  0.84501  Biso   1.000  H
  H198     1.0000 0.53897  0.75699  0.79699  Biso   1.000  H
  O103     1.0000 0.64062  0.77621  0.91962  Biso   1.000  O
  H199     1.0000 0.19198  0.92501  0.90396  Biso   1.000  H
  O104     1.0000 0.12217  0.97299  0.85867  Biso   1.000  O
  C126     1.0000 0.07532  0.92501  0.02763  Biso   1.000  C
  H200     1.0000 0.10501  0.90000  0.59998  Biso   1.000  H
  H201     1.0000 0.01501  0.79901  0.96102  Biso   1.000  H
  H202     1.0000 0.01797  0.81701  0.11905  Biso   1.000  H
  O105     1.0000 0.13698  0.80589  0.03951  Biso   1.000  O
  C127     1.0000 0.41788  0.84640  0.62215  Biso   1.000  C
  H203     1.0000 0.64997  0.74899  0.91499  Biso   1.000  H
  H204     1.0000 0.19002  0.98099  0.84501  Biso   1.000  H
  O106     1.0000 0.98418  0.93631  0.99968  Biso   1.000  O
  H205     1.0000 0.10097  0.94201  0.10098  Biso   1.000  H
  H206     1.0000 0.19501  0.80501  0.07502  Biso   1.000  H
  C128     1.0000 0.38362  0.88470  0.56415  Biso   1.000  C
  H207     1.0000 0.39001  0.82401  0.56604  Biso   1.000  H
  O107     1.0000 0.39149  0.84261  0.76369  Biso   1.000  O
  C129     1.0000 0.93800  0.96099  0.09761  Biso   1.000  C
  C130     1.0000 0.42131  0.91889  0.65020  Biso   1.000  C
  H208     1.0000 0.31698  0.88500  0.57203  Biso   1.000  H
  O108     1.0000 0.40697  0.88859  0.42020  Biso   1.000  O
  C131     1.0000 0.42649  0.87261  0.85867  Biso   1.000  C
  C132     1.0000 0.89997  0.99491  0.00925  Biso   1.000  C
  C133     1.0000 0.85972  0.93810  0.16045  Biso   1.000  C
  H209     1.0000 0.97799  0.96999  0.17400  Biso   1.000  H
  C134     1.0000 0.40092  0.91430  0.80582  Biso   1.000  C
  H210     1.0000 0.48802  0.92001  0.63802  Biso   1.000  H
  O109     1.0000 0.38200  0.95481  0.60187  Biso   1.000  O
  H211     1.0000 0.43498  0.90500  0.34002  Biso   1.000  H
  H212     1.0000 0.49199  0.86999  0.86697  Biso   1.000  H
  C135     1.0000 0.38530  0.86061  0.00032  Biso   1.000  C
  H213     1.0000 0.86100  0.98400  0.93296  Biso   1.000  H
  O110     1.0000 0.97193  0.01709  0.94883  Biso   1.000  O
  C136     1.0000 0.84181  0.02101  0.09951  Biso   1.000  C
  C137     1.0000 0.88671  0.90300  0.24766  Biso   1.000  C
  H214     1.0000 0.81900  0.92901  0.08196  Biso   1.000  H
  O111     1.0000 0.80863  0.96440  0.24966  Biso   1.000  O
  H215     1.0000 0.33697  0.91901  0.82200  Biso   1.000  H
  O112     1.0000 0.45403  0.94499  0.87107  Biso   1.000  O
  H216     1.0000 0.44501  0.96599  0.52496  Biso   1.000  H
  O113     1.0000 0.29052  0.86599  0.99842  Biso   1.000  O
  H217     1.0000 0.40899  0.87700  0.07702  Biso   1.000  H
  H218     1.0000 0.39600  0.83201  0.01797  Biso   1.000  H
  H219     1.0000 0.00000  0.00000  0.88799  Biso   1.000  H
  C138     1.0000 0.76932  0.99609  0.17295  Biso   1.000  C
  H220     1.0000 0.88301  0.03301  0.17495  Biso   1.000  H
  O114     1.0000 0.80271  0.05260  0.02417  Biso   1.000  O
  H221     1.0000 0.83199  0.89300  0.29999  Biso   1.000  H
  H222     1.0000 0.90603  0.88100  0.17999  Biso   1.000  H
  O115     1.0000 0.95800  0.91259  0.34465  Biso   1.000  O
  C139     1.0000 0.43848  0.95249  0.01692  Biso   1.000  C
  H223     1.0000 0.26999  0.86999  0.92498  Biso   1.000  H
  O116     1.0000 0.71062  0.98261  0.06725  Biso   1.000  O
  H224     1.0000 0.73398  0.01400  0.23999  Biso   1.000  H
  H225     1.0000 0.75000  0.04601  0.98802  Biso   1.000  H
  H226     1.0000 0.99697  0.89000  0.38195  Biso   1.000  H
  C140     1.0000 0.46002  0.99509  0.05149  Biso   1.000  C
  H227     1.0000 0.37298  0.94699  0.03699  Biso   1.000  H
  O117     1.0000 0.49643  0.92901  0.10056  Biso   1.000  O
  C141     1.0000 0.61887  0.97641  0.10854  Biso   1.000  C
  O118     1.0000 0.40078  0.02071  0.97751  Biso   1.000  O
  C142     1.0000 0.55991  0.00459  0.02616  Biso   1.000  C
  H228     1.0000 0.44602  0.00000  0.15299  Biso   1.000  H
  C143     1.0000 0.59222  0.93369  0.07523  Biso   1.000  C
  H229     1.0000 0.60999  0.97999  0.21005  Biso   1.000  H
  H230     1.0000 0.41498  0.02501  0.89997  Biso   1.000  H
  H231     1.0000 0.57398  0.00200  0.92403  Biso   1.000  H
  O119     1.0000 0.58057  0.04381  0.07240  Biso   1.000  O
  H232     1.0000 0.60703  0.92801  0.97300  Biso   1.000  H
  C144     1.0000 0.63678  0.90389  0.16938  Biso   1.000  C
  H233     1.0000 0.55001  0.04101  0.12998  Biso   1.000  H
  H234     1.0000 0.62298  0.90600  0.27099  Biso   1.000  H
  H235     1.0000 0.71002  0.90600  0.16602  Biso   1.000  H
  O120     1.0000 0.61867  0.86520  0.11916  Biso   1.000  O
  H236     1.0000 0.60003  0.86299  0.05002  Biso   1.000  H
  Ne1      1.0000 0.25329  0.38356  0.67315  Biso   1.000  Ne
  He1      1.0000 0.22012  0.40448  0.76764  Biso   1.000  He
  He2      1.0000 0.19213  0.32989  0.48808  Biso   1.000  He
  Ar1      1.0000 0.20725  0.39686  0.74853  Biso   1.000  Ar
  Ne2      1.0000 0.75329  0.11644  0.32685  Biso   1.000  Ne
  He3      1.0000 0.68274  0.17824  0.53068  Biso   1.000  He
  He4      1.0000 0.70897  0.10351  0.25154  Biso   1.000  He
  Ar2      1.0000 0.70898  0.10351  0.25156  Biso   1.000  Ar
  Ne3      1.0000 0.24671  0.61644  0.17316  Biso   1.000  Ne
  He5      1.0000 0.27957  0.59531  0.26816  Biso   1.000  He
  He6      1.0000 0.30980  0.67155  0.98547  Biso   1.000  He
  Ar3      1.0000 0.29275  0.60316  0.24852  Biso   1.000  Ar
  Ne4      1.0000 0.74671  0.88356  0.82684  Biso   1.000  Ne
  He7      1.0000 0.80520  0.83241  0.00191  Biso   1.000  He
  He8      1.0000 0.78304  0.88484  0.80334  Biso   1.000  He
  Ar4      1.0000 0.78878  0.88554  0.80295  Biso   1.000  Ar
