data_image0
_cell_length_a       11.993
_cell_length_b       12.831
_cell_length_c       21.486
_cell_angle_alpha    93.23
_cell_angle_beta     90.46
_cell_angle_gamma    108.95

_symmetry_space_group_name_H-M    "P 1"
_symmetry_int_tables_number       1

loop_
  _symmetry_equiv_pos_as_xyz
  'x, y, z'

loop_
  _atom_site_label
  _atom_site_occupancy
  _atom_site_fract_x
  _atom_site_fract_y
  _atom_site_fract_z
  _atom_site_thermal_displace_type
  _atom_site_B_iso_or_equiv
  _atom_site_type_symbol
  C1       1.0000 0.52229  0.54088  0.58013  Biso   1.000  C
  O1       1.0000 0.51739  0.52360  0.64528  Biso   1.000  O
  C2       1.0000 0.54800  0.66268  0.57346  Biso   1.000  C
  H1       1.0000 0.44608  0.49834  0.55900  Biso   1.000  H
  H2       1.0000 0.58503  0.51636  0.56101  Biso   1.000  H
  C3       1.0000 0.46331  0.41717  0.66206  Biso   1.000  C
  S1       1.0000 0.69453  0.74769  0.59710  Biso   1.000  S
  H3       1.0000 0.49115  0.68736  0.59850  Biso   1.000  H
  H4       1.0000 0.53442  0.67437  0.52930  Biso   1.000  H
  C4       1.0000 0.46039  0.32463  0.62466  Biso   1.000  C
  C5       1.0000 0.41051  0.40583  0.71984  Biso   1.000  C
  C6       1.0000 0.77091  0.74635  0.52524  Biso   1.000  C
  C7       1.0000 0.40773  0.21859  0.64416  Biso   1.000  C
  H5       1.0000 0.49509  0.33375  0.58489  Biso   1.000  H
  C8       1.0000 0.35678  0.29985  0.73915  Biso   1.000  C
  C9       1.0000 0.41151  0.50616  0.76056  Biso   1.000  C
  C10      1.0000 0.90192  0.80625  0.53489  Biso   1.000  C
  H6       1.0000 0.75790  0.66900  0.50980  Biso   1.000  H
  H7       1.0000 0.73858  0.78231  0.49339  Biso   1.000  H
  C11      1.0000 0.41295  0.11985  0.60368  Biso   1.000  C
  C12      1.0000 0.35626  0.20722  0.70245  Biso   1.000  C
  H8       1.0000 0.31961  0.29082  0.77828  Biso   1.000  H
  H9       1.0000 0.33720  0.48861  0.78369  Biso   1.000  H
  H10      1.0000 0.41466  0.56722  0.73369  Biso   1.000  H
  C13      1.0000 0.51487  0.54423  0.80682  Biso   1.000  C
  O2       1.0000 0.94930  0.73723  0.56875  Biso   1.000  O
  H11      1.0000 0.94021  0.82046  0.49418  Biso   1.000  H
  H12      1.0000 0.91538  0.87784  0.55858  Biso   1.000  H
  C14      1.0000 0.52606  0.09474  0.61585  Biso   1.000  C
  H13      1.0000 0.40761  0.13465  0.55928  Biso   1.000  H
  H14      1.0000 0.34460  0.05454  0.61217  Biso   1.000  H
  O3       1.0000 0.30608  0.10096  0.71998  Biso   1.000  O
  C15      1.0000 0.50989  0.49778  0.86385  Biso   1.000  C
  C16      1.0000 0.61900  0.62427  0.79143  Biso   1.000  C
  C17      1.0000 0.06067  0.79454  0.59678  Biso   1.000  C
  C18      1.0000 0.62703  0.14097  0.58297  Biso   1.000  C
  C19      1.0000 0.53191  0.02658  0.66346  Biso   1.000  C
  C20      1.0000 0.23647  0.09630  0.78079  Biso   1.000  C
  C21      1.0000 0.28987  0.06181  0.77590  Biso   1.000  C
  O4       1.0000 0.40521  0.41749  0.87621  Biso   1.000  O
  C22      1.0000 0.60649  0.53267  0.90517  Biso   1.000  C
  C23      1.0000 0.71562  0.65897  0.83261  Biso   1.000  C
  H15      1.0000 0.62402  0.65571  0.75221  Biso   1.000  H
  C24      1.0000 0.09491  0.71351  0.63315  Biso   1.000  C
  H16      1.0000 0.05637  0.85710  0.62457  Biso   1.000  H
  H17      1.0000 0.11928  0.82369  0.56451  Biso   1.000  H
  O5       1.0000 0.62568  0.21011  0.53522  Biso   1.000  O
  C25      1.0000 0.73169  0.12241  0.59771  Biso   1.000  C
  C26      1.0000 0.63619  0.00670  0.67750  Biso   1.000  C
  H18      1.0000 0.46367  0.99337  0.68659  Biso   1.000  H
  H19      1.0000 0.28540  0.14745  0.81419  Biso   1.000  H
  H20      1.0000 0.16389  0.11521  0.77371  Biso   1.000  H
  H21      1.0000 0.33775  0.11693  0.80798  Biso   1.000  H
  C27      1.0000 0.15901  0.03875  0.78569  Biso   1.000  C
  H22      1.0000 0.14408  0.10968  0.79381  Biso   1.000  H
  C28      1.0000 0.20764  0.97786  0.79693  Biso   1.000  C
  H23      1.0000 0.31086  0.99331  0.77720  Biso   1.000  H
  C29      1.0000 0.40484  0.35052  0.92578  Biso   1.000  C
  H24      1.0000 0.60142  0.50039  0.94420  Biso   1.000  H
  C30      1.0000 0.71006  0.61370  0.89057  Biso   1.000  C
  O6       1.0000 0.82117  0.73724  0.81973  Biso   1.000  O
  S2       1.0000 0.22949  0.77714  0.67881  Biso   1.000  S
  H25      1.0000 0.10524  0.65493  0.60410  Biso   1.000  H
  H26      1.0000 0.03036  0.67822  0.66127  Biso   1.000  H
  C31      1.0000 0.61090  0.15517  0.47497  Biso   1.000  C
  C32      1.0000 0.73918  0.05655  0.64537  Biso   1.000  C
  H27      1.0000 0.79976  0.15561  0.57449  Biso   1.000  H
  O7       1.0000 0.64587  0.93862  0.72288  Biso   1.000  O
  H28      1.0000 0.11481  0.00241  0.74689  Biso   1.000  H
  S3       1.0000 0.10020  0.94562  0.85424  Biso   1.000  S
  H29      1.0000 0.28011  0.96548  0.81251  Biso   1.000  H
  H30      1.0000 0.17836  0.92852  0.75906  Biso   1.000  H
  H31      1.0000 0.32571  0.29710  0.92928  Biso   1.000  H
  H32      1.0000 0.42727  0.39668  0.96467  Biso   1.000  H
  H33      1.0000 0.46135  0.31094  0.91799  Biso   1.000  H
  C33      1.0000 0.81664  0.64670  0.93492  Biso   1.000  C
  C34      1.0000 0.83444  0.77533  0.75869  Biso   1.000  C
  C35      1.0000 0.22275  0.66688  0.72875  Biso   1.000  C
  H34      1.0000 0.61069  0.20747  0.44340  Biso   1.000  H
  H35      1.0000 0.53580  0.09439  0.47231  Biso   1.000  H
  H36      1.0000 0.67578  0.12575  0.46751  Biso   1.000  H
  C36      1.0000 0.85523  0.04137  0.66314  Biso   1.000  C
  C37      1.0000 0.53935  0.87335  0.74894  Biso   1.000  C
  C38      1.0000 0.16158  0.04230  0.91948  Biso   1.000  C
  C39      1.0000 0.89203  0.57463  0.92028  Biso   1.000  C
  H37      1.0000 0.86357  0.72509  0.93068  Biso   1.000  H
  H38      1.0000 0.79034  0.63832  0.97848  Biso   1.000  H
  H39      1.0000 0.91266  0.83043  0.75547  Biso   1.000  H
  H40      1.0000 0.77374  0.80880  0.74988  Biso   1.000  H
  H41      1.0000 0.82602  0.71298  0.72838  Biso   1.000  H
  C40      1.0000 0.13609  0.65962  0.78024  Biso   1.000  C
  H42      1.0000 0.19949  0.59593  0.70338  Biso   1.000  H
  H43      1.0000 0.30205  0.67907  0.74740  Biso   1.000  H
  C41      1.0000 0.92071  0.12304  0.71551  Biso   1.000  C
  H44      1.0000 0.90545  0.05065  0.62620  Biso   1.000  H
  H45      1.0000 0.83991  0.96528  0.67629  Biso   1.000  H
  H46      1.0000 0.55724  0.82873  0.78070  Biso   1.000  H
  H47      1.0000 0.48849  0.82455  0.71597  Biso   1.000  H
  H48      1.0000 0.49878  0.92160  0.76806  Biso   1.000  H
  H49      1.0000 0.17000  0.11767  0.90727  Biso   1.000  H
  H50      1.0000 0.10609  0.02563  0.95427  Biso   1.000  H
  C42      1.0000 0.27992  0.03975  0.94187  Biso   1.000  C
  C43      1.0000 0.87103  0.47302  0.94639  Biso   1.000  C
  C44      1.0000 0.97964  0.60541  0.87663  Biso   1.000  C
  O8       1.0000 0.12829  0.56335  0.81288  Biso   1.000  O
  H51      1.0000 0.16346  0.72642  0.80910  Biso   1.000  H
  H52      1.0000 0.05776  0.65404  0.76247  Biso   1.000  H
  C45      1.0000 0.89591  0.09996  0.77739  Biso   1.000  C
  C46      1.0000 0.00324  0.22380  0.70334  Biso   1.000  C
  O9       1.0000 0.31436  0.10996  0.99713  Biso   1.000  O
  H53      1.0000 0.33904  0.06533  0.90937  Biso   1.000  H
  H54      1.0000 0.27465  0.96325  0.95059  Biso   1.000  H
  C47      1.0000 0.93740  0.40605  0.92937  Biso   1.000  C
  O10      1.0000 0.78227  0.44739  0.98892  Biso   1.000  O
  C48      1.0000 0.04386  0.53686  0.85802  Biso   1.000  C
  H55      1.0000 0.99614  0.67500  0.85909  Biso   1.000  H
  C49      1.0000 0.95166  0.17513  0.82608  Biso   1.000  C
  H56      1.0000 0.83970  0.03142  0.78648  Biso   1.000  H
  O11      1.0000 0.02327  0.24372  0.64117  Biso   1.000  O
  C50      1.0000 0.05960  0.29905  0.75207  Biso   1.000  C
  C51      1.0000 0.43122  0.12147  0.01714  Biso   1.000  C
  C52      1.0000 0.02455  0.43626  0.88502  Biso   1.000  C
  H57      1.0000 0.92327  0.33794  0.94840  Biso   1.000  H
  C53      1.0000 0.75136  0.34336  0.01620  Biso   1.000  C
  O12      1.0000 0.93140  0.15601  0.88801  Biso   1.000  O
  C54      1.0000 0.03441  0.27630  0.81395  Biso   1.000  C
  C55      1.0000 0.11838  0.33876  0.62723  Biso   1.000  C
  H58      1.0000 0.11625  0.36718  0.74297  Biso   1.000  H
  H59      1.0000 0.48807  0.16537  0.98780  Biso   1.000  H
  H60      1.0000 0.44102  0.04788  0.01784  Biso   1.000  H
  C56      1.0000 0.45384  0.17816  0.08131  Biso   1.000  C
  C57      1.0000 0.09426  0.36022  0.86651  Biso   1.000  C
  H61      1.0000 0.71483  0.28226  0.98449  Biso   1.000  H
  C58      1.0000 0.66372  0.34875  0.06573  Biso   1.000  C
  H62      1.0000 0.82167  0.33185  0.03504  Biso   1.000  H
  C59      1.0000 0.84254  0.05639  0.90228  Biso   1.000  C
  H63      1.0000 0.12331  0.34356  0.58190  Biso   1.000  H
  H64      1.0000 0.19229  0.33337  0.64411  Biso   1.000  H
  H65      1.0000 0.10504  0.40493  0.64598  Biso   1.000  H
  S4       1.0000 0.60777  0.22229  0.10560  Biso   1.000  S
  H66      1.0000 0.40710  0.12710  0.11143  Biso   1.000  H
  H67      1.0000 0.42678  0.24327  0.08214  Biso   1.000  H
  H68      1.0000 0.17344  0.40508  0.85340  Biso   1.000  H
  H69      1.0000 0.10484  0.32077  0.90330  Biso   1.000  H
  H70      1.0000 0.59683  0.36487  0.04605  Biso   1.000  H
  H71      1.0000 0.70238  0.41026  0.09674  Biso   1.000  H
  H72      1.0000 0.83704  0.05283  0.94770  Biso   1.000  H
  H73      1.0000 0.76653  0.05483  0.88437  Biso   1.000  H
  H74      1.0000 0.86292  0.99290  0.88470  Biso   1.000  H
  C60      1.0000 0.47769  0.45900  0.41985  Biso   1.000  C
  O13      1.0000 0.48251  0.47629  0.35470  Biso   1.000  O
  C61      1.0000 0.45198  0.33721  0.42652  Biso   1.000  C
  H75      1.0000 0.55390  0.50155  0.44097  Biso   1.000  H
  H76      1.0000 0.41487  0.48353  0.43901  Biso   1.000  H
  C62      1.0000 0.53667  0.58271  0.33791  Biso   1.000  C
  S5       1.0000 0.30546  0.25219  0.40287  Biso   1.000  S
  H77      1.0000 0.50875  0.31252  0.40147  Biso   1.000  H
  H78      1.0000 0.46557  0.32552  0.47068  Biso   1.000  H
  C63      1.0000 0.58939  0.59405  0.28013  Biso   1.000  C
  C64      1.0000 0.53951  0.67526  0.37531  Biso   1.000  C
  C65      1.0000 0.22908  0.25353  0.47474  Biso   1.000  C
  C66      1.0000 0.58839  0.49372  0.23942  Biso   1.000  C
  C67      1.0000 0.64317  0.69995  0.26082  Biso   1.000  C
  H79      1.0000 0.50490  0.66613  0.41509  Biso   1.000  H
  C68      1.0000 0.59217  0.78130  0.35582  Biso   1.000  C
  C69      1.0000 0.09806  0.19364  0.46513  Biso   1.000  C
  H80      1.0000 0.24208  0.33088  0.49017  Biso   1.000  H
  H81      1.0000 0.26140  0.21758  0.50659  Biso   1.000  H
  C70      1.0000 0.48503  0.45566  0.19316  Biso   1.000  C
  H82      1.0000 0.66269  0.51128  0.21629  Biso   1.000  H
  H83      1.0000 0.58532  0.43266  0.26628  Biso   1.000  H
  C71      1.0000 0.64372  0.79266  0.29753  Biso   1.000  C
  H84      1.0000 0.68029  0.70906  0.22170  Biso   1.000  H
  C72      1.0000 0.58703  0.88003  0.39630  Biso   1.000  C
  O14      1.0000 0.05068  0.26266  0.43127  Biso   1.000  O
  H85      1.0000 0.05977  0.17942  0.50579  Biso   1.000  H
  H86      1.0000 0.08452  0.12205  0.44139  Biso   1.000  H
  C73      1.0000 0.38098  0.37561  0.20855  Biso   1.000  C
  C74      1.0000 0.49000  0.50210  0.13612  Biso   1.000  C
  O15      1.0000 0.69390  0.89892  0.27999  Biso   1.000  O
  C75      1.0000 0.47381  0.90506  0.38413  Biso   1.000  C
  H87      1.0000 0.59229  0.86524  0.44069  Biso   1.000  H
  H88      1.0000 0.65529  0.94535  0.38781  Biso   1.000  H
  C76      1.0000 0.93923  0.20535  0.40325  Biso   1.000  C
  C77      1.0000 0.28436  0.34091  0.16737  Biso   1.000  C
  H89      1.0000 0.37588  0.34418  0.24781  Biso   1.000  H
  C78      1.0000 0.39349  0.46722  0.09481  Biso   1.000  C
  O16      1.0000 0.59469  0.58240  0.12377  Biso   1.000  O
  C79      1.0000 0.76343  0.90359  0.21923  Biso   1.000  C
  C80      1.0000 0.71003  0.93807  0.22408  Biso   1.000  C
  C81      1.0000 0.46799  0.97331  0.33651  Biso   1.000  C
  C82      1.0000 0.37287  0.85892  0.41700  Biso   1.000  C
  C83      1.0000 0.90507  0.28637  0.36682  Biso   1.000  C
  H90      1.0000 0.94353  0.14278  0.37540  Biso   1.000  H
  H91      1.0000 0.88070  0.17619  0.43547  Biso   1.000  H
  O17      1.0000 0.17878  0.26256  0.18024  Biso   1.000  O
  C84      1.0000 0.28984  0.38618  0.10940  Biso   1.000  C
  H92      1.0000 0.39856  0.49950  0.05582  Biso   1.000  H
  C85      1.0000 0.59514  0.64936  0.07419  Biso   1.000  C
  H93      1.0000 0.71450  0.85244  0.18579  Biso   1.000  H
  H94      1.0000 0.83601  0.88468  0.22632  Biso   1.000  H
  H95      1.0000 0.66223  0.88295  0.19199  Biso   1.000  H
  C86      1.0000 0.84089  0.96114  0.21428  Biso   1.000  C
  H96      1.0000 0.85579  0.89012  0.20622  Biso   1.000  H
  C87      1.0000 0.79226  0.02203  0.20304  Biso   1.000  C
  H97      1.0000 0.68912  0.00658  0.22282  Biso   1.000  H
  C88      1.0000 0.36380  0.99319  0.32252  Biso   1.000  C
  H98      1.0000 0.53623  0.00652  0.31338  Biso   1.000  H
  O18      1.0000 0.37422  0.78978  0.46476  Biso   1.000  O
  C89      1.0000 0.26829  0.87748  0.40227  Biso   1.000  C
  S6       1.0000 0.77049  0.22274  0.32117  Biso   1.000  S
  H99      1.0000 0.89466  0.34495  0.39588  Biso   1.000  H
  H100     1.0000 0.96954  0.32167  0.33870  Biso   1.000  H
  C90      1.0000 0.16545  0.22456  0.24128  Biso   1.000  C
  C91      1.0000 0.18326  0.35319  0.06505  Biso   1.000  C
  H101     1.0000 0.67427  0.70278  0.07070  Biso   1.000  H
  H102     1.0000 0.57263  0.60321  0.03530  Biso   1.000  H
  H103     1.0000 0.53863  0.68895  0.08198  Biso   1.000  H
  H104     1.0000 0.88518  0.99747  0.25308  Biso   1.000  H
  S7       1.0000 0.89978  0.05427  0.14573  Biso   1.000  S
  H105     1.0000 0.71988  0.03441  0.18752  Biso   1.000  H
  H106     1.0000 0.82162  0.07136  0.24091  Biso   1.000  H
  C92      1.0000 0.26069  0.94325  0.35461  Biso   1.000  C
  O19      1.0000 0.35400  0.06118  0.27710  Biso   1.000  O
  C93      1.0000 0.38909  0.84472  0.52505  Biso   1.000  C
  H107     1.0000 0.20020  0.84420  0.42549  Biso   1.000  H
  C94      1.0000 0.77715  0.33301  0.27122  Biso   1.000  C
  H108     1.0000 0.08724  0.16946  0.24450  Biso   1.000  H
  H109     1.0000 0.22616  0.19109  0.25010  Biso   1.000  H
  H110     1.0000 0.17388  0.28690  0.27160  Biso   1.000  H
  H111     1.0000 0.13641  0.27480  0.06930  Biso   1.000  H
  H112     1.0000 0.20964  0.36156  0.02150  Biso   1.000  H
  C95      1.0000 0.10795  0.42526  0.07970  Biso   1.000  C
  C96      1.0000 0.83832  0.95758  0.08054  Biso   1.000  C
  C97      1.0000 0.14475  0.95851  0.33684  Biso   1.000  C
  C98      1.0000 0.46055  0.12654  0.25103  Biso   1.000  C
  H113     1.0000 0.38929  0.79241  0.55658  Biso   1.000  H
  H114     1.0000 0.46419  0.90550  0.52771  Biso   1.000  H
  H115     1.0000 0.32420  0.87413  0.53247  Biso   1.000  H
  C99      1.0000 0.86390  0.34026  0.21974  Biso   1.000  C
  H116     1.0000 0.80050  0.40395  0.29659  Biso   1.000  H
  H117     1.0000 0.69782  0.32073  0.25262  Biso   1.000  H
  C100     1.0000 0.12895  0.52686  0.05358  Biso   1.000  C
  C101     1.0000 0.02026  0.39448  0.12335  Biso   1.000  C
  C102     1.0000 0.72006  0.96014  0.05811  Biso   1.000  C
  H118     1.0000 0.82995  0.88213  0.09271  Biso   1.000  H
  H119     1.0000 0.89389  0.97426  0.04570  Biso   1.000  H
  C103     1.0000 0.07918  0.87684  0.28447  Biso   1.000  C
  H120     1.0000 0.09453  0.94924  0.37377  Biso   1.000  H
  H121     1.0000 0.16008  0.03460  0.32369  Biso   1.000  H
  H122     1.0000 0.44266  0.17115  0.21927  Biso   1.000  H
  H123     1.0000 0.51149  0.17533  0.28400  Biso   1.000  H
  H124     1.0000 0.50118  0.07820  0.23191  Biso   1.000  H
  O20      1.0000 0.87169  0.43653  0.18710  Biso   1.000  O
  H125     1.0000 0.83644  0.27346  0.19087  Biso   1.000  H
  H126     1.0000 0.94214  0.34585  0.23751  Biso   1.000  H
  O21      1.0000 0.21771  0.55249  0.01105  Biso   1.000  O
  C104     1.0000 0.06258  0.59384  0.07060  Biso   1.000  C
  H127     1.0000 0.00384  0.32488  0.14088  Biso   1.000  H
  C105     1.0000 0.95604  0.46303  0.14195  Biso   1.000  C
  O22      1.0000 0.68554  0.88993  0.00289  Biso   1.000  O
  H128     1.0000 0.66094  0.93455  0.09061  Biso   1.000  H
  H129     1.0000 0.72525  0.03663  0.04939  Biso   1.000  H
  C106     1.0000 0.10399  0.89992  0.22258  Biso   1.000  C
  C107     1.0000 0.99666  0.77609  0.29664  Biso   1.000  C
  C108     1.0000 0.24863  0.65652  0.98377  Biso   1.000  C
  H130     1.0000 0.07672  0.66194  0.05158  Biso   1.000  H
  C109     1.0000 0.97543  0.56363  0.11495  Biso   1.000  C
  C110     1.0000 0.56877  0.87841  0.98289  Biso   1.000  C
  C111     1.0000 0.04824  0.82476  0.17395  Biso   1.000  C
  H131     1.0000 0.16019  0.96847  0.21349  Biso   1.000  H
  C112     1.0000 0.94038  0.70083  0.24791  Biso   1.000  C
  O23      1.0000 0.97663  0.75617  0.35880  Biso   1.000  O
  H132     1.0000 0.28512  0.71754  0.01548  Biso   1.000  H
  C113     1.0000 0.33618  0.65114  0.93425  Biso   1.000  C
  H133     1.0000 0.17820  0.66796  0.96493  Biso   1.000  H
  C114     1.0000 0.90564  0.63967  0.13347  Biso   1.000  C
  C115     1.0000 0.54606  0.82173  0.91872  Biso   1.000  C
  H134     1.0000 0.51183  0.83452  0.01222  Biso   1.000  H
  H135     1.0000 0.55897  0.95200  0.98214  Biso   1.000  H
  C116     1.0000 0.96557  0.72358  0.18602  Biso   1.000  C
  O24      1.0000 0.06850  0.84388  0.11197  Biso   1.000  O
  H136     1.0000 0.88374  0.63270  0.25700  Biso   1.000  H
  C117     1.0000 0.88161  0.66113  0.37279  Biso   1.000  C
  S8       1.0000 0.39221  0.77759  0.89437  Biso   1.000  S
  H137     1.0000 0.40316  0.63502  0.95397  Biso   1.000  H
  H138     1.0000 0.29752  0.58962  0.90323  Biso   1.000  H
  H139     1.0000 0.82654  0.59481  0.14662  Biso   1.000  H
  H140     1.0000 0.89511  0.67904  0.09672  Biso   1.000  H
  H141     1.0000 0.59288  0.87278  0.88854  Biso   1.000  H
  H142     1.0000 0.57313  0.75662  0.91788  Biso   1.000  H
  C118     1.0000 0.15744  0.94349  0.09770  Biso   1.000  C
  H143     1.0000 0.87667  0.65633  0.41807  Biso   1.000  H
  H144     1.0000 0.80769  0.66652  0.35591  Biso   1.000  H
  H145     1.0000 0.89486  0.59495  0.35400  Biso   1.000  H
  H146     1.0000 0.16294  0.94705  0.05228  Biso   1.000  H
  H147     1.0000 0.23345  0.94506  0.11561  Biso   1.000  H
  H148     1.0000 0.13695  0.00690  0.11528  Biso   1.000  H
