data_image0
_cell_length_a       12.491
_cell_length_b       16.68
_cell_length_c       18.75
_cell_angle_alpha    78.09
_cell_angle_beta     86.59
_cell_angle_gamma    73.12

_symmetry_space_group_name_H-M    "P 1"
_symmetry_int_tables_number       1

loop_
  _symmetry_equiv_pos_as_xyz
  'x, y, z'

loop_
  _atom_site_label
  _atom_site_occupancy
  _atom_site_fract_x
  _atom_site_fract_y
  _atom_site_fract_z
  _atom_site_thermal_displace_type
  _atom_site_B_iso_or_equiv
  _atom_site_type_symbol
  C1       1.0000 0.64813  0.47323  0.46462  Biso   1.000  C
  O1       1.0000 0.57058  0.46372  0.41600  Biso   1.000  O
  C2       1.0000 0.63183  0.56783  0.45519  Biso   1.000  C
  H1       1.0000 0.63295  0.44862  0.51558  Biso   1.000  H
  H2       1.0000 0.72585  0.44373  0.45219  Biso   1.000  H
  C3       1.0000 0.57916  0.38085  0.40809  Biso   1.000  C
  S1       1.0000 0.71657  0.59334  0.51694  Biso   1.000  S
  H3       1.0000 0.65072  0.59047  0.40439  Biso   1.000  H
  H4       1.0000 0.55209  0.59652  0.46331  Biso   1.000  H
  C4       1.0000 0.51372  0.37343  0.35369  Biso   1.000  C
  C5       1.0000 0.64591  0.30875  0.45148  Biso   1.000  C
  C6       1.0000 0.85598  0.55912  0.48059  Biso   1.000  C
  C7       1.0000 0.43979  0.45112  0.30458  Biso   1.000  C
  C8       1.0000 0.52117  0.29283  0.34410  Biso   1.000  C
  H5       1.0000 0.68714  0.31521  0.48980  Biso   1.000  H
  C9       1.0000 0.65535  0.22652  0.44112  Biso   1.000  C
  C10      1.0000 0.87365  0.60972  0.40727  Biso   1.000  C
  H6       1.0000 0.87235  0.49833  0.47688  Biso   1.000  H
  H7       1.0000 0.91012  0.56284  0.51531  Biso   1.000  H
  C11      1.0000 0.49804  0.47454  0.23362  Biso   1.000  C
  H8       1.0000 0.41978  0.50000  0.32987  Biso   1.000  H
  H9       1.0000 0.36975  0.43925  0.29417  Biso   1.000  H
  C12      1.0000 0.59277  0.22005  0.38367  Biso   1.000  C
  H10      1.0000 0.47486  0.28674  0.30829  Biso   1.000  H
  C13      1.0000 0.73231  0.14925  0.48762  Biso   1.000  C
  O2       1.0000 0.98835  0.58143  0.38961  Biso   1.000  O
  H11      1.0000 0.85197  0.67131  0.40858  Biso   1.000  H
  H12      1.0000 0.82727  0.60094  0.37032  Biso   1.000  H
  C14      1.0000 0.49954  0.43400  0.17508  Biso   1.000  C
  C15      1.0000 0.56050  0.53340  0.22620  Biso   1.000  C
  O3       1.0000 0.60984  0.13860  0.37048  Biso   1.000  O
  H13      1.0000 0.73606  0.16087  0.53689  Biso   1.000  H
  H14      1.0000 0.70077  0.10046  0.49241  Biso   1.000  H
  C16      1.0000 0.84965  0.12476  0.45709  Biso   1.000  C
  C17      1.0000 0.01105  0.61293  0.31598  Biso   1.000  C
  O4       1.0000 0.43620  0.37669  0.18472  Biso   1.000  O
  C18      1.0000 0.56119  0.45110  0.11332  Biso   1.000  C
  C19      1.0000 0.62126  0.55068  0.16472  Biso   1.000  C
  H15      1.0000 0.56058  0.56205  0.26501  Biso   1.000  H
  C20      1.0000 0.53534  0.12924  0.31930  Biso   1.000  C
  C21      1.0000 0.88107  0.06215  0.41561  Biso   1.000  C
  C22      1.0000 0.92774  0.16603  0.46849  Biso   1.000  C
  C23      1.0000 0.13300  0.57155  0.30262  Biso   1.000  C
  H16      1.0000 0.96348  0.59842  0.28322  Biso   1.000  H
  H17      1.0000 0.99532  0.67582  0.30687  Biso   1.000  H
  C24      1.0000 0.44775  0.32501  0.13180  Biso   1.000  C
  C25      1.0000 0.62349  0.50973  0.10689  Biso   1.000  C
  H18      1.0000 0.56135  0.42248  0.07440  Biso   1.000  H
  O5       1.0000 0.68415  0.60799  0.15562  Biso   1.000  O
  H19      1.0000 0.45855  0.13932  0.33930  Biso   1.000  H
  H20      1.0000 0.53384  0.17080  0.27308  Biso   1.000  H
  C26      1.0000 0.57866  0.03910  0.30627  Biso   1.000  C
  H21      1.0000 0.82876  0.03331  0.40760  Biso   1.000  H
  C27      1.0000 0.98754  0.04024  0.38531  Biso   1.000  C
  O6       1.0000 0.89217  0.22746  0.51127  Biso   1.000  O
  C28      1.0000 0.03373  0.14352  0.43807  Biso   1.000  C
  S2       1.0000 0.17779  0.60744  0.21089  Biso   1.000  S
  H22      1.0000 0.17895  0.58433  0.33772  Biso   1.000  H
  H23      1.0000 0.14675  0.50881  0.31161  Biso   1.000  H
  H24      1.0000 0.39910  0.28752  0.14461  Biso   1.000  H
  H25      1.0000 0.42659  0.36153  0.08378  Biso   1.000  H
  H26      1.0000 0.52577  0.29008  0.13060  Biso   1.000  H
  C29      1.0000 0.69595  0.52360  0.04121  Biso   1.000  C
  C30      1.0000 0.68657  0.65013  0.21269  Biso   1.000  C
  S3       1.0000 0.48283  0.01418  0.25226  Biso   1.000  S
  H27      1.0000 0.65175  0.03213  0.28098  Biso   1.000  H
  H28      1.0000 0.59067  0.99865  0.35369  Biso   1.000  H
  O7       1.0000 0.01996  0.98042  0.34208  Biso   1.000  O
  C31      1.0000 0.06472  0.08165  0.39637  Biso   1.000  C
  C32      1.0000 0.96067  0.28112  0.51438  Biso   1.000  C
  H29      1.0000 0.08645  0.17185  0.44641  Biso   1.000  H
  C33      1.0000 0.18474  0.51859  0.16832  Biso   1.000  C
  C34      1.0000 0.81333  0.46041  0.04998  Biso   1.000  C
  H30      1.0000 0.70234  0.58258  0.03270  Biso   1.000  H
  H31      1.0000 0.65973  0.51757  0.99782  Biso   1.000  H
  H32      1.0000 0.73439  0.68833  0.19900  Biso   1.000  H
  H33      1.0000 0.61056  0.68374  0.22228  Biso   1.000  H
  H34      1.0000 0.71655  0.60790  0.25667  Biso   1.000  H
  C35      1.0000 0.48316  0.08703  0.16701  Biso   1.000  C
  C36      1.0000 0.94217  0.93583  0.33282  Biso   1.000  C
  C37      1.0000 0.17904  0.06021  0.36138  Biso   1.000  C
  H35      1.0000 0.92614  0.32107  0.54659  Biso   1.000  H
  H36      1.0000 0.96854  0.31343  0.46532  Biso   1.000  H
  H37      1.0000 0.03456  0.24622  0.53329  Biso   1.000  H
  C38      1.0000 0.07204  0.51792  0.14232  Biso   1.000  C
  H38      1.0000 0.21673  0.46475  0.20347  Biso   1.000  H
  H39      1.0000 0.23622  0.52025  0.12607  Biso   1.000  H
  C39      1.0000 0.83525  0.38271  0.02900  Biso   1.000  C
  C40      1.0000 0.89924  0.48084  0.07778  Biso   1.000  C
  H40      1.0000 0.55720  0.09809  0.16041  Biso   1.000  H
  H41      1.0000 0.42634  0.14204  0.16919  Biso   1.000  H
  C41      1.0000 0.46011  0.05671  0.10411  Biso   1.000  C
  H42      1.0000 0.97476  0.89526  0.30088  Biso   1.000  H
  H43      1.0000 0.92484  0.90495  0.38029  Biso   1.000  H
  H44      1.0000 0.87350  0.97681  0.31069  Biso   1.000  H
  C42      1.0000 0.17768  0.11592  0.28709  Biso   1.000  C
  H45      1.0000 0.20197  0.99941  0.35691  Biso   1.000  H
  H46      1.0000 0.23434  0.06874  0.39261  Biso   1.000  H
  O8       1.0000 0.09498  0.44131  0.11310  Biso   1.000  O
  H47      1.0000 0.04038  0.56909  0.10433  Biso   1.000  H
  H48      1.0000 0.01853  0.51661  0.18331  Biso   1.000  H
  O9       1.0000 0.74376  0.36629  0.00229  Biso   1.000  O
  C43      1.0000 0.94225  0.32404  0.03668  Biso   1.000  C
  H49      1.0000 0.88539  0.53462  0.09168  Biso   1.000  H
  C44      1.0000 0.00614  0.42422  0.08579  Biso   1.000  C
  O10      1.0000 0.45147  0.11488  0.03788  Biso   1.000  O
  H50      1.0000 0.38916  0.04093  0.11272  Biso   1.000  H
  H51      1.0000 0.52037  0.00408  0.09980  Biso   1.000  H
  C45      1.0000 0.15953  0.08733  0.22539  Biso   1.000  C
  C46      1.0000 0.19064  0.19781  0.27760  Biso   1.000  C
  C47      1.0000 0.76147  0.29097  0.97509  Biso   1.000  C
  H52      1.0000 0.95521  0.26987  0.02360  Biso   1.000  H
  C48      1.0000 0.02927  0.34573  0.06361  Biso   1.000  C
  C49      1.0000 0.54997  0.13099  0.01248  Biso   1.000  C
  C50      1.0000 0.15020  0.13968  0.15720  Biso   1.000  C
  H53      1.0000 0.15360  0.03089  0.23018  Biso   1.000  H
  C51      1.0000 0.18048  0.24961  0.20778  Biso   1.000  C
  O11      1.0000 0.21106  0.22114  0.34039  Biso   1.000  O
  H54      1.0000 0.78426  0.23980  0.01472  Biso   1.000  H
  C52      1.0000 0.64308  0.29843  0.94162  Biso   1.000  C
  H55      1.0000 0.82020  0.28704  0.93699  Biso   1.000  H
  C53      1.0000 0.14439  0.28188  0.07282  Biso   1.000  C
  C54      1.0000 0.52977  0.18497  0.93432  Biso   1.000  C
  H56      1.0000 0.57475  0.16253  0.04448  Biso   1.000  H
  H57      1.0000 0.60899  0.07648  0.01221  Biso   1.000  H
  C55      1.0000 0.16127  0.22252  0.14690  Biso   1.000  C
  O12      1.0000 0.12716  0.11611  0.09441  Biso   1.000  O
  H58      1.0000 0.18700  0.30585  0.20249  Biso   1.000  H
  C56      1.0000 0.20601  0.30845  0.33429  Biso   1.000  C
  S4       1.0000 0.65718  0.21108  0.90118  Biso   1.000  S
  H59      1.0000 0.58604  0.29944  0.98070  Biso   1.000  H
  H60      1.0000 0.61844  0.35207  0.90489  Biso   1.000  H
  H61      1.0000 0.15578  0.24729  0.03450  Biso   1.000  H
  H62      1.0000 0.20148  0.31340  0.06579  Biso   1.000  H
  H63      1.0000 0.50804  0.15225  0.90200  Biso   1.000  H
  H64      1.0000 0.46826  0.23809  0.93437  Biso   1.000  H
  C57      1.0000 0.13388  0.02831  0.09828  Biso   1.000  C
  H65      1.0000 0.22154  0.31833  0.38187  Biso   1.000  H
  H66      1.0000 0.26183  0.32274  0.29891  Biso   1.000  H
  H67      1.0000 0.13125  0.34440  0.31788  Biso   1.000  H
  H68      1.0000 0.20967  0.99268  0.11250  Biso   1.000  H
  H69      1.0000 0.11604  0.02030  0.05047  Biso   1.000  H
  H70      1.0000 0.08028  0.01181  0.13452  Biso   1.000  H
  O13      1.0000 0.42934  0.53637  0.58398  Biso   1.000  O
  C58      1.0000 0.35171  0.52684  0.53542  Biso   1.000  C
  C59      1.0000 0.42076  0.61924  0.59189  Biso   1.000  C
  C60      1.0000 0.36801  0.43225  0.54479  Biso   1.000  C
  H71      1.0000 0.36697  0.55147  0.48440  Biso   1.000  H
  H72      1.0000 0.27407  0.55636  0.54779  Biso   1.000  H
  C61      1.0000 0.48612  0.62666  0.64629  Biso   1.000  C
  C62      1.0000 0.35393  0.69133  0.54850  Biso   1.000  C
  S5       1.0000 0.28327  0.40673  0.48309  Biso   1.000  S
  H73      1.0000 0.34920  0.40962  0.59559  Biso   1.000  H
  H74      1.0000 0.44783  0.40357  0.53667  Biso   1.000  H
  C63      1.0000 0.56013  0.54897  0.69540  Biso   1.000  C
  C64      1.0000 0.47875  0.70726  0.65588  Biso   1.000  C
  H75      1.0000 0.31272  0.68482  0.51018  Biso   1.000  H
  C65      1.0000 0.34457  0.77356  0.55891  Biso   1.000  C
  C66      1.0000 0.14394  0.44097  0.51939  Biso   1.000  C
  C67      1.0000 0.50188  0.52553  0.76642  Biso   1.000  C
  H76      1.0000 0.58017  0.50002  0.67011  Biso   1.000  H
  H77      1.0000 0.63017  0.56084  0.70581  Biso   1.000  H
  C68      1.0000 0.40715  0.78003  0.61631  Biso   1.000  C
  H78      1.0000 0.52506  0.71335  0.69169  Biso   1.000  H
  C69      1.0000 0.26753  0.85083  0.51242  Biso   1.000  C
  C70      1.0000 0.12627  0.39037  0.59271  Biso   1.000  C
  H79      1.0000 0.12757  0.50176  0.52310  Biso   1.000  H
  H80      1.0000 0.08972  0.43725  0.48467  Biso   1.000  H
  C71      1.0000 0.43941  0.46668  0.77378  Biso   1.000  C
  C72      1.0000 0.50030  0.56608  0.82490  Biso   1.000  C
  O14      1.0000 0.39002  0.86142  0.62950  Biso   1.000  O
  H81      1.0000 0.26386  0.83922  0.46309  Biso   1.000  H
  H82      1.0000 0.29915  0.89962  0.50762  Biso   1.000  H
  C73      1.0000 0.15027  0.87533  0.54289  Biso   1.000  C
  O15      1.0000 0.01157  0.41865  0.61042  Biso   1.000  O
  H83      1.0000 0.14795  0.32877  0.59140  Biso   1.000  H
  H84      1.0000 0.17265  0.39913  0.62972  Biso   1.000  H
  C74      1.0000 0.37869  0.44933  0.83532  Biso   1.000  C
  H85      1.0000 0.43934  0.43803  0.73502  Biso   1.000  H
  O16      1.0000 0.56372  0.62338  0.81531  Biso   1.000  O
  C75      1.0000 0.43873  0.54898  0.88672  Biso   1.000  C
  C76      1.0000 0.46450  0.87084  0.68068  Biso   1.000  C
  C77      1.0000 0.11885  0.93792  0.58442  Biso   1.000  C
  C78      1.0000 0.07218  0.83405  0.53149  Biso   1.000  C
  C79      1.0000 0.98887  0.38716  0.68400  Biso   1.000  C
  O17      1.0000 0.31569  0.39208  0.84442  Biso   1.000  O
  C80      1.0000 0.37643  0.49036  0.89309  Biso   1.000  C
  C81      1.0000 0.55209  0.67507  0.86818  Biso   1.000  C
  H86      1.0000 0.43851  0.57755  0.92558  Biso   1.000  H
  H87      1.0000 0.54137  0.86077  0.66068  Biso   1.000  H
  H88      1.0000 0.46602  0.82923  0.72690  Biso   1.000  H
  C82      1.0000 0.42118  0.96098  0.69371  Biso   1.000  C
  H89      1.0000 0.17116  0.96678  0.59238  Biso   1.000  H
  C83      1.0000 0.01238  0.95985  0.61467  Biso   1.000  C
  O18      1.0000 0.10775  0.77263  0.48871  Biso   1.000  O
  C84      1.0000 0.96611  0.85657  0.56191  Biso   1.000  C
  H90      1.0000 0.03644  0.40165  0.71682  Biso   1.000  H
  H91      1.0000 0.00452  0.32427  0.69311  Biso   1.000  H
  C85      1.0000 0.86684  0.42853  0.69741  Biso   1.000  C
  C86      1.0000 0.31335  0.34996  0.78729  Biso   1.000  C
  C87      1.0000 0.30389  0.47649  0.95877  Biso   1.000  C
  H92      1.0000 0.60082  0.71257  0.85537  Biso   1.000  H
  H93      1.0000 0.57333  0.63855  0.91620  Biso   1.000  H
  H94      1.0000 0.47417  0.70994  0.86938  Biso   1.000  H
  S6       1.0000 0.51701  0.98591  0.74772  Biso   1.000  S
  H95      1.0000 0.34817  0.96796  0.71900  Biso   1.000  H
  H96      1.0000 0.40925  0.00144  0.64629  Biso   1.000  H
  C88      1.0000 0.93512  0.91843  0.60361  Biso   1.000  C
  O19      1.0000 0.97996  0.01967  0.65790  Biso   1.000  O
  C89      1.0000 0.03925  0.71897  0.48560  Biso   1.000  C
  H97      1.0000 0.91347  0.82824  0.55357  Biso   1.000  H
  S7       1.0000 0.82213  0.39263  0.78915  Biso   1.000  S
  H98      1.0000 0.82097  0.41575  0.66231  Biso   1.000  H
  H99      1.0000 0.85317  0.49126  0.68842  Biso   1.000  H
  H100     1.0000 0.26553  0.31176  0.80098  Biso   1.000  H
  H101     1.0000 0.38936  0.31635  0.77770  Biso   1.000  H
  H102     1.0000 0.28339  0.39212  0.74331  Biso   1.000  H
  C90      1.0000 0.18651  0.53968  0.95000  Biso   1.000  C
  H103     1.0000 0.29750  0.41750  0.96728  Biso   1.000  H
  H104     1.0000 0.34019  0.48251  0.00221  Biso   1.000  H
  C91      1.0000 0.51676  0.91305  0.83297  Biso   1.000  C
  C92      1.0000 0.82083  0.93982  0.63860  Biso   1.000  C
  C93      1.0000 0.05775  0.06424  0.66722  Biso   1.000  C
  H105     1.0000 0.07378  0.67902  0.45339  Biso   1.000  H
  H106     1.0000 0.03138  0.68664  0.53471  Biso   1.000  H
  H107     1.0000 0.96536  0.75387  0.46669  Biso   1.000  H
  C94      1.0000 0.81512  0.48143  0.83172  Biso   1.000  C
  C95      1.0000 0.10068  0.51925  0.92220  Biso   1.000  C
  C96      1.0000 0.16459  0.61738  0.97098  Biso   1.000  C
  H108     1.0000 0.44272  0.90199  0.83962  Biso   1.000  H
  H109     1.0000 0.57350  0.85805  0.83079  Biso   1.000  H
  C97      1.0000 0.53981  0.94337  0.89587  Biso   1.000  C
  H110     1.0000 0.76558  0.93133  0.60742  Biso   1.000  H
  C98      1.0000 0.82224  0.88417  0.71289  Biso   1.000  C
  H111     1.0000 0.79795  0.00068  0.64307  Biso   1.000  H
  H112     1.0000 0.02516  0.10483  0.69910  Biso   1.000  H
  H113     1.0000 0.07508  0.09514  0.61969  Biso   1.000  H
  H114     1.0000 0.12642  0.02328  0.68929  Biso   1.000  H
  C99      1.0000 0.92788  0.48216  0.85772  Biso   1.000  C
  H115     1.0000 0.78319  0.53534  0.79651  Biso   1.000  H
  H116     1.0000 0.76362  0.47984  0.87391  Biso   1.000  H
  C100     1.0000 0.99370  0.57587  0.91419  Biso   1.000  C
  H117     1.0000 0.11453  0.46546  0.90830  Biso   1.000  H
  C101     1.0000 0.05767  0.67605  0.96330  Biso   1.000  C
  O20      1.0000 0.25615  0.63379  0.99769  Biso   1.000  O
  O21      1.0000 0.54839  0.88514  0.96210  Biso   1.000  O
  H118     1.0000 0.61076  0.95914  0.88731  Biso   1.000  H
  H119     1.0000 0.47947  0.99600  0.90018  Biso   1.000  H
  C102     1.0000 0.84031  0.91276  0.77459  Biso   1.000  C
  C103     1.0000 0.80928  0.80227  0.72238  Biso   1.000  C
  O22      1.0000 0.90494  0.55878  0.88688  Biso   1.000  O
  H120     1.0000 0.95954  0.43098  0.89571  Biso   1.000  H
  H121     1.0000 0.98131  0.48348  0.81667  Biso   1.000  H
  C104     1.0000 0.97065  0.65436  0.93637  Biso   1.000  C
  H122     1.0000 0.04473  0.73015  0.97638  Biso   1.000  H
  C105     1.0000 0.23845  0.70912  0.02489  Biso   1.000  C
  C106     1.0000 0.44987  0.86910  0.98750  Biso   1.000  C
  C107     1.0000 0.84974  0.86034  0.84278  Biso   1.000  C
  H123     1.0000 0.84634  0.96913  0.76980  Biso   1.000  H
  C108     1.0000 0.81944  0.75048  0.79220  Biso   1.000  C
  O23      1.0000 0.78886  0.77895  0.65959  Biso   1.000  O
  C109     1.0000 0.85553  0.71820  0.92721  Biso   1.000  C
  H124     1.0000 0.21558  0.76028  0.98532  Biso   1.000  H
  C110     1.0000 0.35686  0.70158  0.05841  Biso   1.000  C
  H125     1.0000 0.17975  0.71299  0.06299  Biso   1.000  H
  H126     1.0000 0.42509  0.83756  0.95550  Biso   1.000  H
  H127     1.0000 0.39092  0.92361  0.98777  Biso   1.000  H
  C111     1.0000 0.47015  0.81510  0.06572  Biso   1.000  C
  C112     1.0000 0.83865  0.77757  0.85308  Biso   1.000  C
  O24      1.0000 0.87276  0.88398  0.90557  Biso   1.000  O
  H128     1.0000 0.81284  0.69424  0.79749  Biso   1.000  H
  C113     1.0000 0.79383  0.69163  0.66569  Biso   1.000  C
  H129     1.0000 0.84414  0.75279  0.96548  Biso   1.000  H
  H130     1.0000 0.79844  0.68669  0.93419  Biso   1.000  H
  S8       1.0000 0.34274  0.78900  0.09880  Biso   1.000  S
  H131     1.0000 0.41380  0.70065  0.01928  Biso   1.000  H
  H132     1.0000 0.38140  0.64802  0.09509  Biso   1.000  H
  H133     1.0000 0.49180  0.84784  0.09798  Biso   1.000  H
  H134     1.0000 0.53166  0.76200  0.06561  Biso   1.000  H
  C114     1.0000 0.86604  0.97178  0.90170  Biso   1.000  C
  H135     1.0000 0.77838  0.68175  0.61811  Biso   1.000  H
  H136     1.0000 0.73809  0.67733  0.70112  Biso   1.000  H
  H137     1.0000 0.86870  0.65562  0.68210  Biso   1.000  H
  H138     1.0000 0.88380  0.97979  0.94951  Biso   1.000  H
  H139     1.0000 0.91964  0.98826  0.86551  Biso   1.000  H
  H140     1.0000 0.79027  0.00735  0.88748  Biso   1.000  H
