data_image0
_cell_length_a       23.759
_cell_length_b       23.759
_cell_length_c       23.069
_cell_angle_alpha    90
_cell_angle_beta     90
_cell_angle_gamma    90

_symmetry_space_group_name_H-M    "P 1"
_symmetry_int_tables_number       1

loop_
  _symmetry_equiv_pos_as_xyz
  'x, y, z'

loop_
  _atom_site_label
  _atom_site_occupancy
  _atom_site_fract_x
  _atom_site_fract_y
  _atom_site_fract_z
  _atom_site_thermal_displace_type
  _atom_site_B_iso_or_equiv
  _atom_site_type_symbol
  O1       1.0000 0.18258  0.05951  0.42369  Biso   1.000  O
  C1       1.0000 0.23368  0.04541  0.38168  Biso   1.000  C
  C2       1.0000 0.21861  0.06840  0.31809  Biso   1.000  C
  O2       1.0000 0.29618  0.04878  0.40249  Biso   1.000  O
  O3       1.0000 0.24681  0.12841  0.33031  Biso   1.000  O
  C3       1.0000 0.26760  0.04449  0.27721  Biso   1.000  C
  C4       1.0000 0.23818  0.16470  0.27708  Biso   1.000  C
  C5       1.0000 0.25401  0.07711  0.21999  Biso   1.000  C
  O4       1.0000 0.24908  0.98809  0.26451  Biso   1.000  O
  C6       1.0000 0.27219  0.13730  0.23009  Biso   1.000  C
  O5       1.0000 0.18321  0.16621  0.26252  Biso   1.000  O
  O6       1.0000 0.29559  0.05350  0.17621  Biso   1.000  O
  C7       1.0000 0.28768  0.94389  0.28120  Biso   1.000  C
  O7       1.0000 0.26449  0.17042  0.17981  Biso   1.000  O
  C8       1.0000 0.15640  0.22118  0.27249  Biso   1.000  C
  C9       1.0000 0.29029  0.90071  0.23031  Biso   1.000  C
  O8       1.0000 0.26689  0.91498  0.33070  Biso   1.000  O
  C10      1.0000 0.12711  0.23482  0.21969  Biso   1.000  C
  C11      1.0000 0.10598  0.20691  0.32199  Biso   1.000  C
  C12      1.0000 0.23482  0.87289  0.21969  Biso   1.000  C
  O9       1.0000 0.31129  0.93590  0.17998  Biso   1.000  O
  C13      1.0000 0.20691  0.89402  0.32199  Biso   1.000  C
  C14      1.0000 0.09929  0.29029  0.23031  Biso   1.000  C
  O10      1.0000 0.16491  0.24189  0.17240  Biso   1.000  O
  C15      1.0000 0.13620  0.19412  0.38298  Biso   1.000  C
  O11      1.0000 0.08502  0.26689  0.33070  Biso   1.000  O
  C16      1.0000 0.22118  0.84360  0.27249  Biso   1.000  C
  O12      1.0000 0.24189  0.83509  0.17240  Biso   1.000  O
  C17      1.0000 0.19412  0.86380  0.38298  Biso   1.000  C
  C18      1.0000 0.05611  0.28768  0.28120  Biso   1.000  C
  O13      1.0000 0.06410  0.31129  0.17998  Biso   1.000  O
  O14      1.0000 0.17400  0.23860  0.40292  Biso   1.000  O
  O15      1.0000 0.16621  0.81679  0.26252  Biso   1.000  O
  O16      1.0000 0.23860  0.82600  0.40292  Biso   1.000  O
  O17      1.0000 0.01191  0.24908  0.26451  Biso   1.000  O
  C19      1.0000 0.16470  0.76182  0.27708  Biso   1.000  C
  C20      1.0000 0.95551  0.26760  0.27721  Biso   1.000  C
  C21      1.0000 0.13730  0.72781  0.23009  Biso   1.000  C
  O18      1.0000 0.12841  0.75319  0.33031  Biso   1.000  O
  C22      1.0000 0.92289  0.25401  0.21999  Biso   1.000  C
  C23      1.0000 0.93160  0.21861  0.31809  Biso   1.000  C
  C24      1.0000 0.07711  0.74599  0.21999  Biso   1.000  C
  O19      1.0000 0.17042  0.73551  0.17981  Biso   1.000  O
  C25      1.0000 0.06840  0.78139  0.31809  Biso   1.000  C
  C26      1.0000 0.86270  0.27219  0.23009  Biso   1.000  C
  O20      1.0000 0.94650  0.29559  0.17621  Biso   1.000  O
  O21      1.0000 0.87159  0.24681  0.33031  Biso   1.000  O
  C27      1.0000 0.95459  0.23368  0.38168  Biso   1.000  C
  C28      1.0000 0.04449  0.73240  0.27721  Biso   1.000  C
  O22      1.0000 0.05350  0.70441  0.17621  Biso   1.000  O
  C29      1.0000 0.04541  0.76632  0.38168  Biso   1.000  C
  C30      1.0000 0.83530  0.23818  0.27708  Biso   1.000  C
  O23      1.0000 0.82958  0.26449  0.17981  Biso   1.000  O
  O24      1.0000 0.95122  0.29618  0.40249  Biso   1.000  O
  O25      1.0000 0.94049  0.18258  0.42369  Biso   1.000  O
  O26      1.0000 0.98809  0.75092  0.26451  Biso   1.000  O
  O27      1.0000 0.04878  0.70382  0.40249  Biso   1.000  O
  O28      1.0000 0.05951  0.81742  0.42369  Biso   1.000  O
  O29      1.0000 0.83379  0.18321  0.26252  Biso   1.000  O
  C31      1.0000 0.94389  0.71232  0.28120  Biso   1.000  C
  C32      1.0000 0.77882  0.15640  0.27249  Biso   1.000  C
  C33      1.0000 0.90071  0.70971  0.23031  Biso   1.000  C
  O30      1.0000 0.91498  0.73311  0.33070  Biso   1.000  O
  C34      1.0000 0.76518  0.12711  0.21969  Biso   1.000  C
  C35      1.0000 0.79309  0.10598  0.32199  Biso   1.000  C
  C36      1.0000 0.87289  0.76518  0.21969  Biso   1.000  C
  O31      1.0000 0.93590  0.68871  0.17998  Biso   1.000  O
  C37      1.0000 0.89402  0.79309  0.32199  Biso   1.000  C
  C38      1.0000 0.70971  0.09929  0.23031  Biso   1.000  C
  O32      1.0000 0.75811  0.16491  0.17240  Biso   1.000  O
  O33      1.0000 0.73311  0.08502  0.33070  Biso   1.000  O
  C39      1.0000 0.80588  0.13620  0.38298  Biso   1.000  C
  C40      1.0000 0.84360  0.77882  0.27249  Biso   1.000  C
  O34      1.0000 0.83509  0.75811  0.17240  Biso   1.000  O
  C41      1.0000 0.86380  0.80588  0.38298  Biso   1.000  C
  C42      1.0000 0.71232  0.05611  0.28120  Biso   1.000  C
  O35      1.0000 0.68871  0.06410  0.17998  Biso   1.000  O
  O36      1.0000 0.76140  0.17400  0.40292  Biso   1.000  O
  O37      1.0000 0.81679  0.83379  0.26252  Biso   1.000  O
  O38      1.0000 0.82600  0.76140  0.40292  Biso   1.000  O
  O39      1.0000 0.75092  0.01191  0.26451  Biso   1.000  O
  C43      1.0000 0.76182  0.83530  0.27708  Biso   1.000  C
  C44      1.0000 0.73240  0.95551  0.27721  Biso   1.000  C
  C45      1.0000 0.72781  0.86270  0.23009  Biso   1.000  C
  O40      1.0000 0.75319  0.87159  0.33031  Biso   1.000  O
  C46      1.0000 0.74599  0.92289  0.21999  Biso   1.000  C
  C47      1.0000 0.78139  0.93160  0.31809  Biso   1.000  C
  O41      1.0000 0.73551  0.82958  0.17981  Biso   1.000  O
  O42      1.0000 0.70441  0.94650  0.17621  Biso   1.000  O
  C48      1.0000 0.76632  0.95459  0.38168  Biso   1.000  C
  O43      1.0000 0.70382  0.95122  0.40249  Biso   1.000  O
  O44      1.0000 0.81742  0.94049  0.42369  Biso   1.000  O
  O45      1.0000 0.26512  0.32409  0.59569  Biso   1.000  O
  C49      1.0000 0.30561  0.36399  0.61520  Biso   1.000  C
  C50      1.0000 0.29130  0.39122  0.67328  Biso   1.000  C
  C51      1.0000 0.27670  0.34379  0.71750  Biso   1.000  C
  O46      1.0000 0.23461  0.41702  0.66570  Biso   1.000  O
  C52      1.0000 0.26941  0.37569  0.77862  Biso   1.000  C
  O47      1.0000 0.33671  0.32051  0.73172  Biso   1.000  O
  C53      1.0000 0.21192  0.44438  0.71542  Biso   1.000  C
  C54      1.0000 0.20519  0.40418  0.76471  Biso   1.000  C
  O48      1.0000 0.25780  0.33318  0.82392  Biso   1.000  O
  C55      1.0000 0.33882  0.26268  0.71321  Biso   1.000  C
  O49      1.0000 0.25249  0.48891  0.73059  Biso   1.000  O
  O50      1.0000 0.18881  0.43419  0.81668  Biso   1.000  O
  C56      1.0000 0.36340  0.22211  0.76549  Biso   1.000  C
  O51      1.0000 0.37358  0.25780  0.66592  Biso   1.000  O
  C57      1.0000 0.23469  0.54480  0.72001  Biso   1.000  C
  C58      1.0000 0.42439  0.24349  0.77702  Biso   1.000  C
  O52      1.0000 0.32981  0.23599  0.81889  Biso   1.000  O
  C59      1.0000 0.43112  0.27670  0.67489  Biso   1.000  C
  C60      1.0000 0.24349  0.57561  0.77702  Biso   1.000  C
  C61      1.0000 0.27670  0.56888  0.67489  Biso   1.000  C
  C62      1.0000 0.45520  0.23469  0.72001  Biso   1.000  C
  O53      1.0000 0.44632  0.20110  0.81820  Biso   1.000  O
  C63      1.0000 0.45309  0.28381  0.61091  Biso   1.000  C
  C64      1.0000 0.22211  0.63660  0.76549  Biso   1.000  C
  O54      1.0000 0.20110  0.55368  0.81820  Biso   1.000  O
  C65      1.0000 0.28381  0.54691  0.61091  Biso   1.000  C
  O55      1.0000 0.25780  0.62642  0.66592  Biso   1.000  O
  O56      1.0000 0.51109  0.25249  0.73059  Biso   1.000  O
  O57      1.0000 0.45259  0.21832  0.59881  Biso   1.000  O
  C66      1.0000 0.26268  0.66118  0.71321  Biso   1.000  C
  O58      1.0000 0.23599  0.67019  0.81889  Biso   1.000  O
  O59      1.0000 0.21832  0.54741  0.59881  Biso   1.000  O
  C67      1.0000 0.55562  0.21192  0.71542  Biso   1.000  C
  O60      1.0000 0.32051  0.66329  0.73172  Biso   1.000  O
  C68      1.0000 0.59582  0.20519  0.76471  Biso   1.000  C
  O61      1.0000 0.58298  0.23461  0.66570  Biso   1.000  O
  C69      1.0000 0.34379  0.72330  0.71750  Biso   1.000  C
  C70      1.0000 0.62431  0.26941  0.77862  Biso   1.000  C
  O62      1.0000 0.56581  0.18881  0.81668  Biso   1.000  O
  C71      1.0000 0.60878  0.29130  0.67328  Biso   1.000  C
  C72      1.0000 0.37569  0.73059  0.77862  Biso   1.000  C
  C73      1.0000 0.39122  0.70870  0.67328  Biso   1.000  C
  C74      1.0000 0.65621  0.27670  0.71750  Biso   1.000  C
  O63      1.0000 0.66682  0.25780  0.82392  Biso   1.000  O
  C75      1.0000 0.63601  0.30561  0.61520  Biso   1.000  C
  C76      1.0000 0.40418  0.79481  0.76471  Biso   1.000  C
  O64      1.0000 0.33318  0.74220  0.82392  Biso   1.000  O
  C77      1.0000 0.36399  0.69439  0.61520  Biso   1.000  C
  O65      1.0000 0.41702  0.76539  0.66570  Biso   1.000  O
  O66      1.0000 0.67949  0.33671  0.73172  Biso   1.000  O
  O67      1.0000 0.67591  0.26512  0.59569  Biso   1.000  O
  C78      1.0000 0.44438  0.78808  0.71542  Biso   1.000  C
  O68      1.0000 0.43419  0.81119  0.81668  Biso   1.000  O
  O69      1.0000 0.32409  0.73488  0.59569  Biso   1.000  O
  C79      1.0000 0.73732  0.33882  0.71321  Biso   1.000  C
  O70      1.0000 0.48891  0.74751  0.73059  Biso   1.000  O
  C80      1.0000 0.77789  0.36340  0.76549  Biso   1.000  C
  O71      1.0000 0.74220  0.37358  0.66592  Biso   1.000  O
  C81      1.0000 0.54480  0.76531  0.72001  Biso   1.000  C
  C82      1.0000 0.75651  0.42439  0.77702  Biso   1.000  C
  O72      1.0000 0.76401  0.32981  0.81889  Biso   1.000  O
  C83      1.0000 0.72330  0.43112  0.67489  Biso   1.000  C
  C84      1.0000 0.57561  0.75651  0.77702  Biso   1.000  C
  C85      1.0000 0.56888  0.72330  0.67489  Biso   1.000  C
  C86      1.0000 0.76531  0.45520  0.72001  Biso   1.000  C
  O73      1.0000 0.79890  0.44632  0.81820  Biso   1.000  O
  C87      1.0000 0.71619  0.45309  0.61091  Biso   1.000  C
  C88      1.0000 0.63660  0.77789  0.76549  Biso   1.000  C
  O74      1.0000 0.55368  0.79890  0.81820  Biso   1.000  O
  C89      1.0000 0.54691  0.71619  0.61091  Biso   1.000  C
  O75      1.0000 0.62642  0.74220  0.66592  Biso   1.000  O
  O76      1.0000 0.74751  0.51109  0.73059  Biso   1.000  O
  O77      1.0000 0.78168  0.45259  0.59881  Biso   1.000  O
  C90      1.0000 0.66118  0.73732  0.71321  Biso   1.000  C
  O78      1.0000 0.67019  0.76401  0.81889  Biso   1.000  O
  O79      1.0000 0.54741  0.78168  0.59881  Biso   1.000  O
  C91      1.0000 0.78808  0.55562  0.71542  Biso   1.000  C
  O80      1.0000 0.66329  0.67949  0.73172  Biso   1.000  O
  C92      1.0000 0.79481  0.59582  0.76471  Biso   1.000  C
  O81      1.0000 0.76539  0.58298  0.66570  Biso   1.000  O
  C93      1.0000 0.72330  0.65621  0.71750  Biso   1.000  C
  C94      1.0000 0.73059  0.62431  0.77862  Biso   1.000  C
  O82      1.0000 0.81119  0.56581  0.81668  Biso   1.000  O
  C95      1.0000 0.70870  0.60878  0.67328  Biso   1.000  C
  O83      1.0000 0.74220  0.66682  0.82392  Biso   1.000  O
  C96      1.0000 0.69439  0.63601  0.61520  Biso   1.000  C
  O84      1.0000 0.73488  0.67591  0.59569  Biso   1.000  O
  O85      1.0000 0.25132  0.14980  0.84282  Biso   1.000  O
  C97      1.0000 0.20910  0.15998  0.88929  Biso   1.000  C
  C98      1.0000 0.20371  0.23221  0.89531  Biso   1.000  C
  C99      1.0000 0.23599  0.13549  0.94438  Biso   1.000  C
  O86      1.0000 0.18149  0.25132  0.84460  Biso   1.000  O
  C100     1.0000 0.16991  0.24180  0.95019  Biso   1.000  C
  O87      1.0000 0.23578  0.07841  0.93688  Biso   1.000  O
  C101     1.0000 0.18612  0.14959  0.99311  Biso   1.000  C
  O88      1.0000 0.11221  0.21920  0.93671  Biso   1.000  O
  O89      1.0000 0.18818  0.21129  0.00039  Biso   1.000  O
  C102     1.0000 0.28709  0.05152  0.94781  Biso   1.000  C
  C103     1.0000 0.21221  0.12690  0.05341  Biso   1.000  C
  C104     1.0000 0.06898  0.25999  0.94382  Biso   1.000  C
  C105     1.0000 0.30481  0.01519  0.89618  Biso   1.000  C
  O90      1.0000 0.28280  0.01641  0.99861  Biso   1.000  O
  O91      1.0000 0.27552  0.14361  0.06181  Biso   1.000  O
  C106     1.0000 0.03342  0.26390  0.88959  Biso   1.000  C
  C107     1.0000 0.03009  0.23949  0.99311  Biso   1.000  C
  O92      1.0000 0.30452  0.04958  0.84512  Biso   1.000  O
  C108     1.0000 0.26390  0.96658  0.88959  Biso   1.000  C
  C109     1.0000 0.23949  0.96991  0.99311  Biso   1.000  C
  O93      1.0000 0.07189  0.28419  0.84308  Biso   1.000  O
  C110     1.0000 0.98481  0.30481  0.89618  Biso   1.000  C
  O94      1.0000 0.98359  0.28280  0.99861  Biso   1.000  O
  C111     1.0000 0.06322  0.22770  0.05271  Biso   1.000  C
  C112     1.0000 0.25999  0.93102  0.94382  Biso   1.000  C
  O95      1.0000 0.28419  0.92811  0.84308  Biso   1.000  O
  C113     1.0000 0.22770  0.93678  0.05271  Biso   1.000  C
  C114     1.0000 0.94848  0.28709  0.94781  Biso   1.000  C
  O96      1.0000 0.95042  0.30452  0.84512  Biso   1.000  O
  O97      1.0000 0.08881  0.29101  0.06138  Biso   1.000  O
  O98      1.0000 0.21920  0.88779  0.93671  Biso   1.000  O
  O99      1.0000 0.29101  0.91119  0.06138  Biso   1.000  O
  O100     1.0000 0.92159  0.23578  0.93688  Biso   1.000  O
  C115     1.0000 0.24180  0.83009  0.95019  Biso   1.000  C
  C116     1.0000 0.86451  0.23599  0.94438  Biso   1.000  C
  C117     1.0000 0.23221  0.79629  0.89531  Biso   1.000  C
  O101     1.0000 0.21129  0.81182  0.00039  Biso   1.000  O
  C118     1.0000 0.84002  0.20910  0.88929  Biso   1.000  C
  C119     1.0000 0.85041  0.18612  0.99311  Biso   1.000  C
  C120     1.0000 0.15998  0.79090  0.88929  Biso   1.000  C
  O102     1.0000 0.25132  0.81851  0.84460  Biso   1.000  O
  C121     1.0000 0.14959  0.81388  0.99311  Biso   1.000  C
  C122     1.0000 0.76779  0.20371  0.89531  Biso   1.000  C
  O103     1.0000 0.85020  0.25132  0.84282  Biso   1.000  O
  O104     1.0000 0.78871  0.18818  0.00039  Biso   1.000  O
  C123     1.0000 0.87310  0.21221  0.05341  Biso   1.000  C
  C124     1.0000 0.13549  0.76401  0.94438  Biso   1.000  C
  O105     1.0000 0.14980  0.74868  0.84282  Biso   1.000  O
  C125     1.0000 0.12690  0.78779  0.05341  Biso   1.000  C
  C126     1.0000 0.75820  0.16991  0.95019  Biso   1.000  C
  O106     1.0000 0.74868  0.18149  0.84460  Biso   1.000  O
  O107     1.0000 0.85639  0.27552  0.06181  Biso   1.000  O
  O108     1.0000 0.07841  0.76422  0.93688  Biso   1.000  O
  O109     1.0000 0.14361  0.72448  0.06181  Biso   1.000  O
  O110     1.0000 0.78080  0.11221  0.93671  Biso   1.000  O
  C127     1.0000 0.05152  0.71291  0.94781  Biso   1.000  C
  C128     1.0000 0.74001  0.06898  0.94382  Biso   1.000  C
  C129     1.0000 0.01519  0.69519  0.89618  Biso   1.000  C
  O111     1.0000 0.01641  0.71720  0.99861  Biso   1.000  O
  C130     1.0000 0.73610  0.03342  0.88959  Biso   1.000  C
  C131     1.0000 0.76051  0.03009  0.99311  Biso   1.000  C
  C132     1.0000 0.96658  0.73610  0.88959  Biso   1.000  C
  O112     1.0000 0.04958  0.69548  0.84512  Biso   1.000  O
  C133     1.0000 0.96991  0.76051  0.99311  Biso   1.000  C
  C134     1.0000 0.69519  0.98481  0.89618  Biso   1.000  C
  O113     1.0000 0.71581  0.07189  0.84308  Biso   1.000  O
  O114     1.0000 0.71720  0.98359  0.99861  Biso   1.000  O
  C135     1.0000 0.77230  0.06322  0.05271  Biso   1.000  C
  C136     1.0000 0.93102  0.74001  0.94382  Biso   1.000  C
  O115     1.0000 0.92811  0.71581  0.84308  Biso   1.000  O
  C137     1.0000 0.93678  0.77230  0.05271  Biso   1.000  C
  C138     1.0000 0.71291  0.94848  0.94781  Biso   1.000  C
  O116     1.0000 0.69548  0.95042  0.84512  Biso   1.000  O
  O117     1.0000 0.70899  0.08881  0.06138  Biso   1.000  O
  O118     1.0000 0.88779  0.78080  0.93671  Biso   1.000  O
  O119     1.0000 0.91119  0.70899  0.06138  Biso   1.000  O
  O120     1.0000 0.76422  0.92159  0.93688  Biso   1.000  O
  C139     1.0000 0.83009  0.75820  0.95019  Biso   1.000  C
  C140     1.0000 0.76401  0.86451  0.94438  Biso   1.000  C
  C141     1.0000 0.79629  0.76779  0.89531  Biso   1.000  C
  O121     1.0000 0.81182  0.78871  0.00039  Biso   1.000  O
  C142     1.0000 0.79090  0.84002  0.88929  Biso   1.000  C
  C143     1.0000 0.81388  0.85041  0.99311  Biso   1.000  C
  O122     1.0000 0.81851  0.74868  0.84460  Biso   1.000  O
  O123     1.0000 0.74868  0.85020  0.84282  Biso   1.000  O
  C144     1.0000 0.78779  0.87310  0.05341  Biso   1.000  C
  O124     1.0000 0.72448  0.85639  0.06181  Biso   1.000  O
  O125     1.0000 0.24959  0.31660  0.14769  Biso   1.000  O
  C145     1.0000 0.27152  0.29029  0.09801  Biso   1.000  C
  C146     1.0000 0.25931  0.32838  0.04682  Biso   1.000  C
  C147     1.0000 0.34021  0.29130  0.10560  Biso   1.000  C
  O126     1.0000 0.27989  0.39021  0.06060  Biso   1.000  O
  O127     1.0000 0.29189  0.31150  0.99848  Biso   1.000  O
  C148     1.0000 0.36331  0.26781  0.04859  Biso   1.000  C
  O128     1.0000 0.34812  0.25009  0.15311  Biso   1.000  O
  C149     1.0000 0.23692  0.43398  0.05041  Biso   1.000  C
  C150     1.0000 0.35380  0.31108  0.00429  Biso   1.000  C
  O129     1.0000 0.42439  0.26739  0.06008  Biso   1.000  O
  C151     1.0000 0.23881  0.46639  0.10820  Biso   1.000  C
  C152     1.0000 0.26251  0.47018  0.00542  Biso   1.000  C
  C153     1.0000 0.37350  0.29042  0.94560  Biso   1.000  C
  C154     1.0000 0.44871  0.20918  0.04461  Biso   1.000  C
  C155     1.0000 0.19471  0.51231  0.10078  Biso   1.000  C
  O130     1.0000 0.21339  0.43028  0.15259  Biso   1.000  O
  C156     1.0000 0.26441  0.44358  0.94599  Biso   1.000  C
  O131     1.0000 0.21701  0.51298  0.99762  Biso   1.000  O
  O132     1.0000 0.35978  0.23242  0.93641  Biso   1.000  O
  O133     1.0000 0.36289  0.33251  0.89909  Biso   1.000  O
  C157     1.0000 0.48769  0.19471  0.10078  Biso   1.000  C
  O134     1.0000 0.48702  0.21701  0.99762  Biso   1.000  O
  C158     1.0000 0.20918  0.55129  0.04461  Biso   1.000  C
  O135     1.0000 0.19391  0.54758  0.15272  Biso   1.000  O
  O136     1.0000 0.21390  0.41361  0.93259  Biso   1.000  O
  C159     1.0000 0.53361  0.23881  0.10820  Biso   1.000  C
  O137     1.0000 0.45242  0.19391  0.15272  Biso   1.000  O
  C160     1.0000 0.52982  0.26251  0.00542  Biso   1.000  C
  O138     1.0000 0.26739  0.57561  0.06008  Biso   1.000  O
  C161     1.0000 0.56602  0.23692  0.05041  Biso   1.000  C
  O139     1.0000 0.56972  0.21339  0.15259  Biso   1.000  O
  C162     1.0000 0.55642  0.26441  0.94599  Biso   1.000  C
  C163     1.0000 0.26781  0.63669  0.04859  Biso   1.000  C
  O140     1.0000 0.60979  0.27989  0.06060  Biso   1.000  O
  O141     1.0000 0.58639  0.21390  0.93259  Biso   1.000  O
  C164     1.0000 0.29130  0.65979  0.10560  Biso   1.000  C
  C165     1.0000 0.31108  0.64620  0.00429  Biso   1.000  C
  C166     1.0000 0.67162  0.25931  0.04682  Biso   1.000  C
  C167     1.0000 0.29029  0.72848  0.09801  Biso   1.000  C
  O142     1.0000 0.25009  0.65188  0.15311  Biso   1.000  O
  C168     1.0000 0.29042  0.62650  0.94560  Biso   1.000  C
  O143     1.0000 0.31150  0.70811  0.99848  Biso   1.000  O
  C169     1.0000 0.70971  0.27152  0.09801  Biso   1.000  C
  O144     1.0000 0.68850  0.29189  0.99848  Biso   1.000  O
  C170     1.0000 0.32838  0.74069  0.04682  Biso   1.000  C
  O145     1.0000 0.31660  0.75041  0.14769  Biso   1.000  O
  O146     1.0000 0.23242  0.64022  0.93641  Biso   1.000  O
  O147     1.0000 0.33251  0.63711  0.89909  Biso   1.000  O
  C171     1.0000 0.70870  0.34021  0.10560  Biso   1.000  C
  O148     1.0000 0.68340  0.24959  0.14769  Biso   1.000  O
  C172     1.0000 0.68892  0.35380  0.00429  Biso   1.000  C
  O149     1.0000 0.39021  0.72011  0.06060  Biso   1.000  O
  C173     1.0000 0.73219  0.36331  0.04859  Biso   1.000  C
  O150     1.0000 0.74991  0.34812  0.15311  Biso   1.000  O
  C174     1.0000 0.70958  0.37350  0.94560  Biso   1.000  C
  C175     1.0000 0.43398  0.76308  0.05041  Biso   1.000  C
  O151     1.0000 0.73261  0.42439  0.06008  Biso   1.000  O
  O152     1.0000 0.76758  0.35978  0.93641  Biso   1.000  O
  O153     1.0000 0.66749  0.36289  0.89909  Biso   1.000  O
  C176     1.0000 0.46639  0.76119  0.10820  Biso   1.000  C
  C177     1.0000 0.47018  0.73749  0.00542  Biso   1.000  C
  C178     1.0000 0.79082  0.44871  0.04461  Biso   1.000  C
  C179     1.0000 0.51231  0.80529  0.10078  Biso   1.000  C
  O154     1.0000 0.43028  0.78661  0.15259  Biso   1.000  O
  C180     1.0000 0.44358  0.73559  0.94599  Biso   1.000  C
  O155     1.0000 0.51298  0.78299  0.99762  Biso   1.000  O
  C181     1.0000 0.80529  0.48769  0.10078  Biso   1.000  C
  O156     1.0000 0.78299  0.48702  0.99762  Biso   1.000  O
  C182     1.0000 0.55129  0.79082  0.04461  Biso   1.000  C
  O157     1.0000 0.54758  0.80609  0.15272  Biso   1.000  O
  O158     1.0000 0.41361  0.78610  0.93259  Biso   1.000  O
  C183     1.0000 0.76119  0.53361  0.10820  Biso   1.000  C
  O159     1.0000 0.80609  0.45242  0.15272  Biso   1.000  O
  C184     1.0000 0.73749  0.52982  0.00542  Biso   1.000  C
  O160     1.0000 0.57561  0.73261  0.06008  Biso   1.000  O
  C185     1.0000 0.76308  0.56602  0.05041  Biso   1.000  C
  O161     1.0000 0.78661  0.56972  0.15259  Biso   1.000  O
  C186     1.0000 0.73559  0.55642  0.94599  Biso   1.000  C
  C187     1.0000 0.63669  0.73219  0.04859  Biso   1.000  C
  O162     1.0000 0.72011  0.60979  0.06060  Biso   1.000  O
  O163     1.0000 0.78610  0.58639  0.93259  Biso   1.000  O
  C188     1.0000 0.65979  0.70870  0.10560  Biso   1.000  C
  C189     1.0000 0.64620  0.68892  0.00429  Biso   1.000  C
  C190     1.0000 0.74069  0.67162  0.04682  Biso   1.000  C
  C191     1.0000 0.72848  0.70971  0.09801  Biso   1.000  C
  O164     1.0000 0.65188  0.74991  0.15311  Biso   1.000  O
  O165     1.0000 0.70811  0.68850  0.99848  Biso   1.000  O
  C192     1.0000 0.62650  0.70958  0.94560  Biso   1.000  C
  O166     1.0000 0.75041  0.68340  0.14769  Biso   1.000  O
  O167     1.0000 0.64022  0.76758  0.93641  Biso   1.000  O
  O168     1.0000 0.63711  0.66749  0.89909  Biso   1.000  O
  Ne1      1.0000 0.00000  0.00000  0.28426  Biso   1.000  Ne
  He1      1.0000 1.00000  0.00000  0.43337  Biso   1.000  He
  He2      1.0000 1.00000  1.00000  0.26343  Biso   1.000  He
  Ar1      1.0000 0.00000  0.00000  0.28426  Biso   1.000  Ar
  Ne2      1.0000 0.50000  0.50000  0.04346  Biso   1.000  Ne
  He3      1.0000 0.50000  0.50000  0.04346  Biso   1.000  He
  He4      1.0000 0.50000  0.50000  0.88769  Biso   1.000  He
  Ar2      1.0000 0.50000  0.50000  0.04346  Biso   1.000  Ar
  Ne3      1.0000 0.50000  0.50000  0.71899  Biso   1.000  Ne
  He5      1.0000 0.50000  0.50000  0.71899  Biso   1.000  He
  He6      1.0000 0.50000  0.50000  0.59927  Biso   1.000  He
  Ar3      1.0000 0.50000  0.50000  0.71899  Biso   1.000  Ar
  Ne4      1.0000 0.00000  0.00000  0.94517  Biso   1.000  Ne
  He7      1.0000 1.00000  0.00000  0.06479  Biso   1.000  He
  He8      1.0000 1.00000  0.00000  0.93778  Biso   1.000  He
  Ar4      1.0000 0.00000  0.00000  0.94517  Biso   1.000  Ar
