data_image0
_cell_length_a       14.299
_cell_length_b       37.489
_cell_length_c       9.407
_cell_angle_alpha    90
_cell_angle_beta     90
_cell_angle_gamma    90

_symmetry_space_group_name_H-M    "P 1"
_symmetry_int_tables_number       1

loop_
  _symmetry_equiv_pos_as_xyz
  'x, y, z'

loop_
  _atom_site_label
  _atom_site_occupancy
  _atom_site_fract_x
  _atom_site_fract_y
  _atom_site_fract_z
  _atom_site_thermal_displace_type
  _atom_site_B_iso_or_equiv
  _atom_site_type_symbol
  O1       1.0000 0.57389  0.49001  0.52939  Biso   1.000  O
  C1       1.0000 0.52430  0.47550  0.41586  Biso   1.000  C
  C2       1.0000 0.53892  0.43530  0.41820  Biso   1.000  C
  C3       1.0000 0.41800  0.48361  0.42649  Biso   1.000  C
  O2       1.0000 0.50920  0.42239  0.55427  Biso   1.000  O
  O3       1.0000 0.48493  0.41820  0.31062  Biso   1.000  O
  C4       1.0000 0.36282  0.46240  0.31721  Biso   1.000  C
  O4       1.0000 0.40779  0.52141  0.40332  Biso   1.000  O
  C5       1.0000 0.57312  0.40209  0.63538  Biso   1.000  C
  C6       1.0000 0.38527  0.42330  0.32157  Biso   1.000  C
  O5       1.0000 0.26673  0.46600  0.35963  Biso   1.000  O
  C7       1.0000 0.54913  0.41060  0.79441  Biso   1.000  C
  C8       1.0000 0.56319  0.36269  0.60444  Biso   1.000  C
  C9       1.0000 0.34492  0.40180  0.20028  Biso   1.000  C
  C10      1.0000 0.20638  0.48449  0.26884  Biso   1.000  C
  C11      1.0000 0.60193  0.38611  0.89274  Biso   1.000  C
  O6       1.0000 0.57438  0.44730  0.81960  Biso   1.000  O
  O7       1.0000 0.61599  0.34221  0.70650  Biso   1.000  O
  C12      1.0000 0.59822  0.35141  0.45859  Biso   1.000  C
  O8       1.0000 0.38031  0.41239  0.06750  Biso   1.000  O
  C13      1.0000 0.14337  0.50810  0.35591  Biso   1.000  C
  O9       1.0000 0.15358  0.45979  0.18763  Biso   1.000  O
  C14      1.0000 0.58487  0.34690  0.85054  Biso   1.000  C
  O10      1.0000 0.56563  0.39081  0.03136  Biso   1.000  O
  O11      1.0000 0.69648  0.36469  0.44371  Biso   1.000  O
  C15      1.0000 0.08182  0.48481  0.45041  Biso   1.000  C
  O12      1.0000 0.20148  0.53080  0.43468  Biso   1.000  O
  C16      1.0000 0.09770  0.43549  0.26991  Biso   1.000  C
  O13      1.0000 0.48920  0.34039  0.86127  Biso   1.000  O
  C17      1.0000 0.03189  0.45539  0.36898  Biso   1.000  C
  O14      1.0000 0.01322  0.50730  0.51855  Biso   1.000  O
  C18      1.0000 0.04700  0.41260  0.16179  Biso   1.000  C
  C19      1.0000 0.46157  0.30710  0.92144  Biso   1.000  C
  O15      1.0000 0.99951  0.43031  0.47528  Biso   1.000  O
  O16      1.0000 0.98727  0.43349  0.07463  Biso   1.000  O
  C20      1.0000 0.40220  0.28659  0.81131  Biso   1.000  C
  C21      1.0000 0.40499  0.31540  0.05166  Biso   1.000  C
  C22      1.0000 0.90468  0.41991  0.47263  Biso   1.000  C
  O17      1.0000 0.35338  0.25690  0.87871  Biso   1.000  O
  C23      1.0000 0.45940  0.27171  0.68810  Biso   1.000  C
  C24      1.0000 0.35177  0.28451  0.10960  Biso   1.000  C
  O18      1.0000 0.46891  0.32751  0.16254  Biso   1.000  O
  C25      1.0000 0.86922  0.42450  0.62570  Biso   1.000  C
  O19      1.0000 0.89503  0.38451  0.43159  Biso   1.000  O
  C26      1.0000 0.29072  0.26760  0.98990  Biso   1.000  C
  O20      1.0000 0.54542  0.25469  0.73456  Biso   1.000  O
  O21      1.0000 0.29093  0.29539  0.22186  Biso   1.000  O
  C27      1.0000 0.92188  0.40030  0.72765  Biso   1.000  C
  O22      1.0000 0.87950  0.46179  0.66025  Biso   1.000  O
  C28      1.0000 0.94867  0.35931  0.51866  Biso   1.000  C
  O23      1.0000 0.23037  0.29481  0.94090  Biso   1.000  O
  C29      1.0000 0.91867  0.36211  0.67492  Biso   1.000  C
  O24      1.0000 0.87978  0.40049  0.86606  Biso   1.000  O
  C30      1.0000 0.93328  0.32239  0.45466  Biso   1.000  C
  C31      1.0000 0.13127  0.28619  0.93069  Biso   1.000  C
  O25      1.0000 0.98343  0.34279  0.75880  Biso   1.000  O
  O26      1.0000 0.83621  0.31190  0.47231  Biso   1.000  O
  C32      1.0000 0.10707  0.28400  0.77262  Biso   1.000  C
  C33      1.0000 0.08119  0.31580  0.00702  Biso   1.000  C
  C34      1.0000 0.95769  0.30969  0.82173  Biso   1.000  C
  C35      1.0000 0.14393  0.25090  0.69852  Biso   1.000  C
  O27      1.0000 0.00231  0.28160  0.76103  Biso   1.000  O
  C36      1.0000 0.97440  0.31110  0.98097  Biso   1.000  C
  O28      1.0000 0.09763  0.31431  0.15744  Biso   1.000  O
  O29      1.0000 0.12868  0.21900  0.78133  Biso   1.000  O
  O30      1.0000 0.92321  0.34039  0.04305  Biso   1.000  O
  O31      1.0000 0.62053  0.53821  0.16031  Biso   1.000  O
  C37      1.0000 0.63081  0.57550  0.12565  Biso   1.000  C
  C38      1.0000 0.59529  0.58009  0.97257  Biso   1.000  C
  C39      1.0000 0.57808  0.59970  0.22770  Biso   1.000  C
  O32      1.0000 0.50052  0.56969  0.97534  Biso   1.000  O
  O33      1.0000 0.60501  0.61549  0.93165  Biso   1.000  O
  C40      1.0000 0.58130  0.63789  0.17487  Biso   1.000  C
  O34      1.0000 0.62018  0.59951  0.36611  Biso   1.000  O
  C41      1.0000 0.46807  0.54461  0.86903  Biso   1.000  C
  C42      1.0000 0.55130  0.64069  0.01871  Biso   1.000  C
  O35      1.0000 0.51661  0.65721  0.25885  Biso   1.000  O
  C43      1.0000 0.41821  0.51519  0.95036  Biso   1.000  C
  C44      1.0000 0.40227  0.56451  0.76985  Biso   1.000  C
  C45      1.0000 0.56668  0.67761  0.95471  Biso   1.000  C
  C46      1.0000 0.54228  0.69031  0.32168  Biso   1.000  C
  O36      1.0000 0.48682  0.49270  0.01860  Biso   1.000  O
  C47      1.0000 0.35660  0.49190  0.85585  Biso   1.000  C
  O37      1.0000 0.34639  0.54021  0.68757  Biso   1.000  O
  C48      1.0000 0.45297  0.58740  0.66185  Biso   1.000  C
  O38      1.0000 0.66382  0.68810  0.97225  Biso   1.000  O
  C49      1.0000 0.52563  0.68890  0.48102  Biso   1.000  C
  O39      1.0000 0.49773  0.71840  0.26098  Biso   1.000  O
  C50      1.0000 0.29359  0.51551  0.76879  Biso   1.000  C
  O40      1.0000 0.29848  0.46920  0.93473  Biso   1.000  O
  O41      1.0000 0.51269  0.56651  0.57457  Biso   1.000  O
  C51      1.0000 0.41877  0.68420  0.50696  Biso   1.000  C
  O42      1.0000 0.57682  0.65961  0.54311  Biso   1.000  O
  C52      1.0000 0.39289  0.71600  0.27256  Biso   1.000  C
  O43      1.0000 0.23330  0.53400  0.85957  Biso   1.000  O
  C53      1.0000 0.36870  0.71381  0.43074  Biso   1.000  C
  O44      1.0000 0.40241  0.68569  0.65738  Biso   1.000  O
  C54      1.0000 0.35611  0.74910  0.19847  Biso   1.000  C
  C55      1.0000 0.13721  0.53760  0.81716  Biso   1.000  C
  O45      1.0000 0.26960  0.70519  0.44095  Biso   1.000  O
  O46      1.0000 0.37128  0.78100  0.28128  Biso   1.000  O
  C56      1.0000 0.08203  0.51639  0.92654  Biso   1.000  C
  C57      1.0000 0.11469  0.57670  0.82162  Biso   1.000  C
  C58      1.0000 0.20932  0.73240  0.48985  Biso   1.000  C
  C59      1.0000 0.97573  0.52450  0.91591  Biso   1.000  C
  O47      1.0000 0.09217  0.47859  0.90326  Biso   1.000  O
  C60      1.0000 0.15512  0.59820  0.70033  Biso   1.000  C
  O48      1.0000 0.01511  0.58180  0.81057  Biso   1.000  O
  C61      1.0000 0.14819  0.71549  0.60965  Biso   1.000  C
  O49      1.0000 0.14658  0.74310  0.37865  Biso   1.000  O
  C62      1.0000 0.96112  0.56470  0.91825  Biso   1.000  C
  O50      1.0000 0.92608  0.50999  0.02945  Biso   1.000  O
  O51      1.0000 0.11973  0.58761  0.56745  Biso   1.000  O
  C63      1.0000 0.09497  0.68460  0.55172  Biso   1.000  C
  O52      1.0000 0.20911  0.70461  0.72191  Biso   1.000  O
  C64      1.0000 0.09777  0.71341  0.31126  Biso   1.000  C
  O53      1.0000 0.99077  0.57761  0.05432  Biso   1.000  O
  C65      1.0000 0.03839  0.69290  0.42139  Biso   1.000  C
  O54      1.0000 0.03112  0.67249  0.66249  Biso   1.000  O
  C66      1.0000 0.04063  0.72829  0.18805  Biso   1.000  C
  C67      1.0000 0.92692  0.59791  0.13543  Biso   1.000  C
  O55      1.0000 0.01077  0.65961  0.36133  Biso   1.000  O
  O56      1.0000 0.95461  0.74531  0.23461  Biso   1.000  O
  C68      1.0000 0.95091  0.58940  0.29436  Biso   1.000  C
  C69      1.0000 0.93678  0.63731  0.10439  Biso   1.000  C
  C70      1.0000 0.91510  0.65310  0.35048  Biso   1.000  C
  C71      1.0000 0.89810  0.61389  0.39269  Biso   1.000  C
  O57      1.0000 0.92559  0.55270  0.31955  Biso   1.000  O
  C72      1.0000 0.90181  0.64859  0.95865  Biso   1.000  C
  O58      1.0000 0.88398  0.65779  0.20655  Biso   1.000  O
  O59      1.0000 0.93440  0.60919  0.53141  Biso   1.000  O
  O60      1.0000 0.80348  0.63531  0.94366  Biso   1.000  O
  O61      1.0000 0.62872  0.28099  0.21867  Biso   1.000  O
  C73      1.0000 0.64389  0.24911  0.30148  Biso   1.000  C
  C74      1.0000 0.60711  0.21601  0.22738  Biso   1.000  C
  O62      1.0000 0.50227  0.21841  0.23897  Biso   1.000  O
  C75      1.0000 0.63130  0.21380  0.06931  Biso   1.000  C
  C76      1.0000 0.45772  0.19030  0.17827  Biso   1.000  C
  C77      1.0000 0.58123  0.18419  0.99298  Biso   1.000  C
  O63      1.0000 0.73040  0.20521  0.05910  Biso   1.000  O
  O64      1.0000 0.48339  0.15719  0.24120  Biso   1.000  O
  C78      1.0000 0.47437  0.18891  0.01903  Biso   1.000  C
  O65      1.0000 0.59759  0.18571  0.84256  Biso   1.000  O
  C79      1.0000 0.79068  0.23239  0.01010  Biso   1.000  C
  C80      1.0000 0.41870  0.13791  0.32508  Biso   1.000  C
  O66      1.0000 0.42318  0.15959  0.95695  Biso   1.000  O
  O67      1.0000 0.85342  0.24311  0.12129  Biso   1.000  O
  C81      1.0000 0.85181  0.21550  0.89040  Biso   1.000  C
  C82      1.0000 0.44870  0.14071  0.48134  Biso   1.000  C
  C83      1.0000 0.42192  0.09971  0.27235  Biso   1.000  C
  C84      1.0000 0.90223  0.21340  0.18869  Biso   1.000  C
  C85      1.0000 0.90503  0.18459  0.94834  Biso   1.000  C
  O68      1.0000 0.79089  0.20459  0.77814  Biso   1.000  O
  C86      1.0000 0.43332  0.17760  0.54534  Biso   1.000  C
  O69      1.0000 0.39499  0.11550  0.56841  Biso   1.000  O
  C87      1.0000 0.36919  0.07549  0.37430  Biso   1.000  C
  O70      1.0000 0.37982  0.09950  0.13394  Biso   1.000  O
  C88      1.0000 0.96161  0.19291  0.07856  Biso   1.000  C
  C89      1.0000 0.95937  0.22831  0.31190  Biso   1.000  C
  O71      1.0000 0.96888  0.17250  0.83746  Biso   1.000  O
  O72      1.0000 0.33618  0.18811  0.52769  Biso   1.000  O
  C90      1.0000 0.40471  0.08010  0.52737  Biso   1.000  C
  O73      1.0000 0.37947  0.03820  0.33975  Biso   1.000  O
  O74      1.0000 0.98923  0.15959  0.13873  Biso   1.000  O
  O75      1.0000 0.04539  0.24530  0.26544  Biso   1.000  O
  O76      1.0000 0.49948  0.06970  0.52472  Biso   1.000  O
  C91      1.0000 0.08490  0.15311  0.14946  Biso   1.000  C
  C92      1.0000 0.53193  0.04460  0.63102  Biso   1.000  C
  C93      1.0000 0.10190  0.11390  0.10726  Biso   1.000  C
  O77      1.0000 0.11602  0.15781  0.29350  Biso   1.000  O
  C94      1.0000 0.58179  0.01520  0.54959  Biso   1.000  C
  C95      1.0000 0.59773  0.06450  0.73009  Biso   1.000  C
  O78      1.0000 0.06560  0.10921  0.96864  Biso   1.000  O
  C96      1.0000 0.04909  0.08941  0.20559  Biso   1.000  C
  C97      1.0000 0.06322  0.13729  0.39556  Biso   1.000  C
  C98      1.0000 0.64340  0.99189  0.64409  Biso   1.000  C
  O79      1.0000 0.51318  0.99269  0.48145  Biso   1.000  O
  C99      1.0000 0.54703  0.08741  0.83821  Biso   1.000  C
  O80      1.0000 0.65361  0.04020  0.81237  Biso   1.000  O
  C100     1.0000 0.07308  0.09790  0.36462  Biso   1.000  C
  O81      1.0000 0.07441  0.05271  0.18040  Biso   1.000  O
  C101     1.0000 0.09819  0.14860  0.54141  Biso   1.000  C
  C102     1.0000 0.70641  0.01550  0.73116  Biso   1.000  C
  O82      1.0000 0.70152  0.96919  0.56532  Biso   1.000  O
  O83      1.0000 0.48731  0.06650  0.92537  Biso   1.000  O
  O84      1.0000 0.00923  0.07760  0.44573  Biso   1.000  O
  O85      1.0000 0.19652  0.13529  0.55629  Biso   1.000  O
  O86      1.0000 0.76670  0.03401  0.64037  Biso   1.000  O
  C103     1.0000 0.03888  0.06471  0.58180  Biso   1.000  C
  C104     1.0000 0.86279  0.03761  0.68279  Biso   1.000  C
  C105     1.0000 0.02427  0.02449  0.58414  Biso   1.000  C
  O87      1.0000 0.98489  0.08181  0.68938  Biso   1.000  O
  C106     1.0000 0.91797  0.01640  0.57351  Biso   1.000  C
  C107     1.0000 0.88531  0.07669  0.67843  Biso   1.000  C
  O88      1.0000 0.07392  0.01000  0.47061  Biso   1.000  O
  O89      1.0000 0.90783  0.97861  0.59668  Biso   1.000  O
  C108     1.0000 0.84488  0.09819  0.79972  Biso   1.000  C
  O90      1.0000 0.88027  0.08760  0.93250  Biso   1.000  O
  O91      1.0000 0.45458  0.75470  0.76539  Biso   1.000  O
  C109     1.0000 0.54060  0.77169  0.81195  Biso   1.000  C
  C110     1.0000 0.59780  0.78660  0.68874  Biso   1.000  C
  C111     1.0000 0.53843  0.80709  0.57861  Biso   1.000  C
  O92      1.0000 0.64662  0.75689  0.62135  Biso   1.000  O
  C112     1.0000 0.59501  0.81541  0.44828  Biso   1.000  C
  O93      1.0000 0.51080  0.84041  0.63867  Biso   1.000  O
  C113     1.0000 0.70928  0.76761  0.51015  Biso   1.000  C
  C114     1.0000 0.64823  0.78450  0.39035  Biso   1.000  C
  O94      1.0000 0.53109  0.82750  0.33751  Biso   1.000  O
  C115     1.0000 0.41513  0.84689  0.64952  Biso   1.000  C
  O95      1.0000 0.76963  0.79479  0.55905  Biso   1.000  O
  O96      1.0000 0.70907  0.79541  0.27809  Biso   1.000  O
  C116     1.0000 0.39807  0.88610  0.60731  Biso   1.000  C
  O97      1.0000 0.38401  0.84219  0.79345  Biso   1.000  O
  C117     1.0000 0.86873  0.78620  0.56926  Biso   1.000  C
  C118     1.0000 0.45087  0.91059  0.70564  Biso   1.000  C
  O98      1.0000 0.43437  0.89079  0.46859  Biso   1.000  O
  C119     1.0000 0.43681  0.86271  0.89561  Biso   1.000  C
  C120     1.0000 0.91881  0.81581  0.49304  Biso   1.000  C
  C121     1.0000 0.89293  0.78399  0.72744  Biso   1.000  C
  C122     1.0000 0.42688  0.90210  0.86457  Biso   1.000  C
  O99      1.0000 0.42562  0.94729  0.68045  Biso   1.000  O
  C123     1.0000 0.40178  0.85140  0.04135  Biso   1.000  C
  O100     1.0000 0.90237  0.81429  0.34262  Biso   1.000  O
  C124     1.0000 0.02560  0.81109  0.51898  Biso   1.000  C
  C125     1.0000 0.85607  0.75089  0.80153  Biso   1.000  C
  O101     1.0000 0.99769  0.78159  0.73902  Biso   1.000  O
  O102     1.0000 0.49080  0.92240  0.94568  Biso   1.000  O
  O103     1.0000 0.30352  0.86471  0.05634  Biso   1.000  O
  C126     1.0000 0.04231  0.80970  0.67832  Biso   1.000  C
  O104     1.0000 0.07679  0.84041  0.45689  Biso   1.000  O
  O105     1.0000 0.87132  0.71901  0.71872  Biso   1.000  O
  C127     1.0000 0.46108  0.93529  0.08175  Biso   1.000  C
  O106     1.0000 0.01657  0.84281  0.74115  Biso   1.000  O
  C128     1.0000 0.47570  0.97551  0.08409  Biso   1.000  C
  O107     1.0000 0.51507  0.91819  0.18943  Biso   1.000  O
  C129     1.0000 0.08133  0.86209  0.82513  Biso   1.000  C
  O108     1.0000 0.42611  0.99000  0.97055  Biso   1.000  O
  C130     1.0000 0.58200  0.98360  0.07346  Biso   1.000  C
  C131     1.0000 0.61473  0.92331  0.17838  Biso   1.000  C
  C132     1.0000 0.07812  0.90029  0.77230  Biso   1.000  C
  C133     1.0000 0.05133  0.85929  0.98129  Biso   1.000  C
  C134     1.0000 0.63718  0.96239  0.18284  Biso   1.000  C
  O109     1.0000 0.59221  0.02139  0.09674  Biso   1.000  O
  C135     1.0000 0.65508  0.90181  0.29967  Biso   1.000  C
  C136     1.0000 0.13078  0.92451  0.87435  Biso   1.000  C
  O110     1.0000 0.12022  0.90050  0.63389  Biso   1.000  O
  C137     1.0000 0.06672  0.82240  0.04529  Biso   1.000  C
  O111     1.0000 0.10497  0.88450  0.06835  Biso   1.000  O
  O112     1.0000 0.73327  0.96599  0.14043  Biso   1.000  O
  O113     1.0000 0.61969  0.91240  0.43255  Biso   1.000  O
  O114     1.0000 0.12050  0.96180  0.83969  Biso   1.000  O
  C138     1.0000 0.09532  0.91990  0.02743  Biso   1.000  C
  O115     1.0000 0.16379  0.81189  0.02775  Biso   1.000  O
  C139     1.0000 0.79362  0.98450  0.23121  Biso   1.000  C
  O116     1.0000 0.00049  0.93030  0.02466  Biso   1.000  O
  O117     1.0000 0.84642  0.95980  0.31243  Biso   1.000  O
  C140     1.0000 0.85663  0.00811  0.14415  Biso   1.000  C
  C141     1.0000 0.96811  0.95540  0.13097  Biso   1.000  C
  C142     1.0000 0.90230  0.93550  0.23015  Biso   1.000  C
  C143     1.0000 0.91818  0.98480  0.04964  Biso   1.000  C
  O118     1.0000 0.79852  0.03081  0.06527  Biso   1.000  O
  C144     1.0000 0.95300  0.91259  0.33815  Biso   1.000  C
  O119     1.0000 0.98678  0.00731  0.98140  Biso   1.000  O
  O120     1.0000 0.01273  0.93350  0.42543  Biso   1.000  O
  Ne1      1.0000 0.74774  0.12123  0.35965  Biso   1.000  Ne
  He1      1.0000 0.74462  0.14963  0.47124  Biso   1.000  He
  He2      1.0000 0.74470  0.11634  0.31044  Biso   1.000  He
  Ar1      1.0000 0.74170  0.12314  0.34545  Biso   1.000  Ar
  Ne2      1.0000 0.24774  0.37877  0.64035  Biso   1.000  Ne
  He3      1.0000 0.23120  0.42458  0.80773  Biso   1.000  He
  He4      1.0000 0.20820  0.33029  0.42813  Biso   1.000  He
  Ar2      1.0000 0.24129  0.39920  0.76525  Biso   1.000  Ar
  Ne3      1.0000 0.25226  0.62123  0.14035  Biso   1.000  Ne
  He5      1.0000 0.26553  0.62151  0.15221  Biso   1.000  He
  He6      1.0000 0.23516  0.65198  0.04604  Biso   1.000  He
  Ar3      1.0000 0.25830  0.62314  0.15455  Biso   1.000  Ar
  Ne4      1.0000 0.75226  0.87877  0.85965  Biso   1.000  Ne
  He7      1.0000 0.73442  0.84542  0.96564  Biso   1.000  He
  He8      1.0000 0.74676  0.87737  0.82645  Biso   1.000  He
  Ar4      1.0000 0.75832  0.87686  0.84541  Biso   1.000  Ar
