data_image0
_cell_length_a       32.045
_cell_length_b       8.258
_cell_length_c       14.071
_cell_angle_alpha    90
_cell_angle_beta     97.5
_cell_angle_gamma    90

_symmetry_space_group_name_H-M    "P 1"
_symmetry_int_tables_number       1

loop_
  _symmetry_equiv_pos_as_xyz
  'x, y, z'

loop_
  _atom_site_label
  _atom_site_occupancy
  _atom_site_fract_x
  _atom_site_fract_y
  _atom_site_fract_z
  _atom_site_thermal_displace_type
  _atom_site_B_iso_or_equiv
  _atom_site_type_symbol
  C1       1.0000 0.58310  0.46767  0.52299  Biso   1.000  C
  C2       1.0000 0.59496  0.60293  0.58069  Biso   1.000  C
  C3       1.0000 0.61111  0.34597  0.50700  Biso   1.000  C
  H1       1.0000 0.55480  0.45943  0.49367  Biso   1.000  H
  C4       1.0000 0.56366  0.72911  0.59653  Biso   1.000  C
  C5       1.0000 0.63666  0.61710  0.62499  Biso   1.000  C
  C6       1.0000 0.65218  0.36135  0.55216  Biso   1.000  C
  H2       1.0000 0.60271  0.25599  0.46700  Biso   1.000  H
  C7       1.0000 0.52326  0.68043  0.61409  Biso   1.000  C
  C8       1.0000 0.57409  0.89392  0.59768  Biso   1.000  C
  H3       1.0000 0.64570  0.70780  0.66391  Biso   1.000  H
  C9       1.0000 0.66384  0.49431  0.60972  Biso   1.000  C
  C10      1.0000 0.68939  0.25418  0.55023  Biso   1.000  C
  C11      1.0000 0.49568  0.80044  0.63381  Biso   1.000  C
  H4       1.0000 0.51531  0.56951  0.61252  Biso   1.000  H
  C12      1.0000 0.54551  0.01344  0.61797  Biso   1.000  C
  H5       1.0000 0.60129  0.92541  0.58442  Biso   1.000  H
  C13      1.0000 0.70907  0.47336  0.64958  Biso   1.000  C
  N1       1.0000 0.72206  0.33035  0.61008  Biso   1.000  N
  O1       1.0000 0.69201  0.12921  0.50657  Biso   1.000  O
  C14      1.0000 0.45326  0.78239  0.66463  Biso   1.000  C
  C15      1.0000 0.50628  0.96234  0.63696  Biso   1.000  C
  H6       1.0000 0.55270  0.12509  0.61868  Biso   1.000  H
  O2       1.0000 0.73062  0.55994  0.70499  Biso   1.000  O
  C16      1.0000 0.76261  0.25648  0.64728  Biso   1.000  C
  O3       1.0000 0.43332  0.65972  0.67058  Biso   1.000  O
  N2       1.0000 0.44067  0.93836  0.68843  Biso   1.000  N
  C17      1.0000 0.47104  0.05486  0.67216  Biso   1.000  C
  C18      1.0000 0.75580  0.11431  0.71409  Biso   1.000  C
  C19      1.0000 0.78879  0.20598  0.56937  Biso   1.000  C
  H7       1.0000 0.77919  0.34052  0.68721  Biso   1.000  H
  C20      1.0000 0.40752  0.95665  0.75187  Biso   1.000  C
  O4       1.0000 0.46872  0.19835  0.68606  Biso   1.000  O
  N3       1.0000 0.72747  0.16675  0.78333  Biso   1.000  N
  H8       1.0000 0.74149  0.02531  0.67416  Biso   1.000  H
  C21      1.0000 0.79824  0.05025  0.76147  Biso   1.000  C
  C22      1.0000 0.83123  0.14580  0.61897  Biso   1.000  C
  H9       1.0000 0.79290  0.29935  0.52736  Biso   1.000  H
  H10      1.0000 0.77430  0.11879  0.52951  Biso   1.000  H
  H11      1.0000 0.39050  0.85481  0.74628  Biso   1.000  H
  C23      1.0000 0.42831  0.96912  0.85709  Biso   1.000  C
  C24      1.0000 0.37720  0.09639  0.72499  Biso   1.000  C
  C25      1.0000 0.68383  0.13902  0.76520  Biso   1.000  C
  C26      1.0000 0.73734  0.27452  0.85917  Biso   1.000  C
  H12      1.0000 0.81251  0.13429  0.80419  Biso   1.000  H
  C27      1.0000 0.82614  0.00424  0.68477  Biso   1.000  C
  H13      1.0000 0.79379  0.95411  0.80090  Biso   1.000  H
  H14      1.0000 0.84901  0.11250  0.56980  Biso   1.000  H
  H15      1.0000 0.84581  0.23541  0.65660  Biso   1.000  H
  N4       1.0000 0.45721  0.83156  0.87831  Biso   1.000  N
  C28      1.0000 0.39513  0.98014  0.92612  Biso   1.000  C
  H16      1.0000 0.44541  0.07084  0.86369  Biso   1.000  H
  H17      1.0000 0.36310  0.08186  0.65861  Biso   1.000  H
  H18      1.0000 0.39289  0.20005  0.72807  Biso   1.000  H
  C29      1.0000 0.34415  0.10075  0.79509  Biso   1.000  C
  C30      1.0000 0.66427  0.24897  0.83122  Biso   1.000  C
  O5       1.0000 0.66660  0.04807  0.70578  Biso   1.000  O
  C31      1.0000 0.69620  0.32732  0.88892  Biso   1.000  C
  O6       1.0000 0.77252  0.31775  0.89043  Biso   1.000  O
  H19      1.0000 0.85410  0.96973  0.71638  Biso   1.000  H
  H20      1.0000 0.81329  0.91184  0.64671  Biso   1.000  H
  C32      1.0000 0.44586  0.66651  0.87695  Biso   1.000  C
  C33      1.0000 0.50097  0.85105  0.88182  Biso   1.000  C
  H21      1.0000 0.37901  0.87769  0.92426  Biso   1.000  H
  H22      1.0000 0.40919  0.99625  0.99236  Biso   1.000  H
  C34      1.0000 0.36511  0.12158  0.89774  Biso   1.000  C
  H23      1.0000 0.32770  0.99879  0.78964  Biso   1.000  H
  H24      1.0000 0.32441  0.19157  0.77796  Biso   1.000  H
  C35      1.0000 0.62246  0.28784  0.83287  Biso   1.000  C
  C36      1.0000 0.68743  0.44309  0.95429  Biso   1.000  C
  O7       1.0000 0.41047  0.61468  0.87301  Biso   1.000  O
  C37      1.0000 0.48624  0.57496  0.88118  Biso   1.000  C
  O8       1.0000 0.51885  0.97966  0.88010  Biso   1.000  O
  C38      1.0000 0.51909  0.68564  0.88648  Biso   1.000  C
  H25      1.0000 0.34340  0.12606  0.94161  Biso   1.000  H
  H26      1.0000 0.38099  0.22475  0.90369  Biso   1.000  H
  C39      1.0000 0.61302  0.41136  0.89423  Biso   1.000  C
  H27      1.0000 0.60079  0.23214  0.79351  Biso   1.000  H
  C40      1.0000 0.64552  0.48474  0.95537  Biso   1.000  C
  H28      1.0000 0.70921  0.49249  0.99666  Biso   1.000  H
  C41      1.0000 0.49364  0.41075  0.87867  Biso   1.000  C
  C42      1.0000 0.56049  0.63672  0.89186  Biso   1.000  C
  C43      1.0000 0.56893  0.47045  0.89100  Biso   1.000  C
  H29      1.0000 0.63869  0.56527  0.99895  Biso   1.000  H
  H30      1.0000 0.47109  0.33519  0.87387  Biso   1.000  H
  C44      1.0000 0.53536  0.35929  0.88347  Biso   1.000  C
  H31      1.0000 0.58271  0.71385  0.89609  Biso   1.000  H
  H32      1.0000 0.54119  0.24667  0.88168  Biso   1.000  H
  C45      1.0000 0.41689  0.46767  0.47704  Biso   1.000  C
  C46      1.0000 0.38888  0.34597  0.49302  Biso   1.000  C
  C47      1.0000 0.40503  0.60293  0.41926  Biso   1.000  C
  H33      1.0000 0.44521  0.45943  0.50629  Biso   1.000  H
  C48      1.0000 0.34784  0.36135  0.44779  Biso   1.000  C
  H34      1.0000 0.39731  0.25599  0.53295  Biso   1.000  H
  C49      1.0000 0.36332  0.61710  0.37497  Biso   1.000  C
  C50      1.0000 0.43632  0.72911  0.40342  Biso   1.000  C
  C51      1.0000 0.31063  0.25418  0.44973  Biso   1.000  C
  C52      1.0000 0.33614  0.49431  0.39023  Biso   1.000  C
  H35      1.0000 0.35429  0.70780  0.33611  Biso   1.000  H
  C53      1.0000 0.47673  0.68043  0.38586  Biso   1.000  C
  C54      1.0000 0.42590  0.89392  0.40228  Biso   1.000  C
  N5       1.0000 0.27795  0.33035  0.38988  Biso   1.000  N
  O9       1.0000 0.30798  0.12921  0.49338  Biso   1.000  O
  C55      1.0000 0.29092  0.47336  0.35038  Biso   1.000  C
  H36      1.0000 0.48472  0.56951  0.38751  Biso   1.000  H
  C56      1.0000 0.50431  0.80044  0.36622  Biso   1.000  C
  H37      1.0000 0.39870  0.92541  0.41561  Biso   1.000  H
  C57      1.0000 0.45450  0.01344  0.38199  Biso   1.000  C
  C58      1.0000 0.23741  0.25648  0.35267  Biso   1.000  C
  O10      1.0000 0.26936  0.55994  0.29497  Biso   1.000  O
  C59      1.0000 0.54673  0.78239  0.33533  Biso   1.000  C
  C60      1.0000 0.49373  0.96234  0.36299  Biso   1.000  C
  H38      1.0000 0.44729  0.12509  0.38127  Biso   1.000  H
  C61      1.0000 0.24419  0.11431  0.28587  Biso   1.000  C
  C62      1.0000 0.21120  0.20598  0.43059  Biso   1.000  C
  H39      1.0000 0.22080  0.34052  0.31282  Biso   1.000  H
  O11      1.0000 0.56671  0.65972  0.32945  Biso   1.000  O
  N6       1.0000 0.55934  0.93836  0.31153  Biso   1.000  N
  C63      1.0000 0.52898  0.05486  0.32780  Biso   1.000  C
  N7       1.0000 0.27255  0.16675  0.21669  Biso   1.000  N
  H40      1.0000 0.25849  0.02531  0.32579  Biso   1.000  H
  C64      1.0000 0.20175  0.05025  0.23848  Biso   1.000  C
  C65      1.0000 0.16879  0.14580  0.38099  Biso   1.000  C
  H41      1.0000 0.20711  0.29935  0.47260  Biso   1.000  H
  H42      1.0000 0.22569  0.11879  0.47052  Biso   1.000  H
  C66      1.0000 0.59247  0.95665  0.24809  Biso   1.000  C
  O12      1.0000 0.53130  0.19835  0.31389  Biso   1.000  O
  C67      1.0000 0.31619  0.13902  0.23483  Biso   1.000  C
  C68      1.0000 0.26265  0.27452  0.14078  Biso   1.000  C
  H43      1.0000 0.18750  0.13429  0.19576  Biso   1.000  H
  C69      1.0000 0.17388  0.00424  0.31518  Biso   1.000  C
  H44      1.0000 0.20620  0.95411  0.19906  Biso   1.000  H
  H45      1.0000 0.15101  0.11250  0.43016  Biso   1.000  H
  H46      1.0000 0.15421  0.23541  0.34343  Biso   1.000  H
  C70      1.0000 0.57168  0.96912  0.14286  Biso   1.000  C
  H47      1.0000 0.60948  0.85481  0.25368  Biso   1.000  H
  C71      1.0000 0.62281  0.09639  0.27497  Biso   1.000  C
  O13      1.0000 0.33342  0.04807  0.29418  Biso   1.000  O
  C72      1.0000 0.33572  0.24897  0.16881  Biso   1.000  C
  O14      1.0000 0.22747  0.31775  0.10953  Biso   1.000  O
  C73      1.0000 0.30379  0.32732  0.11103  Biso   1.000  C
  H48      1.0000 0.14591  0.96973  0.28357  Biso   1.000  H
  H49      1.0000 0.18670  0.91184  0.35332  Biso   1.000  H
  N8       1.0000 0.54282  0.83156  0.12172  Biso   1.000  N
  C74      1.0000 0.60486  0.98014  0.07383  Biso   1.000  C
  H50      1.0000 0.55460  0.07084  0.13627  Biso   1.000  H
  H51      1.0000 0.63689  0.08186  0.34142  Biso   1.000  H
  H52      1.0000 0.60709  0.20005  0.27189  Biso   1.000  H
  C75      1.0000 0.65587  0.10075  0.20487  Biso   1.000  C
  C76      1.0000 0.37753  0.28784  0.16709  Biso   1.000  C
  C77      1.0000 0.31259  0.44309  0.04573  Biso   1.000  C
  C78      1.0000 0.49905  0.85105  0.11813  Biso   1.000  C
  C79      1.0000 0.55416  0.66651  0.12301  Biso   1.000  C
  H53      1.0000 0.62100  0.87769  0.07570  Biso   1.000  H
  H54      1.0000 0.59079  0.99625  0.00760  Biso   1.000  H
  C80      1.0000 0.63488  0.12158  0.10222  Biso   1.000  C
  H55      1.0000 0.67231  0.99879  0.21031  Biso   1.000  H
  H56      1.0000 0.67560  0.19157  0.22200  Biso   1.000  H
  C81      1.0000 0.38696  0.41136  0.10573  Biso   1.000  C
  H57      1.0000 0.39920  0.23214  0.20651  Biso   1.000  H
  H58      1.0000 0.29081  0.49249  0.00330  Biso   1.000  H
  C82      1.0000 0.35447  0.48474  0.04459  Biso   1.000  C
  C83      1.0000 0.48090  0.68564  0.11347  Biso   1.000  C
  O15      1.0000 0.48114  0.97966  0.11985  Biso   1.000  O
  C84      1.0000 0.51375  0.57496  0.11878  Biso   1.000  C
  O16      1.0000 0.58955  0.61468  0.12695  Biso   1.000  O
  H59      1.0000 0.65659  0.12606  0.05842  Biso   1.000  H
  H60      1.0000 0.61900  0.22475  0.09627  Biso   1.000  H
  C85      1.0000 0.43108  0.47045  0.10896  Biso   1.000  C
  H61      1.0000 0.36130  0.56527  0.00100  Biso   1.000  H
  C86      1.0000 0.43949  0.63672  0.10810  Biso   1.000  C
  C87      1.0000 0.50637  0.41075  0.12128  Biso   1.000  C
  C88      1.0000 0.46463  0.35929  0.11648  Biso   1.000  C
  H62      1.0000 0.41731  0.71385  0.10387  Biso   1.000  H
  H63      1.0000 0.52890  0.33519  0.12609  Biso   1.000  H
  H64      1.0000 0.45880  0.24667  0.11827  Biso   1.000  H
  C89      1.0000 0.66877  0.64580  0.38099  Biso   1.000  C
  C90      1.0000 0.71121  0.70598  0.43059  Biso   1.000  C
  C91      1.0000 0.67386  0.50424  0.31518  Biso   1.000  C
  H65      1.0000 0.65099  0.61250  0.43016  Biso   1.000  H
  H66      1.0000 0.65420  0.73541  0.34343  Biso   1.000  H
  C92      1.0000 0.73739  0.75648  0.35267  Biso   1.000  C
  H67      1.0000 0.70710  0.79935  0.47260  Biso   1.000  H
  H68      1.0000 0.72570  0.61879  0.47052  Biso   1.000  H
  C93      1.0000 0.70176  0.55025  0.23848  Biso   1.000  C
  H69      1.0000 0.64590  0.46973  0.28357  Biso   1.000  H
  H70      1.0000 0.68669  0.41184  0.35332  Biso   1.000  H
  N9       1.0000 0.77794  0.83035  0.38988  Biso   1.000  N
  C94      1.0000 0.74420  0.61431  0.28587  Biso   1.000  C
  H71      1.0000 0.72082  0.84052  0.31282  Biso   1.000  H
  H72      1.0000 0.70621  0.45411  0.19906  Biso   1.000  H
  H73      1.0000 0.68749  0.63429  0.19576  Biso   1.000  H
  C95      1.0000 0.79090  0.97336  0.35038  Biso   1.000  C
  C96      1.0000 0.81061  0.75418  0.44973  Biso   1.000  C
  N10      1.0000 0.77254  0.66675  0.21669  Biso   1.000  N
  H74      1.0000 0.75851  0.52531  0.32579  Biso   1.000  H
  O17      1.0000 0.76938  0.05994  0.29497  Biso   1.000  O
  C97      1.0000 0.83616  0.99431  0.39023  Biso   1.000  C
  C98      1.0000 0.84782  0.86135  0.44779  Biso   1.000  C
  O18      1.0000 0.80799  0.62921  0.49338  Biso   1.000  O
  C99      1.0000 0.81617  0.63902  0.23483  Biso   1.000  C
  C100     1.0000 0.76266  0.77452  0.14078  Biso   1.000  C
  C101     1.0000 0.86331  0.11710  0.37497  Biso   1.000  C
  C102     1.0000 0.88889  0.84597  0.49302  Biso   1.000  C
  O19      1.0000 0.83340  0.54807  0.29418  Biso   1.000  O
  C103     1.0000 0.83573  0.74897  0.16881  Biso   1.000  C
  O20      1.0000 0.72748  0.81775  0.10953  Biso   1.000  O
  C104     1.0000 0.80380  0.82732  0.11103  Biso   1.000  C
  C105     1.0000 0.90504  0.10293  0.41926  Biso   1.000  C
  H75      1.0000 0.85431  0.20780  0.33611  Biso   1.000  H
  C106     1.0000 0.91690  0.96767  0.47704  Biso   1.000  C
  H76      1.0000 0.89730  0.75599  0.53295  Biso   1.000  H
  C107     1.0000 0.87754  0.78784  0.16709  Biso   1.000  C
  C108     1.0000 0.81258  0.94309  0.04573  Biso   1.000  C
  C109     1.0000 0.93634  0.22911  0.40342  Biso   1.000  C
  H77      1.0000 0.94520  0.95943  0.50629  Biso   1.000  H
  C110     1.0000 0.88698  0.91136  0.10573  Biso   1.000  C
  H78      1.0000 0.89921  0.73214  0.20651  Biso   1.000  H
  H79      1.0000 0.79080  0.99249  0.00330  Biso   1.000  H
  C111     1.0000 0.85448  0.98474  0.04459  Biso   1.000  C
  C112     1.0000 0.97674  0.18043  0.38586  Biso   1.000  C
  C113     1.0000 0.92591  0.39392  0.40228  Biso   1.000  C
  C114     1.0000 0.93107  0.97045  0.10896  Biso   1.000  C
  H80      1.0000 0.86132  0.06527  0.00100  Biso   1.000  H
  H81      1.0000 0.98470  0.06951  0.38751  Biso   1.000  H
  C115     1.0000 0.00433  0.30044  0.36622  Biso   1.000  C
  C116     1.0000 0.95449  0.51344  0.38199  Biso   1.000  C
  H82      1.0000 0.89871  0.42541  0.41561  Biso   1.000  H
  C117     1.0000 0.93951  0.13672  0.10810  Biso   1.000  C
  C118     1.0000 0.96464  0.85929  0.11648  Biso   1.000  C
  C119     1.0000 0.99372  0.46234  0.36299  Biso   1.000  C
  C120     1.0000 0.04674  0.28239  0.33533  Biso   1.000  C
  H83      1.0000 0.94730  0.62509  0.38127  Biso   1.000  H
  H84      1.0000 0.91730  0.21385  0.10387  Biso   1.000  H
  C121     1.0000 0.98088  0.18564  0.11347  Biso   1.000  C
  H85      1.0000 0.95878  0.74667  0.11827  Biso   1.000  H
  C122     1.0000 0.00636  0.91075  0.12128  Biso   1.000  C
  C123     1.0000 0.02896  0.55486  0.32780  Biso   1.000  C
  O21      1.0000 0.06669  0.15972  0.32945  Biso   1.000  O
  N11      1.0000 0.05933  0.43836  0.31153  Biso   1.000  N
  C124     1.0000 0.99903  0.35105  0.11813  Biso   1.000  C
  C125     1.0000 0.01374  0.07496  0.11878  Biso   1.000  C
  H86      1.0000 0.02891  0.83519  0.12609  Biso   1.000  H
  O22      1.0000 0.03128  0.69835  0.31389  Biso   1.000  O
  C126     1.0000 0.09245  0.45665  0.24809  Biso   1.000  C
  N12      1.0000 0.04280  0.33156  0.12172  Biso   1.000  N
  O23      1.0000 0.98116  0.47966  0.11985  Biso   1.000  O
  C127     1.0000 0.05414  0.16651  0.12301  Biso   1.000  C
  H87      1.0000 0.10950  0.35481  0.25368  Biso   1.000  H
  C128     1.0000 0.12280  0.59639  0.27497  Biso   1.000  C
  C129     1.0000 0.07169  0.46912  0.14286  Biso   1.000  C
  O24      1.0000 0.08954  0.11468  0.12695  Biso   1.000  O
  H88      1.0000 0.13690  0.58186  0.34142  Biso   1.000  H
  H89      1.0000 0.10711  0.70005  0.27189  Biso   1.000  H
  C130     1.0000 0.15585  0.60075  0.20487  Biso   1.000  C
  C131     1.0000 0.10487  0.48014  0.07383  Biso   1.000  C
  H90      1.0000 0.05459  0.57084  0.13627  Biso   1.000  H
  H91      1.0000 0.17559  0.69157  0.22200  Biso   1.000  H
  H92      1.0000 0.17230  0.49879  0.21031  Biso   1.000  H
  C132     1.0000 0.13486  0.62158  0.10222  Biso   1.000  C
  H93      1.0000 0.12099  0.37769  0.07570  Biso   1.000  H
  H94      1.0000 0.09081  0.49625  0.00760  Biso   1.000  H
  H95      1.0000 0.15660  0.62606  0.05842  Biso   1.000  H
  H96      1.0000 0.11898  0.72475  0.09627  Biso   1.000  H
  C133     1.0000 0.33122  0.64580  0.61897  Biso   1.000  C
  C134     1.0000 0.28880  0.70598  0.56937  Biso   1.000  C
  C135     1.0000 0.32613  0.50424  0.68477  Biso   1.000  C
  H97      1.0000 0.34899  0.61250  0.56980  Biso   1.000  H
  H98      1.0000 0.34579  0.73541  0.65660  Biso   1.000  H
  C136     1.0000 0.26259  0.75648  0.64728  Biso   1.000  C
  H99      1.0000 0.29289  0.79935  0.52736  Biso   1.000  H
  H100     1.0000 0.27429  0.61879  0.52951  Biso   1.000  H
  C137     1.0000 0.29825  0.55025  0.76147  Biso   1.000  C
  H101     1.0000 0.35409  0.46973  0.71638  Biso   1.000  H
  H102     1.0000 0.31330  0.41184  0.64671  Biso   1.000  H
  N13      1.0000 0.22205  0.83035  0.61008  Biso   1.000  N
  C138     1.0000 0.25581  0.61431  0.71409  Biso   1.000  C
  H103     1.0000 0.27921  0.84052  0.68721  Biso   1.000  H
  H104     1.0000 0.29380  0.45411  0.80090  Biso   1.000  H
  H105     1.0000 0.31250  0.63429  0.80419  Biso   1.000  H
  C139     1.0000 0.20908  0.97336  0.64958  Biso   1.000  C
  C140     1.0000 0.18938  0.75418  0.55023  Biso   1.000  C
  N14      1.0000 0.22745  0.66675  0.78333  Biso   1.000  N
  H106     1.0000 0.24151  0.52531  0.67416  Biso   1.000  H
  O25      1.0000 0.23061  0.05994  0.70499  Biso   1.000  O
  C141     1.0000 0.16386  0.99431  0.60972  Biso   1.000  C
  C142     1.0000 0.15216  0.86135  0.55216  Biso   1.000  C
  O26      1.0000 0.19202  0.62921  0.50657  Biso   1.000  O
  C143     1.0000 0.18382  0.63902  0.76520  Biso   1.000  C
  C144     1.0000 0.23735  0.77452  0.85917  Biso   1.000  C
  C145     1.0000 0.13668  0.11710  0.62499  Biso   1.000  C
  C146     1.0000 0.11113  0.84597  0.50700  Biso   1.000  C
  O27      1.0000 0.16659  0.54807  0.70578  Biso   1.000  O
  C147     1.0000 0.16426  0.74897  0.83122  Biso   1.000  C
  O28      1.0000 0.27254  0.81775  0.89043  Biso   1.000  O
  C148     1.0000 0.19621  0.82732  0.88892  Biso   1.000  C
  C149     1.0000 0.09495  0.10293  0.58069  Biso   1.000  C
  H107     1.0000 0.14571  0.20780  0.66391  Biso   1.000  H
  C150     1.0000 0.08312  0.96767  0.52299  Biso   1.000  C
  H108     1.0000 0.10269  0.75599  0.46700  Biso   1.000  H
  C151     1.0000 0.12247  0.78784  0.83287  Biso   1.000  C
  C152     1.0000 0.18741  0.94309  0.95429  Biso   1.000  C
  C153     1.0000 0.06368  0.22911  0.59653  Biso   1.000  C
  H109     1.0000 0.05479  0.95943  0.49367  Biso   1.000  H
  C154     1.0000 0.11304  0.91136  0.89423  Biso   1.000  C
  H110     1.0000 0.10081  0.73214  0.79351  Biso   1.000  H
  H111     1.0000 0.20919  0.99249  0.99666  Biso   1.000  H
  C155     1.0000 0.14553  0.98474  0.95537  Biso   1.000  C
  C156     1.0000 0.02328  0.18043  0.61409  Biso   1.000  C
  C157     1.0000 0.07411  0.39392  0.59768  Biso   1.000  C
  C158     1.0000 0.06892  0.97045  0.89100  Biso   1.000  C
  H112     1.0000 0.13870  0.06527  0.99895  Biso   1.000  H
  H113     1.0000 0.01529  0.06951  0.61252  Biso   1.000  H
  C159     1.0000 0.99570  0.30044  0.63381  Biso   1.000  C
  C160     1.0000 0.04550  0.51344  0.61797  Biso   1.000  C
  H114     1.0000 0.10131  0.42541  0.58442  Biso   1.000  H
  C161     1.0000 0.06051  0.13672  0.89186  Biso   1.000  C
  C162     1.0000 0.03534  0.85929  0.88347  Biso   1.000  C
  C163     1.0000 0.00627  0.46234  0.63696  Biso   1.000  C
  C164     1.0000 0.95327  0.28239  0.66463  Biso   1.000  C
  H115     1.0000 0.05269  0.62509  0.61868  Biso   1.000  H
  H116     1.0000 0.08269  0.21385  0.89609  Biso   1.000  H
  C165     1.0000 0.01910  0.18564  0.88648  Biso   1.000  C
  C166     1.0000 0.99363  0.91075  0.87867  Biso   1.000  C
  H117     1.0000 0.04120  0.74667  0.88168  Biso   1.000  H
  C167     1.0000 0.97103  0.55486  0.67216  Biso   1.000  C
  O29      1.0000 0.93330  0.15972  0.67058  Biso   1.000  O
  N15      1.0000 0.94066  0.43836  0.68843  Biso   1.000  N
  C168     1.0000 0.00095  0.35105  0.88182  Biso   1.000  C
  C169     1.0000 0.98625  0.07496  0.88118  Biso   1.000  C
  H118     1.0000 0.97110  0.83519  0.87387  Biso   1.000  H
  O30      1.0000 0.96870  0.69835  0.68606  Biso   1.000  O
  C170     1.0000 0.90753  0.45665  0.75187  Biso   1.000  C
  N16      1.0000 0.95719  0.33156  0.87831  Biso   1.000  N
  O31      1.0000 0.01886  0.47966  0.88010  Biso   1.000  O
  C171     1.0000 0.94585  0.16651  0.87695  Biso   1.000  C
  H119     1.0000 0.89049  0.35481  0.74628  Biso   1.000  H
  C172     1.0000 0.87719  0.59639  0.72499  Biso   1.000  C
  C173     1.0000 0.92832  0.46912  0.85709  Biso   1.000  C
  O32      1.0000 0.91045  0.11468  0.87301  Biso   1.000  O
  H120     1.0000 0.86309  0.58186  0.65861  Biso   1.000  H
  H121     1.0000 0.89291  0.70005  0.72807  Biso   1.000  H
  C174     1.0000 0.84413  0.60075  0.79509  Biso   1.000  C
  C175     1.0000 0.89515  0.48014  0.92612  Biso   1.000  C
  H122     1.0000 0.94540  0.57084  0.86369  Biso   1.000  H
  H123     1.0000 0.82440  0.69157  0.77796  Biso   1.000  H
  H124     1.0000 0.82769  0.49879  0.78964  Biso   1.000  H
  C176     1.0000 0.86512  0.62158  0.89774  Biso   1.000  C
  H125     1.0000 0.87900  0.37769  0.92426  Biso   1.000  H
  H126     1.0000 0.90921  0.49625  0.99236  Biso   1.000  H
  H127     1.0000 0.84339  0.62606  0.94161  Biso   1.000  H
  H128     1.0000 0.88100  0.72475  0.90369  Biso   1.000  H
