data_image0
_cell_length_a       12.38
_cell_length_b       16.365
_cell_length_c       21.594
_cell_angle_alpha    91.21
_cell_angle_beta     94.23
_cell_angle_gamma    112.03

_symmetry_space_group_name_H-M    "P 1"
_symmetry_int_tables_number       1

loop_
  _symmetry_equiv_pos_as_xyz
  'x, y, z'

loop_
  _atom_site_label
  _atom_site_occupancy
  _atom_site_fract_x
  _atom_site_fract_y
  _atom_site_fract_z
  _atom_site_thermal_displace_type
  _atom_site_B_iso_or_equiv
  _atom_site_type_symbol
  C1       1.0000 0.64860  0.48966  0.47709  Biso   1.000  C
  C2       1.0000 0.62238  0.39382  0.45431  Biso   1.000  C
  H1       1.0000 0.61838  0.51916  0.44501  Biso   1.000  H
  H2       1.0000 0.61070  0.48982  0.51532  Biso   1.000  H
  H3       1.0000 0.73327  0.52112  0.48533  Biso   1.000  H
  C3       1.0000 0.48842  0.34744  0.43882  Biso   1.000  C
  C4       1.0000 0.67154  0.34937  0.50420  Biso   1.000  C
  C5       1.0000 0.68221  0.39531  0.39502  Biso   1.000  C
  H4       1.0000 0.46957  0.28616  0.42422  Biso   1.000  H
  H5       1.0000 0.44852  0.34833  0.47621  Biso   1.000  H
  H6       1.0000 0.46235  0.37856  0.40632  Biso   1.000  H
  C6       1.0000 0.78907  0.38234  0.52280  Biso   1.000  C
  C7       1.0000 0.59947  0.27354  0.53201  Biso   1.000  C
  H7       1.0000 0.66588  0.33476  0.37963  Biso   1.000  H
  H8       1.0000 0.65268  0.42576  0.36331  Biso   1.000  H
  H9       1.0000 0.76693  0.42675  0.40372  Biso   1.000  H
  C8       1.0000 0.83793  0.34543  0.56772  Biso   1.000  C
  H10      1.0000 0.83879  0.43285  0.50369  Biso   1.000  H
  H11      1.0000 0.51837  0.24801  0.51862  Biso   1.000  H
  C9       1.0000 0.64487  0.23504  0.57870  Biso   1.000  C
  C10      1.0000 0.96574  0.38095  0.58609  Biso   1.000  C
  C11      1.0000 0.76478  0.27152  0.59660  Biso   1.000  C
  C12      1.0000 0.56383  0.15412  0.60720  Biso   1.000  C
  O1       1.0000 0.02807  0.46074  0.58033  Biso   1.000  O
  N1       1.0000 0.01087  0.32522  0.61041  Biso   1.000  N
  H12      1.0000 0.79686  0.24616  0.62850  Biso   1.000  H
  O2       1.0000 0.46022  0.13490  0.60492  Biso   1.000  O
  N2       1.0000 0.61904  0.10394  0.63520  Biso   1.000  N
  H13      1.0000 0.96301  0.26964  0.61023  Biso   1.000  H
  C13      1.0000 0.12752  0.34526  0.63682  Biso   1.000  C
  H14      1.0000 0.69363  0.11896  0.62971  Biso   1.000  H
  C14      1.0000 0.56796  0.02873  0.67300  Biso   1.000  C
  C15      1.0000 0.16397  0.39048  0.69569  Biso   1.000  C
  C16      1.0000 0.20002  0.31072  0.60771  Biso   1.000  C
  C17      1.0000 0.58681  0.04502  0.73731  Biso   1.000  C
  C18      1.0000 0.50969  0.94305  0.64510  Biso   1.000  C
  C19      1.0000 0.27249  0.39553  0.72359  Biso   1.000  C
  C20      1.0000 0.09138  0.43143  0.72764  Biso   1.000  C
  C21      1.0000 0.30432  0.31876  0.63771  Biso   1.000  C
  C22      1.0000 0.15985  0.26410  0.54419  Biso   1.000  C
  C23      1.0000 0.64351  0.13762  0.76712  Biso   1.000  C
  C24      1.0000 0.55641  0.97320  0.77470  Biso   1.000  C
  C25      1.0000 0.47821  0.87417  0.68472  Biso   1.000  C
  C26      1.0000 0.48876  0.92790  0.57661  Biso   1.000  C
  C27      1.0000 0.34504  0.36008  0.69644  Biso   1.000  C
  H15      1.0000 0.29804  0.42496  0.76354  Biso   1.000  H
  H16      1.0000 0.01918  0.42135  0.70132  Biso   1.000  H
  H17      1.0000 0.07188  0.40456  0.76754  Biso   1.000  H
  H18      1.0000 0.13552  0.49493  0.73494  Biso   1.000  H
  H19      1.0000 0.35214  0.29476  0.61729  Biso   1.000  H
  H20      1.0000 0.08329  0.26516  0.53020  Biso   1.000  H
  H21      1.0000 0.21663  0.29406  0.51471  Biso   1.000  H
  H22      1.0000 0.15371  0.20271  0.54661  Biso   1.000  H
  H23      1.0000 0.66133  0.18054  0.73461  Biso   1.000  H
  H24      1.0000 0.58999  0.14875  0.79423  Biso   1.000  H
  H25      1.0000 0.71612  0.14362  0.79172  Biso   1.000  H
  C28      1.0000 0.50330  0.88506  0.74922  Biso   1.000  C
  H26      1.0000 0.57156  0.98321  0.81864  Biso   1.000  H
  H27      1.0000 0.43713  0.81595  0.66700  Biso   1.000  H
  H28      1.0000 0.51513  0.98471  0.55703  Biso   1.000  H
  H29      1.0000 0.53226  0.89289  0.56242  Biso   1.000  H
  H30      1.0000 0.40506  0.89599  0.56512  Biso   1.000  H
  C29      1.0000 0.45874  0.36237  0.73322  Biso   1.000  C
  C30      1.0000 0.48354  0.80847  0.79232  Biso   1.000  C
  C31      1.0000 0.42257  0.27857  0.77251  Biso   1.000  C
  C32      1.0000 0.55064  0.35613  0.68863  Biso   1.000  C
  C33      1.0000 0.51817  0.44714  0.77363  Biso   1.000  C
  C34      1.0000 0.41945  0.71785  0.75573  Biso   1.000  C
  C35      1.0000 0.39798  0.81461  0.84003  Biso   1.000  C
  C36      1.0000 0.60142  0.81487  0.82241  Biso   1.000  C
  C37      1.0000 0.44665  0.28276  0.83552  Biso   1.000  C
  C38      1.0000 0.36292  0.19435  0.74210  Biso   1.000  C
  H31      1.0000 0.51291  0.30367  0.65970  Biso   1.000  H
  H32      1.0000 0.61579  0.34811  0.71360  Biso   1.000  H
  C39      1.0000 0.59879  0.43732  0.65142  Biso   1.000  C
  C40      1.0000 0.56346  0.52873  0.73652  Biso   1.000  C
  H33      1.0000 0.58447  0.44258  0.79990  Biso   1.000  H
  H34      1.0000 0.46164  0.45378  0.80153  Biso   1.000  H
  H35      1.0000 0.47050  0.71059  0.72471  Biso   1.000  H
  H36      1.0000 0.34754  0.71857  0.73271  Biso   1.000  H
  C41      1.0000 0.38623  0.63959  0.79599  Biso   1.000  C
  C42      1.0000 0.36364  0.73625  0.88332  Biso   1.000  C
  H37      1.0000 0.32636  0.81587  0.81720  Biso   1.000  H
  H38      1.0000 0.43535  0.87046  0.86570  Biso   1.000  H
  C43      1.0000 0.64975  0.86438  0.87793  Biso   1.000  C
  C44      1.0000 0.67065  0.77606  0.79623  Biso   1.000  C
  C45      1.0000 0.41406  0.20807  0.87072  Biso   1.000  C
  H39      1.0000 0.48761  0.33882  0.85621  Biso   1.000  H
  H40      1.0000 0.34607  0.18982  0.69830  Biso   1.000  H
  C46      1.0000 0.32856  0.11774  0.77530  Biso   1.000  C
  H41      1.0000 0.66064  0.43192  0.62683  Biso   1.000  H
  H42      1.0000 0.53549  0.44032  0.62190  Biso   1.000  H
  C47      1.0000 0.64996  0.52217  0.69202  Biso   1.000  C
  H43      1.0000 0.49691  0.53657  0.71262  Biso   1.000  H
  H44      1.0000 0.60235  0.58126  0.76540  Biso   1.000  H
  H45      1.0000 0.34382  0.58477  0.76991  Biso   1.000  H
  H46      1.0000 0.45770  0.63515  0.81673  Biso   1.000  H
  C48      1.0000 0.30773  0.64990  0.84552  Biso   1.000  C
  H47      1.0000 0.30815  0.74229  0.91211  Biso   1.000  H
  H48      1.0000 0.43413  0.73701  0.90843  Biso   1.000  H
  H49      1.0000 0.60437  0.89057  0.89834  Biso   1.000  H
  C49      1.0000 0.75936  0.87727  0.90481  Biso   1.000  C
  C50      1.0000 0.78103  0.78429  0.82073  Biso   1.000  C
  H50      1.0000 0.63993  0.74114  0.75861  Biso   1.000  H
  C51      1.0000 0.35026  0.12553  0.83980  Biso   1.000  C
  C52      1.0000 0.43691  0.21661  0.94070  Biso   1.000  C
  C53      1.0000 0.27216  0.02880  0.73992  Biso   1.000  C
  H51      1.0000 0.72216  0.52437  0.71611  Biso   1.000  H
  H52      1.0000 0.67102  0.57337  0.66533  Biso   1.000  H
  H53      1.0000 0.29159  0.60059  0.87370  Biso   1.000  H
  H54      1.0000 0.23212  0.64635  0.82464  Biso   1.000  H
  C54      1.0000 0.82468  0.83645  0.87551  Biso   1.000  C
  C55      1.0000 0.81365  0.93789  0.96330  Biso   1.000  C
  C56      1.0000 0.84771  0.73687  0.79223  Biso   1.000  C
  N3       1.0000 0.30053  0.04945  0.87393  Biso   1.000  N
  H55      1.0000 0.40805  0.15781  0.95744  Biso   1.000  H
  H56      1.0000 0.52131  0.24555  0.95214  Biso   1.000  H
  H57      1.0000 0.39653  0.25191  0.95791  Biso   1.000  H
  H58      1.0000 0.32027  0.99388  0.74810  Biso   1.000  H
  H59      1.0000 0.19404  0.99771  0.75354  Biso   1.000  H
  H60      1.0000 0.26551  0.03772  0.69532  Biso   1.000  H
  N4       1.0000 0.94142  0.85308  0.90132  Biso   1.000  N
  H61      1.0000 0.75714  0.96101  0.97804  Biso   1.000  H
  H62      1.0000 0.83451  0.90420  0.99590  Biso   1.000  H
  H63      1.0000 0.88408  0.98699  0.95354  Biso   1.000  H
  H64      1.0000 0.92301  0.75109  0.81664  Biso   1.000  H
  H65      1.0000 0.80290  0.67308  0.79153  Biso   1.000  H
  H66      1.0000 0.86130  0.75497  0.74963  Biso   1.000  H
  H67      1.0000 0.22387  0.02751  0.87500  Biso   1.000  H
  C57      1.0000 0.36204  0.00864  0.90471  Biso   1.000  C
  H68      1.0000 0.99716  0.89780  0.88662  Biso   1.000  H
  C58      1.0000 0.97659  0.80947  0.94470  Biso   1.000  C
  C59      1.0000 0.28455  0.93057  0.94042  Biso   1.000  C
  O3       1.0000 0.46841  0.02966  0.90713  Biso   1.000  O
  O4       1.0000 0.90792  0.74829  0.97014  Biso   1.000  O
  C60      1.0000 0.10229  0.84238  0.96172  Biso   1.000  C
  C61      1.0000 0.34028  0.90097  0.98790  Biso   1.000  C
  N5       1.0000 0.17225  0.90427  0.92731  Biso   1.000  N
  C62      1.0000 0.14809  0.80639  0.01008  Biso   1.000  C
  H69      1.0000 0.42316  0.92230  0.99553  Biso   1.000  H
  C63      1.0000 0.26520  0.83744  0.02338  Biso   1.000  C
  H70      1.0000 0.09786  0.76113  0.03329  Biso   1.000  H
  H71      1.0000 0.29706  0.81561  0.05756  Biso   1.000  H
  C64      1.0000 0.35154  0.51043  0.52290  Biso   1.000  C
  C65      1.0000 0.37785  0.60627  0.54573  Biso   1.000  C
  H72      1.0000 0.38176  0.48093  0.55503  Biso   1.000  H
  H73      1.0000 0.38952  0.51027  0.48472  Biso   1.000  H
  H74      1.0000 0.26687  0.47896  0.51471  Biso   1.000  H
  C66      1.0000 0.32864  0.65078  0.49583  Biso   1.000  C
  C67      1.0000 0.31793  0.60478  0.60502  Biso   1.000  C
  C68      1.0000 0.51172  0.65265  0.56121  Biso   1.000  C
  C69      1.0000 0.21107  0.61774  0.47719  Biso   1.000  C
  C70      1.0000 0.40067  0.72655  0.46803  Biso   1.000  C
  H75      1.0000 0.33430  0.66539  0.62041  Biso   1.000  H
  H76      1.0000 0.34746  0.57432  0.63673  Biso   1.000  H
  H77      1.0000 0.23321  0.57334  0.59632  Biso   1.000  H
  H78      1.0000 0.53061  0.71399  0.57581  Biso   1.000  H
  H79      1.0000 0.55162  0.65176  0.52383  Biso   1.000  H
  H80      1.0000 0.53779  0.62153  0.59372  Biso   1.000  H
  C71      1.0000 0.16221  0.65466  0.43231  Biso   1.000  C
  H81      1.0000 0.16142  0.56723  0.49630  Biso   1.000  H
  H82      1.0000 0.48185  0.75207  0.48142  Biso   1.000  H
  C72      1.0000 0.35534  0.76504  0.42129  Biso   1.000  C
  C73      1.0000 0.03439  0.61913  0.41390  Biso   1.000  C
  C74      1.0000 0.23544  0.72856  0.40339  Biso   1.000  C
  C75      1.0000 0.43631  0.84596  0.39279  Biso   1.000  C
  O5       1.0000 0.97199  0.53935  0.41971  Biso   1.000  O
  N6       1.0000 0.98927  0.67486  0.38963  Biso   1.000  N
  H83      1.0000 0.20328  0.75393  0.37149  Biso   1.000  H
  O6       1.0000 0.53992  0.86519  0.39511  Biso   1.000  O
  N7       1.0000 0.38109  0.89614  0.36480  Biso   1.000  N
  H84      1.0000 0.03713  0.73045  0.38981  Biso   1.000  H
  C76      1.0000 0.87254  0.65482  0.36321  Biso   1.000  C
  H85      1.0000 0.30654  0.88119  0.37033  Biso   1.000  H
  C77      1.0000 0.43226  0.97135  0.32699  Biso   1.000  C
  C78      1.0000 0.83619  0.60967  0.30430  Biso   1.000  C
  C79      1.0000 0.80020  0.68937  0.39232  Biso   1.000  C
  C80      1.0000 0.41333  0.95507  0.26273  Biso   1.000  C
  C81      1.0000 0.49045  0.05703  0.35489  Biso   1.000  C
  C82      1.0000 0.72772  0.60455  0.27640  Biso   1.000  C
  C83      1.0000 0.90892  0.56865  0.27240  Biso   1.000  C
  C84      1.0000 0.69574  0.68132  0.36228  Biso   1.000  C
  C85      1.0000 0.84037  0.73598  0.45580  Biso   1.000  C
  C86      1.0000 0.35663  0.86246  0.23292  Biso   1.000  C
  C87      1.0000 0.44372  0.02689  0.22529  Biso   1.000  C
  C88      1.0000 0.52193  0.12592  0.31532  Biso   1.000  C
  C89      1.0000 0.51137  0.07218  0.42339  Biso   1.000  C
  C90      1.0000 0.65506  0.64007  0.30360  Biso   1.000  C
  H86      1.0000 0.70210  0.57513  0.23650  Biso   1.000  H
  H87      1.0000 0.98104  0.57873  0.29872  Biso   1.000  H
  H88      1.0000 0.92826  0.59553  0.23250  Biso   1.000  H
  H89      1.0000 0.86463  0.50515  0.26510  Biso   1.000  H
  H90      1.0000 0.64799  0.70533  0.38270  Biso   1.000  H
  H91      1.0000 0.91688  0.73499  0.46979  Biso   1.000  H
  H92      1.0000 0.78359  0.70603  0.48533  Biso   1.000  H
  H93      1.0000 0.84643  0.79737  0.45343  Biso   1.000  H
  H94      1.0000 0.33881  0.81955  0.26542  Biso   1.000  H
  H95      1.0000 0.41023  0.85134  0.20581  Biso   1.000  H
  H96      1.0000 0.28402  0.85647  0.20832  Biso   1.000  H
  C91      1.0000 0.49684  0.11502  0.25082  Biso   1.000  C
  H97      1.0000 0.42859  0.01687  0.18140  Biso   1.000  H
  H98      1.0000 0.56301  0.18413  0.33299  Biso   1.000  H
  H99      1.0000 0.48501  0.01538  0.44301  Biso   1.000  H
  H100     1.0000 0.46797  0.10719  0.43762  Biso   1.000  H
  H101     1.0000 0.59516  0.10409  0.43492  Biso   1.000  H
  C92      1.0000 0.54143  0.63778  0.26682  Biso   1.000  C
  C93      1.0000 0.51660  0.19162  0.20772  Biso   1.000  C
  C94      1.0000 0.57749  0.72152  0.22753  Biso   1.000  C
  C95      1.0000 0.44958  0.64395  0.31141  Biso   1.000  C
  C96      1.0000 0.48197  0.55295  0.22641  Biso   1.000  C
  C97      1.0000 0.58077  0.28223  0.24431  Biso   1.000  C
  C98      1.0000 0.60227  0.18554  0.16001  Biso   1.000  C
  C99      1.0000 0.39872  0.18521  0.17759  Biso   1.000  C
  C100     1.0000 0.55350  0.71733  0.16452  Biso   1.000  C
  C101     1.0000 0.63713  0.80573  0.25789  Biso   1.000  C
  H102     1.0000 0.48726  0.69648  0.34029  Biso   1.000  H
  H103     1.0000 0.38435  0.65197  0.28640  Biso   1.000  H
  C102     1.0000 0.40135  0.56276  0.34861  Biso   1.000  C
  C103     1.0000 0.43660  0.47135  0.26352  Biso   1.000  C
  H104     1.0000 0.41585  0.55757  0.20009  Biso   1.000  H
  H105     1.0000 0.53850  0.54631  0.19851  Biso   1.000  H
  H106     1.0000 0.52964  0.28950  0.27533  Biso   1.000  H
  H107     1.0000 0.65260  0.28151  0.26728  Biso   1.000  H
  C104     1.0000 0.61390  0.36049  0.20400  Biso   1.000  C
  C105     1.0000 0.63658  0.26384  0.11672  Biso   1.000  C
  H108     1.0000 0.67385  0.18422  0.18279  Biso   1.000  H
  H109     1.0000 0.56486  0.12963  0.13429  Biso   1.000  H
  C106     1.0000 0.35039  0.13570  0.12211  Biso   1.000  C
  C107     1.0000 0.32958  0.22402  0.20381  Biso   1.000  C
  C108     1.0000 0.58627  0.79208  0.12932  Biso   1.000  C
  H110     1.0000 0.51261  0.66126  0.14383  Biso   1.000  H
  H111     1.0000 0.65414  0.81027  0.30169  Biso   1.000  H
  C109     1.0000 0.67165  0.88235  0.22469  Biso   1.000  C
  H112     1.0000 0.33966  0.56816  0.37321  Biso   1.000  H
  H113     1.0000 0.46456  0.55976  0.37810  Biso   1.000  H
  C110     1.0000 0.35018  0.47791  0.30802  Biso   1.000  C
  H114     1.0000 0.50332  0.46352  0.28742  Biso   1.000  H
  H115     1.0000 0.39786  0.41882  0.23459  Biso   1.000  H
  H116     1.0000 0.65632  0.41531  0.23008  Biso   1.000  H
  H117     1.0000 0.54245  0.36494  0.18330  Biso   1.000  H
  C111     1.0000 0.69242  0.35019  0.15452  Biso   1.000  C
  H118     1.0000 0.69199  0.25779  0.08789  Biso   1.000  H
  H119     1.0000 0.56604  0.26315  0.09161  Biso   1.000  H
  H120     1.0000 0.39585  0.10952  0.10170  Biso   1.000  H
  C112     1.0000 0.24086  0.12281  0.09519  Biso   1.000  C
  C113     1.0000 0.21911  0.21579  0.17931  Biso   1.000  C
  H121     1.0000 0.36028  0.25894  0.24138  Biso   1.000  H
  C114     1.0000 0.64996  0.87455  0.16019  Biso   1.000  C
  C115     1.0000 0.56322  0.78347  0.05929  Biso   1.000  C
  C116     1.0000 0.72807  0.97129  0.26012  Biso   1.000  C
  H122     1.0000 0.27797  0.47571  0.28389  Biso   1.000  H
  H123     1.0000 0.32912  0.42672  0.33471  Biso   1.000  H
  H124     1.0000 0.70854  0.39949  0.12630  Biso   1.000  H
  H125     1.0000 0.76802  0.35373  0.17540  Biso   1.000  H
  C117     1.0000 0.17545  0.16363  0.12448  Biso   1.000  C
  C118     1.0000 0.18648  0.06220  0.03669  Biso   1.000  C
  C119     1.0000 0.15243  0.26321  0.20781  Biso   1.000  C
  N8       1.0000 0.69970  0.95064  0.12611  Biso   1.000  N
  H126     1.0000 0.59209  0.84227  0.04259  Biso   1.000  H
  H127     1.0000 0.47883  0.75454  0.04790  Biso   1.000  H
  H128     1.0000 0.60360  0.74817  0.04208  Biso   1.000  H
  H129     1.0000 0.73455  0.96237  0.30472  Biso   1.000  H
  H130     1.0000 0.67986  0.00620  0.25189  Biso   1.000  H
  H131     1.0000 0.80610  0.00237  0.24650  Biso   1.000  H
  N9       1.0000 0.05872  0.14700  0.09872  Biso   1.000  N
  H132     1.0000 0.24300  0.03908  0.02199  Biso   1.000  H
  H133     1.0000 0.16563  0.09588  0.00409  Biso   1.000  H
  H134     1.0000 0.11614  0.01310  0.04650  Biso   1.000  H
  H135     1.0000 0.07713  0.24899  0.18340  Biso   1.000  H
  H136     1.0000 0.19724  0.32701  0.20851  Biso   1.000  H
  H137     1.0000 0.13884  0.24511  0.25040  Biso   1.000  H
  H138     1.0000 0.77626  0.97257  0.12499  Biso   1.000  H
  C120     1.0000 0.63825  0.99144  0.09528  Biso   1.000  C
  H139     1.0000 0.00306  0.10229  0.11341  Biso   1.000  H
  C121     1.0000 0.02355  0.19062  0.05529  Biso   1.000  C
  O7       1.0000 0.53173  0.97043  0.09291  Biso   1.000  O
  C122     1.0000 0.71568  0.06952  0.05961  Biso   1.000  C
  C123     1.0000 0.89786  0.15770  0.03832  Biso   1.000  C
  O8       1.0000 0.09222  0.25180  0.02990  Biso   1.000  O
  C124     1.0000 0.65986  0.09911  0.01209  Biso   1.000  C
  N10      1.0000 0.82797  0.09581  0.07268  Biso   1.000  N
  C125     1.0000 0.85213  0.19370  0.98996  Biso   1.000  C
  C126     1.0000 0.73494  0.16264  0.97666  Biso   1.000  C
  H140     1.0000 0.57706  0.07778  0.00451  Biso   1.000  H
  H141     1.0000 0.90228  0.23896  0.96675  Biso   1.000  H
  H142     1.0000 0.70307  0.18447  0.94243  Biso   1.000  H
