data_image0
_cell_length_a       12.691
_cell_length_b       12.574
_cell_length_c       23.076
_cell_angle_alpha    90
_cell_angle_beta     98.67
_cell_angle_gamma    90

_symmetry_space_group_name_H-M    "P 1"
_symmetry_int_tables_number       1

loop_
  _symmetry_equiv_pos_as_xyz
  'x, y, z'

loop_
  _atom_site_label
  _atom_site_occupancy
  _atom_site_fract_x
  _atom_site_fract_y
  _atom_site_fract_z
  _atom_site_thermal_displace_type
  _atom_site_B_iso_or_equiv
  _atom_site_type_symbol
  N1       1.0000 0.45243  0.24169  0.83994  Biso   1.000  N
  C1       1.0000 0.48275  0.34142  0.87093  Biso   1.000  C
  C2       1.0000 0.35242  0.20868  0.84678  Biso   1.000  C
  C3       1.0000 0.35241  0.20868  0.84674  Biso   1.000  C
  C4       1.0000 0.51512  0.18697  0.80158  Biso   1.000  C
  C5       1.0000 0.51511  0.18697  0.80154  Biso   1.000  C
  C6       1.0000 0.49591  0.43479  0.82982  Biso   1.000  C
  C7       1.0000 0.49589  0.43479  0.82977  Biso   1.000  C
  C8       1.0000 0.38192  0.36862  0.90008  Biso   1.000  C
  N2       1.0000 0.56596  0.32917  0.92069  Biso   1.000  N
  N3       1.0000 0.45242  0.24169  0.83990  Biso   1.000  N
  N4       1.0000 0.56595  0.32917  0.92064  Biso   1.000  N
  N5       1.0000 0.31055  0.27899  0.88259  Biso   1.000  N
  N6       1.0000 0.31053  0.27899  0.88255  Biso   1.000  N
  O1       1.0000 0.30603  0.13106  0.82298  Biso   1.000  O
  H1       1.0000 0.46778  0.14291  0.77463  Biso   1.000  H
  H2       1.0000 0.54619  0.23970  0.77840  Biso   1.000  H
  N7       1.0000 0.60017  0.12057  0.83131  Biso   1.000  N
  C9       1.0000 0.38307  0.47741  0.81430  Biso   1.000  C
  H3       1.0000 0.54328  0.48839  0.84941  Biso   1.000  H
  H4       1.0000 0.52348  0.41077  0.79501  Biso   1.000  H
  C10      1.0000 0.33979  0.47503  0.87286  Biso   1.000  C
  N8       1.0000 0.42379  0.37100  0.96198  Biso   1.000  N
  N9       1.0000 0.42386  0.37100  0.96194  Biso   1.000  N
  C11      1.0000 0.53102  0.34929  0.97316  Biso   1.000  C
  C12      1.0000 0.67856  0.32170  0.91692  Biso   1.000  C
  C13      1.0000 0.67862  0.32170  0.91687  Biso   1.000  C
  C14      1.0000 0.20234  0.26976  0.89487  Biso   1.000  C
  C15      1.0000 0.70697  0.15977  0.85270  Biso   1.000  C
  C16      1.0000 0.59465  0.01137  0.82986  Biso   1.000  C
  C17      1.0000 0.70704  0.15977  0.85265  Biso   1.000  C
  C18      1.0000 0.59472  0.01137  0.82982  Biso   1.000  C
  H5       1.0000 0.34088  0.43256  0.78541  Biso   1.000  H
  H6       1.0000 0.38341  0.54931  0.79913  Biso   1.000  H
  H7       1.0000 0.38339  0.54931  0.79909  Biso   1.000  H
  H8       1.0000 0.26247  0.47670  0.86673  Biso   1.000  H
  H9       1.0000 0.36665  0.53436  0.89754  Biso   1.000  H
  H10      1.0000 0.26254  0.47670  0.86673  Biso   1.000  H
  H11      1.0000 0.36672  0.53436  0.89750  Biso   1.000  H
  C19      1.0000 0.36479  0.40297  0.00775  Biso   1.000  C
  O2       1.0000 0.58660  0.35208  0.02098  Biso   1.000  O
  O3       1.0000 0.58659  0.35208  0.02094  Biso   1.000  O
  H12      1.0000 0.71857  0.35056  0.95251  Biso   1.000  H
  N10      1.0000 0.71532  0.21457  0.90876  Biso   1.000  N
  H13      1.0000 0.69359  0.36528  0.88439  Biso   1.000  H
  H14      1.0000 0.71865  0.35056  0.95251  Biso   1.000  H
  N11      1.0000 0.71531  0.21457  0.90872  Biso   1.000  N
  N12      1.0000 0.19239  0.22491  0.95172  Biso   1.000  N
  H15      1.0000 0.16210  0.22602  0.86480  Biso   1.000  H
  H16      1.0000 0.17016  0.33999  0.89219  Biso   1.000  H
  N13      1.0000 0.19246  0.22491  0.95168  Biso   1.000  N
  C20      1.0000 0.77163  0.05480  0.86839  Biso   1.000  C
  C21      1.0000 0.76386  0.21735  0.80785  Biso   1.000  C
  C22      1.0000 0.76393  0.21735  0.80781  Biso   1.000  C
  N14      1.0000 0.69447  0.97161  0.85108  Biso   1.000  N
  O4       1.0000 0.51667  0.95849  0.81127  Biso   1.000  O
  O5       1.0000 0.51666  0.95849  0.81123  Biso   1.000  O
  H17      1.0000 0.31439  0.45793  0.99262  Biso   1.000  H
  H18      1.0000 0.31439  0.45785  0.99262  Biso   1.000  H
  N15      1.0000 0.30719  0.31692  0.03076  Biso   1.000  N
  H19      1.0000 0.41401  0.43367  0.03957  Biso   1.000  H
  N16      1.0000 0.30726  0.31692  0.03072  Biso   1.000  N
  C23      1.0000 0.77224  0.15787  0.95370  Biso   1.000  C
  C24      1.0000 0.77223  0.15787  0.95365  Biso   1.000  C
  C25      1.0000 0.16015  0.12208  0.95742  Biso   1.000  C
  C26      1.0000 0.16023  0.12208  0.95742  Biso   1.000  C
  C27      1.0000 0.20063  0.28463  0.00652  Biso   1.000  C
  C28      1.0000 0.20070  0.28463  0.00647  Biso   1.000  C
  C29      1.0000 0.20063  0.28456  0.00652  Biso   1.000  C
  C30      1.0000 0.20070  0.28456  0.00647  Biso   1.000  C
  N17      1.0000 0.80160  0.06267  0.93173  Biso   1.000  N
  N18      1.0000 0.80167  0.06267  0.93169  Biso   1.000  N
  C31      1.0000 0.86537  0.05973  0.83350  Biso   1.000  C
  C32      1.0000 0.86543  0.05973  0.83345  Biso   1.000  C
  H20      1.0000 0.73300  0.19898  0.76801  Biso   1.000  H
  C33      1.0000 0.87769  0.17608  0.82210  Biso   1.000  C
  H21      1.0000 0.76092  0.29386  0.81263  Biso   1.000  H
  C34      1.0000 0.87767  0.17608  0.82206  Biso   1.000  C
  H22      1.0000 0.76090  0.29386  0.81259  Biso   1.000  H
  C35      1.0000 0.72070  0.85939  0.84932  Biso   1.000  C
  C36      1.0000 0.34217  0.27096  0.08393  Biso   1.000  C
  C37      1.0000 0.34216  0.27096  0.08389  Biso   1.000  C
  O6       1.0000 0.79612  0.18737  0.00433  Biso   1.000  O
  O7       1.0000 0.79619  0.18737  0.00428  Biso   1.000  O
  O8       1.0000 0.13659  0.05845  0.91775  Biso   1.000  O
  N19      1.0000 0.15408  0.10315  0.01550  Biso   1.000  N
  C38      1.0000 0.17274  0.19890  0.05136  Biso   1.000  C
  C39      1.0000 0.17282  0.19890  0.05136  Biso   1.000  C
  C40      1.0000 0.11558  0.37236  0.00555  Biso   1.000  C
  C41      1.0000 0.88231  0.99753  0.96518  Biso   1.000  C
  C42      1.0000 0.88231  0.99746  0.96518  Biso   1.000  C
  H23      1.0000 0.84946  0.02052  0.79703  Biso   1.000  H
  H24      1.0000 0.92972  0.03094  0.85612  Biso   1.000  H
  H25      1.0000 0.84954  0.02052  0.79703  Biso   1.000  H
  H26      1.0000 0.92972  0.03086  0.85612  Biso   1.000  H
  H27      1.0000 0.91629  0.18729  0.78931  Biso   1.000  H
  H28      1.0000 0.91546  0.21147  0.85642  Biso   1.000  H
  H29      1.0000 0.91554  0.21147  0.85642  Biso   1.000  H
  H30      1.0000 0.66597  0.82408  0.82214  Biso   1.000  H
  N20      1.0000 0.73042  0.80507  0.90548  Biso   1.000  N
  H31      1.0000 0.66604  0.82408  0.82210  Biso   1.000  H
  H32      1.0000 0.78742  0.85208  0.83402  Biso   1.000  H
  N21      1.0000 0.73050  0.80507  0.90548  Biso   1.000  N
  N22      1.0000 0.26952  0.19493  0.09454  Biso   1.000  N
  O9       1.0000 0.42263  0.29505  0.11703  Biso   1.000  O
  N23      1.0000 0.26950  0.19493  0.09450  Biso   1.000  N
  C43      1.0000 0.11761  0.00247  0.03479  Biso   1.000  C
  C44      1.0000 0.11769  0.00247  0.03479  Biso   1.000  C
  C45      1.0000 0.07238  0.24018  0.07389  Biso   1.000  C
  C46      1.0000 0.07237  0.24018  0.07385  Biso   1.000  C
  H33      1.0000 0.09685  0.40186  0.96654  Biso   1.000  H
  H34      1.0000 0.09692  0.40186  0.96650  Biso   1.000  H
  H35      1.0000 0.14036  0.42922  0.03269  Biso   1.000  H
  C47      1.0000 0.02138  0.31398  0.02467  Biso   1.000  C
  H36      1.0000 0.14042  0.42922  0.03264  Biso   1.000  H
  C48      1.0000 0.02137  0.31398  0.02462  Biso   1.000  C
  H37      1.0000 0.93795  0.98417  0.94164  Biso   1.000  H
  N24      1.0000 0.84593  0.89685  0.98451  Biso   1.000  N
  H38      1.0000 0.93802  0.98417  0.94160  Biso   1.000  H
  N25      1.0000 0.84592  0.89685  0.98447  Biso   1.000  N
  H39      1.0000 0.91392  0.03754  0.99942  Biso   1.000  H
  H40      1.0000 0.91392  0.03746  0.99942  Biso   1.000  H
  C49      1.0000 0.65776  0.72896  0.91608  Biso   1.000  C
  C50      1.0000 0.82718  0.80110  0.94861  Biso   1.000  C
  C51      1.0000 0.65784  0.72896  0.91608  Biso   1.000  C
  C52      1.0000 0.27923  0.14061  0.15069  Biso   1.000  C
  C53      1.0000 0.27930  0.14061  0.15065  Biso   1.000  C
  H41      1.0000 0.08610  0.96246  0.00060  Biso   1.000  H
  N26      1.0000 0.19834  0.93733  0.06828  Biso   1.000  N
  H42      1.0000 0.08608  0.96246  0.00056  Biso   1.000  H
  H43      1.0000 0.06198  0.01583  0.05838  Biso   1.000  H
  H44      1.0000 0.02486  0.18220  0.07990  Biso   1.000  H
  H45      1.0000 0.09074  0.27891  0.11041  Biso   1.000  H
  H46      1.0000 0.02485  0.18220  0.07986  Biso   1.000  H
  H47      1.0000 0.09081  0.27891  0.11037  Biso   1.000  H
  H48      1.0000 0.98303  0.27350  0.99253  Biso   1.000  H
  H49      1.0000 0.98301  0.27350  0.99249  Biso   1.000  H
  H50      1.0000 0.97256  0.36361  0.03887  Biso   1.000  H
  C54      1.0000 0.83977  0.87792  0.04255  Biso   1.000  C
  C55      1.0000 0.79930  0.71537  0.99350  Biso   1.000  C
  C56      1.0000 0.92763  0.75982  0.92612  Biso   1.000  C
  N27      1.0000 0.69274  0.68308  0.96926  Biso   1.000  N
  O10      1.0000 0.57738  0.70495  0.88299  Biso   1.000  O
  O11      1.0000 0.57737  0.70495  0.88294  Biso   1.000  O
  H51      1.0000 0.33396  0.17592  0.17787  Biso   1.000  H
  H52      1.0000 0.21259  0.14792  0.16599  Biso   1.000  H
  N28      1.0000 0.30546  0.02839  0.14894  Biso   1.000  N
  H53      1.0000 0.21258  0.14792  0.16595  Biso   1.000  H
  N29      1.0000 0.30553  0.02839  0.14890  Biso   1.000  N
  C57      1.0000 0.22838  0.94520  0.13163  Biso   1.000  C
  C58      1.0000 0.22837  0.94520  0.13158  Biso   1.000  C
  C59      1.0000 0.22770  0.84206  0.04632  Biso   1.000  C
  C60      1.0000 0.22777  0.84206  0.04632  Biso   1.000  C
  N30      1.0000 0.80754  0.77509  0.04829  Biso   1.000  N
  O12      1.0000 0.86335  0.94155  0.08227  Biso   1.000  O
  O13      1.0000 0.86341  0.94155  0.08222  Biso   1.000  O
  C61      1.0000 0.88435  0.62756  0.99446  Biso   1.000  C
  C62      1.0000 0.88442  0.62756  0.99442  Biso   1.000  C
  H54      1.0000 0.97507  0.81780  0.92012  Biso   1.000  H
  H55      1.0000 0.90919  0.72109  0.88961  Biso   1.000  H
  C63      1.0000 0.97863  0.68602  0.97535  Biso   1.000  C
  H56      1.0000 0.97515  0.81780  0.92012  Biso   1.000  H
  C64      1.0000 0.63515  0.59703  0.99227  Biso   1.000  C
  C65      1.0000 0.63521  0.59703  0.99223  Biso   1.000  C
  C66      1.0000 0.40528  0.98863  0.17016  Biso   1.000  C
  O14      1.0000 0.20381  0.81263  0.99569  Biso   1.000  O
  N31      1.0000 0.28469  0.78543  0.09125  Biso   1.000  N
  C67      1.0000 0.29296  0.84023  0.14732  Biso   1.000  C
  C68      1.0000 0.13457  0.94027  0.16652  Biso   1.000  C
  C69      1.0000 0.79760  0.73016  0.10515  Biso   1.000  C
  C70      1.0000 0.79766  0.73016  0.10511  Biso   1.000  C
  H57      1.0000 0.85958  0.57078  0.96733  Biso   1.000  H
  H58      1.0000 0.85966  0.57078  0.96733  Biso   1.000  H
  H59      1.0000 0.90308  0.59814  0.03348  Biso   1.000  H
  H60      1.0000 0.90308  0.59806  0.03348  Biso   1.000  H
  H61      1.0000 0.02737  0.63639  0.96115  Biso   1.000  H
  H62      1.0000 0.02744  0.63639  0.96110  Biso   1.000  H
  H63      1.0000 0.01691  0.72650  0.00748  Biso   1.000  H
  H64      1.0000 0.58600  0.56633  0.96045  Biso   1.000  H
  H65      1.0000 0.58599  0.56633  0.96040  Biso   1.000  H
  H66      1.0000 0.68555  0.54207  0.00739  Biso   1.000  H
  N32      1.0000 0.57615  0.62900  0.03804  Biso   1.000  N
  H67      1.0000 0.68561  0.54207  0.00735  Biso   1.000  H
  N33      1.0000 0.39984  0.87943  0.16871  Biso   1.000  N
  N34      1.0000 0.39983  0.87943  0.16867  Biso   1.000  N
  O15      1.0000 0.48326  0.04151  0.18874  Biso   1.000  O
  O16      1.0000 0.48334  0.04151  0.18874  Biso   1.000  O
  C71      1.0000 0.32138  0.67830  0.08310  Biso   1.000  C
  C72      1.0000 0.23607  0.78257  0.19216  Biso   1.000  C
  H68      1.0000 0.15047  0.97948  0.20299  Biso   1.000  H
  H69      1.0000 0.15046  0.97948  0.20295  Biso   1.000  H
  H70      1.0000 0.07028  0.96906  0.14386  Biso   1.000  H
  C73      1.0000 0.12233  0.82392  0.17792  Biso   1.000  C
  H71      1.0000 0.83790  0.77398  0.13518  Biso   1.000  H
  H72      1.0000 0.82976  0.66001  0.10778  Biso   1.000  H
  N35      1.0000 0.68947  0.72101  0.11742  Biso   1.000  N
  H73      1.0000 0.82984  0.66001  0.10778  Biso   1.000  H
  C74      1.0000 0.46899  0.65063  0.02686  Biso   1.000  C
  C75      1.0000 0.46898  0.65063  0.02681  Biso   1.000  C
  C76      1.0000 0.61808  0.63138  0.09989  Biso   1.000  C
  C77      1.0000 0.48482  0.81303  0.19843  Biso   1.000  C
  C78      1.0000 0.48490  0.81303  0.19843  Biso   1.000  C
  H74      1.0000 0.30633  0.63472  0.11558  Biso   1.000  H
  N36      1.0000 0.43397  0.67083  0.07933  Biso   1.000  N
  H75      1.0000 0.30641  0.63472  0.11558  Biso   1.000  H
  N37      1.0000 0.43405  0.67083  0.07933  Biso   1.000  N
  H76      1.0000 0.28136  0.64936  0.04750  Biso   1.000  H
  H77      1.0000 0.28135  0.64936  0.04746  Biso   1.000  H
  H78      1.0000 0.26701  0.80102  0.23201  Biso   1.000  H
  H79      1.0000 0.23910  0.70614  0.18739  Biso   1.000  H
  H80      1.0000 0.26700  0.80102  0.23197  Biso   1.000  H
  H81      1.0000 0.23910  0.70606  0.18739  Biso   1.000  H
  H82      1.0000 0.08447  0.78853  0.14359  Biso   1.000  H
  H83      1.0000 0.08364  0.81271  0.21071  Biso   1.000  H
  H84      1.0000 0.08446  0.78853  0.14355  Biso   1.000  H
  H85      1.0000 0.08371  0.81271  0.21066  Biso   1.000  H
  C79      1.0000 0.64759  0.79132  0.15324  Biso   1.000  C
  O17      1.0000 0.41341  0.64792  0.97903  Biso   1.000  O
  C80      1.0000 0.51718  0.65858  0.12908  Biso   1.000  C
  C81      1.0000 0.51725  0.65858  0.12904  Biso   1.000  C
  C82      1.0000 0.66014  0.52497  0.12715  Biso   1.000  C
  C83      1.0000 0.66021  0.52497  0.12711  Biso   1.000  C
  H86      1.0000 0.45373  0.76030  0.22158  Biso   1.000  H
  H87      1.0000 0.53216  0.85709  0.22539  Biso   1.000  H
  N38      1.0000 0.54750  0.75831  0.16008  Biso   1.000  N
  H88      1.0000 0.45381  0.76030  0.22158  Biso   1.000  H
  H89      1.0000 0.53222  0.85709  0.22535  Biso   1.000  H
  N39      1.0000 0.54758  0.75831  0.16008  Biso   1.000  N
  O18      1.0000 0.69398  0.86894  0.17700  Biso   1.000  O
  C84      1.0000 0.50411  0.56521  0.17020  Biso   1.000  C
  C85      1.0000 0.61686  0.52259  0.18572  Biso   1.000  C
  C86      1.0000 0.61693  0.52259  0.18568  Biso   1.000  C
  H90      1.0000 0.73747  0.52330  0.13329  Biso   1.000  H
  H91      1.0000 0.73746  0.52330  0.13325  Biso   1.000  H
  H92      1.0000 0.63328  0.46556  0.10247  Biso   1.000  H
  H93      1.0000 0.45666  0.51161  0.15061  Biso   1.000  H
  H94      1.0000 0.47645  0.58923  0.20501  Biso   1.000  H
  H95      1.0000 0.45672  0.51161  0.15056  Biso   1.000  H
  H96      1.0000 0.47652  0.58923  0.20496  Biso   1.000  H
  H97      1.0000 0.65906  0.56744  0.21461  Biso   1.000  H
  H98      1.0000 0.61661  0.45069  0.20089  Biso   1.000  H
  H99      1.0000 0.65912  0.56744  0.21456  Biso   1.000  H
  H100     1.0000 0.65906  0.56736  0.21461  Biso   1.000  H
  H101     1.0000 0.65912  0.56736  0.21456  Biso   1.000  H
  O19      1.0000 0.48334  0.45849  0.68879  Biso   1.000  O
  C87      1.0000 0.40535  0.51137  0.67021  Biso   1.000  C
  N40      1.0000 0.30552  0.47161  0.64895  Biso   1.000  N
  N41      1.0000 0.39982  0.62057  0.66872  Biso   1.000  N
  C88      1.0000 0.27929  0.35939  0.65070  Biso   1.000  C
  C89      1.0000 0.22836  0.55480  0.63163  Biso   1.000  C
  C90      1.0000 0.29294  0.65977  0.64733  Biso   1.000  C
  C91      1.0000 0.48488  0.68697  0.69844  Biso   1.000  C
  N42      1.0000 0.26957  0.30507  0.59455  Biso   1.000  N
  H102     1.0000 0.33403  0.32408  0.67792  Biso   1.000  H
  H103     1.0000 0.21257  0.35208  0.66600  Biso   1.000  H
  N43      1.0000 0.19841  0.56267  0.56833  Biso   1.000  N
  C92      1.0000 0.13464  0.55973  0.66657  Biso   1.000  C
  N44      1.0000 0.28468  0.71457  0.59130  Biso   1.000  N
  C93      1.0000 0.23614  0.71743  0.69221  Biso   1.000  C
  H104     1.0000 0.45380  0.73970  0.72163  Biso   1.000  H
  H105     1.0000 0.53221  0.64291  0.72540  Biso   1.000  H
  N45      1.0000 0.54756  0.74169  0.66008  Biso   1.000  N
  C94      1.0000 0.17281  0.30110  0.55141  Biso   1.000  C
  C95      1.0000 0.34223  0.22896  0.58394  Biso   1.000  C
  C96      1.0000 0.11768  0.49753  0.53484  Biso   1.000  C
  C97      1.0000 0.22775  0.65787  0.54633  Biso   1.000  C
  H106     1.0000 0.15053  0.52052  0.70300  Biso   1.000  H
  H107     1.0000 0.07028  0.53086  0.64391  Biso   1.000  H
  C98      1.0000 0.12232  0.67608  0.67797  Biso   1.000  C
  C99      1.0000 0.32137  0.82170  0.58315  Biso   1.000  C
  H108     1.0000 0.26699  0.69898  0.73202  Biso   1.000  H
  H109     1.0000 0.23908  0.79386  0.68739  Biso   1.000  H
  C100     1.0000 0.51724  0.84142  0.62909  Biso   1.000  C
  C101     1.0000 0.64758  0.70868  0.65329  Biso   1.000  C
  C102     1.0000 0.20069  0.21537  0.50652  Biso   1.000  C
  N46      1.0000 0.15408  0.39685  0.51555  Biso   1.000  N
  C103     1.0000 0.07236  0.25982  0.57390  Biso   1.000  C
  N47      1.0000 0.30725  0.18308  0.53077  Biso   1.000  N
  O20      1.0000 0.42263  0.20495  0.61708  Biso   1.000  O
  H110     1.0000 0.08608  0.53746  0.50061  Biso   1.000  H
  H111     1.0000 0.06197  0.48417  0.55843  Biso   1.000  H
  O21      1.0000 0.20387  0.68737  0.49570  Biso   1.000  O
  H112     1.0000 0.08453  0.71147  0.64360  Biso   1.000  H
  H113     1.0000 0.08370  0.68729  0.71071  Biso   1.000  H
  H114     1.0000 0.30639  0.86528  0.61559  Biso   1.000  H
  H115     1.0000 0.28142  0.85056  0.54751  Biso   1.000  H
  N48      1.0000 0.43404  0.82917  0.57938  Biso   1.000  N
  C104     1.0000 0.61806  0.86862  0.59990  Biso   1.000  C
  C105     1.0000 0.50410  0.93479  0.67025  Biso   1.000  C
  N49      1.0000 0.68946  0.77899  0.61747  Biso   1.000  N
  O22      1.0000 0.69397  0.63106  0.67705  Biso   1.000  O
  N50      1.0000 0.19244  0.27509  0.45169  Biso   1.000  N
  C106     1.0000 0.11556  0.12756  0.50556  Biso   1.000  C
  C107     1.0000 0.16020  0.37792  0.45738  Biso   1.000  C
  C108     1.0000 0.02136  0.18602  0.52467  Biso   1.000  C
  H116     1.0000 0.02492  0.31780  0.57991  Biso   1.000  H
  H117     1.0000 0.09080  0.22109  0.61042  Biso   1.000  H
  C109     1.0000 0.36477  0.09703  0.50775  Biso   1.000  C
  C110     1.0000 0.46897  0.84937  0.52686  Biso   1.000  C
  N51      1.0000 0.57620  0.87100  0.53804  Biso   1.000  N
  C111     1.0000 0.66020  0.97503  0.62716  Biso   1.000  C
  C112     1.0000 0.61692  0.97741  0.68573  Biso   1.000  C
  H118     1.0000 0.45672  0.98839  0.65061  Biso   1.000  H
  H119     1.0000 0.47651  0.91077  0.70501  Biso   1.000  H
  C113     1.0000 0.79766  0.76976  0.60516  Biso   1.000  C
  C114     1.0000 0.20239  0.23024  0.39487  Biso   1.000  C
  H120     1.0000 0.14041  0.07078  0.53269  Biso   1.000  H
  H121     1.0000 0.09690  0.09806  0.46650  Biso   1.000  H
  O23      1.0000 0.13664  0.44155  0.41771  Biso   1.000  O
  H122     1.0000 0.98299  0.22650  0.49250  Biso   1.000  H
  H123     1.0000 0.97263  0.13639  0.53892  Biso   1.000  H
  N52      1.0000 0.42384  0.12900  0.46194  Biso   1.000  N
  H124     1.0000 0.31443  0.04207  0.49258  Biso   1.000  H
  H125     1.0000 0.41400  0.06633  0.53962  Biso   1.000  H
  O24      1.0000 0.41338  0.85208  0.47900  Biso   1.000  O
  C115     1.0000 0.63520  0.90297  0.49223  Biso   1.000  C
  H126     1.0000 0.73753  0.97670  0.63330  Biso   1.000  H
  H127     1.0000 0.63328  0.03436  0.60253  Biso   1.000  H
  H128     1.0000 0.65911  0.93256  0.71461  Biso   1.000  H
  H129     1.0000 0.61659  0.04931  0.70089  Biso   1.000  H
  N53      1.0000 0.80752  0.72491  0.54830  Biso   1.000  N
  H130     1.0000 0.83789  0.72602  0.63523  Biso   1.000  H
  H131     1.0000 0.82982  0.83999  0.60779  Biso   1.000  H
  N54      1.0000 0.31051  0.22101  0.38256  Biso   1.000  N
  H132     1.0000 0.16208  0.27398  0.36480  Biso   1.000  H
  H133     1.0000 0.17022  0.16001  0.39220  Biso   1.000  H
  C116     1.0000 0.38190  0.13138  0.40009  Biso   1.000  C
  C117     1.0000 0.53099  0.15063  0.47312  Biso   1.000  C
  N55      1.0000 0.69280  0.81692  0.46926  Biso   1.000  N
  H134     1.0000 0.68561  0.95793  0.50740  Biso   1.000  H
  H135     1.0000 0.58605  0.93367  0.46041  Biso   1.000  H
  C118     1.0000 0.83984  0.62208  0.54260  Biso   1.000  C
  C119     1.0000 0.79928  0.78456  0.49351  Biso   1.000  C
  C120     1.0000 0.35239  0.29132  0.34674  Biso   1.000  C
  C121     1.0000 0.48280  0.15858  0.37090  Biso   1.000  C
  C122     1.0000 0.33977  0.02497  0.37287  Biso   1.000  C
  N56      1.0000 0.56601  0.17083  0.42065  Biso   1.000  N
  O25      1.0000 0.58666  0.14792  0.52099  Biso   1.000  O
  C123     1.0000 0.65781  0.77096  0.41605  Biso   1.000  C
  N57      1.0000 0.84590  0.60315  0.48448  Biso   1.000  N
  O26      1.0000 0.86340  0.55845  0.58227  Biso   1.000  O
  C124     1.0000 0.82724  0.69890  0.44862  Biso   1.000  C
  C125     1.0000 0.88440  0.87236  0.49443  Biso   1.000  C
  O27      1.0000 0.30601  0.36894  0.32298  Biso   1.000  O
  N58      1.0000 0.45248  0.25831  0.33990  Biso   1.000  N
  C126     1.0000 0.49588  0.06521  0.32978  Biso   1.000  C
  C127     1.0000 0.38313  0.02259  0.31430  Biso   1.000  C
  H136     1.0000 0.26251  0.02330  0.36669  Biso   1.000  H
  H137     1.0000 0.36670  0.96556  0.39750  Biso   1.000  H
  C128     1.0000 0.67860  0.17830  0.41688  Biso   1.000  C
  N59      1.0000 0.73048  0.69493  0.40548  Biso   1.000  N
  O28      1.0000 0.57735  0.79505  0.38295  Biso   1.000  O
  C129     1.0000 0.88237  0.50247  0.46519  Biso   1.000  C
  C130     1.0000 0.92760  0.74018  0.42609  Biso   1.000  C
  C131     1.0000 0.97860  0.81398  0.47531  Biso   1.000  C
  H138     1.0000 0.85962  0.92922  0.46729  Biso   1.000  H
  H139     1.0000 0.90314  0.90186  0.53348  Biso   1.000  H
  C132     1.0000 0.51516  0.31303  0.30155  Biso   1.000  C
  H140     1.0000 0.54333  0.01161  0.34942  Biso   1.000  H
  H141     1.0000 0.52354  0.08923  0.29502  Biso   1.000  H
  H142     1.0000 0.34094  0.06736  0.28542  Biso   1.000  H
  H143     1.0000 0.38337  0.95069  0.29909  Biso   1.000  H
  H144     1.0000 0.69357  0.13472  0.38440  Biso   1.000  H
  H145     1.0000 0.71863  0.14944  0.45252  Biso   1.000  H
  N60      1.0000 0.71529  0.28543  0.40873  Biso   1.000  N
  C133     1.0000 0.72067  0.64061  0.34929  Biso   1.000  C
  N61      1.0000 0.80165  0.43733  0.43170  Biso   1.000  N
  H146     1.0000 0.91390  0.46246  0.49942  Biso   1.000  H
  H147     1.0000 0.93800  0.51583  0.44160  Biso   1.000  H
  H148     1.0000 0.97513  0.68220  0.42012  Biso   1.000  H
  H149     1.0000 0.90925  0.77891  0.38961  Biso   1.000  H
  H150     1.0000 0.01705  0.77350  0.50749  Biso   1.000  H
  H151     1.0000 0.02742  0.86361  0.46111  Biso   1.000  H
  H152     1.0000 0.54617  0.26030  0.27840  Biso   1.000  H
  H153     1.0000 0.46783  0.35709  0.27459  Biso   1.000  H
  N62      1.0000 0.60015  0.37943  0.33131  Biso   1.000  N
  C134     1.0000 0.70702  0.34023  0.35266  Biso   1.000  C
  C135     1.0000 0.77229  0.34213  0.45366  Biso   1.000  C
  N63      1.0000 0.69445  0.52839  0.35108  Biso   1.000  N
  H154     1.0000 0.66602  0.67592  0.32211  Biso   1.000  H
  H155     1.0000 0.78739  0.64792  0.33399  Biso   1.000  H
  C136     1.0000 0.77161  0.44520  0.36840  Biso   1.000  C
  C137     1.0000 0.59470  0.48863  0.32982  Biso   1.000  C
  C138     1.0000 0.76391  0.28257  0.30782  Biso   1.000  C
  O29      1.0000 0.79618  0.31263  0.50433  Biso   1.000  O
  C139     1.0000 0.86541  0.44027  0.33346  Biso   1.000  C
  O30      1.0000 0.51672  0.54151  0.31124  Biso   1.000  O
  C140     1.0000 0.87773  0.32392  0.32206  Biso   1.000  C
  H156     1.0000 0.73298  0.30102  0.26801  Biso   1.000  H
  H157     1.0000 0.76088  0.20606  0.31259  Biso   1.000  H
  H158     1.0000 0.84951  0.47948  0.29699  Biso   1.000  H
  H159     1.0000 0.92970  0.46906  0.35612  Biso   1.000  H
  H160     1.0000 0.91551  0.28853  0.35639  Biso   1.000  H
  H161     1.0000 0.91635  0.31271  0.28932  Biso   1.000  H
  Ne1      1.0000 0.50000  0.50000  0.50001  Biso   1.000  Ne
  He1      1.0000 0.65501  0.34782  0.61230  Biso   1.000  He
  He2      1.0000 0.36885  0.63211  0.40430  Biso   1.000  He
  Ar1      1.0000 0.50002  0.49999  0.50000  Biso   1.000  Ar
  Ne2      1.0000 0.50197  0.01348  0.99876  Biso   1.000  Ne
  He3      1.0000 0.68433  0.11228  0.11939  Biso   1.000  He
  He4      1.0000 0.34075  0.90949  0.89822  Biso   1.000  He
  Ar2      1.0000 0.49464  0.00953  0.99980  Biso   1.000  Ar
