data_image0
_cell_length_a       12.316
_cell_length_b       12.769
_cell_length_c       19.586
_cell_angle_alpha    85.88
_cell_angle_beta     73.71
_cell_angle_gamma    80.96

_symmetry_space_group_name_H-M    "P 1"
_symmetry_int_tables_number       1

loop_
  _symmetry_equiv_pos_as_xyz
  'x, y, z'

loop_
  _atom_site_label
  _atom_site_occupancy
  _atom_site_fract_x
  _atom_site_fract_y
  _atom_site_fract_z
  _atom_site_thermal_displace_type
  _atom_site_B_iso_or_equiv
  _atom_site_type_symbol
  O1       1.0000 0.60325  0.44826  0.41811  Biso   1.000  O
  C1       1.0000 0.67013  0.44087  0.46382  Biso   1.000  C
  C2       1.0000 0.59262  0.54739  0.37788  Biso   1.000  C
  C3       1.0000 0.69691  0.34284  0.49309  Biso   1.000  C
  C4       1.0000 0.71064  0.53068  0.48091  Biso   1.000  C
  H1       1.0000 0.55932  0.60638  0.41098  Biso   1.000  H
  H2       1.0000 0.66926  0.56127  0.34899  Biso   1.000  H
  C5       1.0000 0.51932  0.54239  0.33089  Biso   1.000  C
  C6       1.0000 0.65317  0.24829  0.47569  Biso   1.000  C
  C7       1.0000 0.76745  0.33037  0.54083  Biso   1.000  C
  C8       1.0000 0.77498  0.51878  0.52832  Biso   1.000  C
  H3       1.0000 0.69339  0.59815  0.45962  Biso   1.000  H
  H4       1.0000 0.55356  0.48464  0.29689  Biso   1.000  H
  H5       1.0000 0.44314  0.52710  0.35963  Biso   1.000  H
  C9       1.0000 0.50683  0.64925  0.29002  Biso   1.000  C
  O2       1.0000 0.55784  0.23123  0.52672  Biso   1.000  O
  O3       1.0000 0.71820  0.16232  0.45031  Biso   1.000  O
  H6       1.0000 0.71215  0.18507  0.47250  Biso   1.000  H
  H7       1.0000 0.63582  0.26039  0.42918  Biso   1.000  H
  C10      1.0000 0.80389  0.23036  0.56828  Biso   1.000  C
  C11      1.0000 0.80290  0.42193  0.56153  Biso   1.000  C
  H8       1.0000 0.80201  0.57952  0.53928  Biso   1.000  H
  H9       1.0000 0.58257  0.65907  0.25751  Biso   1.000  H
  H10      1.0000 0.48460  0.70689  0.32461  Biso   1.000  H
  C12      1.0000 0.42463  0.66089  0.24851  Biso   1.000  C
  C13      1.0000 0.50008  0.14752  0.52241  Biso   1.000  C
  C14      1.0000 0.87336  0.21845  0.61240  Biso   1.000  C
  H11      1.0000 0.77940  0.16938  0.55573  Biso   1.000  H
  C15      1.0000 0.86707  0.40999  0.61352  Biso   1.000  C
  H12      1.0000 0.34833  0.65531  0.28018  Biso   1.000  H
  H13      1.0000 0.42396  0.73041  0.22372  Biso   1.000  H
  H14      1.0000 0.44597  0.60485  0.21350  Biso   1.000  H
  C16      1.0000 0.41921  0.13092  0.59383  Biso   1.000  C
  H15      1.0000 0.45734  0.16456  0.48623  Biso   1.000  H
  H16      1.0000 0.55516  0.08238  0.50863  Biso   1.000  H
  O4       1.0000 0.50903  0.11284  0.47388  Biso   1.000  O
  C17      1.0000 0.90242  0.31073  0.63459  Biso   1.000  C
  H17      1.0000 0.90142  0.14997  0.62783  Biso   1.000  H
  C18      1.0000 0.89168  0.50346  0.64853  Biso   1.000  C
  C19      1.0000 0.30351  0.15716  0.60298  Biso   1.000  C
  C20      1.0000 0.46071  0.09392  0.65300  Biso   1.000  C
  O5       1.0000 0.97110  0.28791  0.68137  Biso   1.000  O
  H18      1.0000 0.89093  0.56912  0.61751  Biso   1.000  H
  C21      1.0000 0.80521  0.52111  0.72181  Biso   1.000  C
  C22      1.0000 0.00964  0.46903  0.66152  Biso   1.000  C
  O6       1.0000 0.26223  0.19464  0.54567  Biso   1.000  O
  C23      1.0000 0.22640  0.14887  0.67110  Biso   1.000  C
  C24      1.0000 0.57660  0.05175  0.64523  Biso   1.000  C
  C25      1.0000 0.38325  0.09261  0.72282  Biso   1.000  C
  C26      1.0000 0.00380  0.37344  0.70952  Biso   1.000  C
  C27      1.0000 0.82738  0.46206  0.77923  Biso   1.000  C
  C28      1.0000 0.70230  0.59424  0.73251  Biso   1.000  C
  H19      1.0000 0.03134  0.52706  0.68360  Biso   1.000  H
  H20      1.0000 0.06791  0.45279  0.61581  Biso   1.000  H
  C29      1.0000 0.19422  0.12702  0.52699  Biso   1.000  C
  C30      1.0000 0.26563  0.12165  0.72798  Biso   1.000  C
  H21      1.0000 0.14645  0.16275  0.67652  Biso   1.000  H
  H22      1.0000 0.62924  0.05122  0.59931  Biso   1.000  H
  C31      1.0000 0.61384  0.01260  0.70090  Biso   1.000  C
  C32      1.0000 0.42504  0.05813  0.78242  Biso   1.000  C
  O7       1.0000 0.92681  0.39412  0.77699  Biso   1.000  O
  H23      1.0000 0.08159  0.35007  0.71622  Biso   1.000  H
  C33      1.0000 0.74767  0.46743  0.84692  Biso   1.000  C
  C34      1.0000 0.67498  0.66375  0.67881  Biso   1.000  C
  C35      1.0000 0.62020  0.59942  0.80089  Biso   1.000  C
  C36      1.0000 0.15320  0.17289  0.46622  Biso   1.000  C
  H24      1.0000 0.24003  0.05666  0.51459  Biso   1.000  H
  H25      1.0000 0.12806  0.11713  0.56823  Biso   1.000  H
  H26      1.0000 0.21246  0.12171  0.77380  Biso   1.000  H
  C37      1.0000 0.53744  0.01473  0.77018  Biso   1.000  C
  H27      1.0000 0.69175  0.98316  0.69409  Biso   1.000  H
  C38      1.0000 0.35185  0.06360  0.86060  Biso   1.000  C
  C39      1.0000 0.64713  0.53402  0.85650  Biso   1.000  C
  H28      1.0000 0.76397  0.42490  0.88561  Biso   1.000  H
  H29      1.0000 0.72877  0.66328  0.63321  Biso   1.000  H
  C40      1.0000 0.57498  0.73206  0.68892  Biso   1.000  C
  C41      1.0000 0.51462  0.66832  0.81020  Biso   1.000  C
  C42      1.0000 0.08588  0.10615  0.44020  Biso   1.000  C
  H30      1.0000 0.10543  0.24199  0.48000  Biso   1.000  H
  H31      1.0000 0.22006  0.18668  0.42652  Biso   1.000  H
  O8       1.0000 0.58732  0.97059  0.82212  Biso   1.000  O
  H32      1.0000 0.26940  0.06322  0.86374  Biso   1.000  H
  C43      1.0000 0.36717  0.16401  0.89279  Biso   1.000  C
  C44      1.0000 0.39662  0.96849  0.90109  Biso   1.000  C
  H33      1.0000 0.59353  0.53631  0.90210  Biso   1.000  H
  H34      1.0000 0.56148  0.77991  0.65183  Biso   1.000  H
  C45      1.0000 0.49231  0.73051  0.75523  Biso   1.000  C
  C46      1.0000 0.42277  0.66343  0.87864  Biso   1.000  C
  C47      1.0000 0.03724  0.15899  0.38139  Biso   1.000  C
  H35      1.0000 0.13540  0.03927  0.42258  Biso   1.000  H
  H36      1.0000 0.02217  0.08757  0.48059  Biso   1.000  H
  C48      1.0000 0.51982  0.97363  0.89423  Biso   1.000  C
  C49      1.0000 0.46057  0.15721  0.91961  Biso   1.000  C
  C50      1.0000 0.29189  0.26224  0.89699  Biso   1.000  C
  H37      1.0000 0.38881  0.90196  0.88119  Biso   1.000  H
  H38      1.0000 0.35258  0.97008  0.95191  Biso   1.000  H
  O9       1.0000 0.38774  0.79304  0.76694  Biso   1.000  O
  O10      1.0000 0.36215  0.58265  0.87603  Biso   1.000  O
  O11      1.0000 0.42117  0.68982  0.93520  Biso   1.000  O
  H39      1.0000 0.37101  0.73171  0.88582  Biso   1.000  H
  H40      1.0000 0.45731  0.65032  0.91903  Biso   1.000  H
  H41      1.0000 0.09718  0.18991  0.34531  Biso   1.000  H
  H42      1.0000 0.00859  0.10625  0.35968  Biso   1.000  H
  H43      1.0000 0.97433  0.21506  0.40130  Biso   1.000  H
  O12      1.0000 0.53623  0.06663  0.92360  Biso   1.000  O
  H44      1.0000 0.54982  0.91071  0.92041  Biso   1.000  H
  C51      1.0000 0.48831  0.24718  0.94579  Biso   1.000  C
  C52      1.0000 0.32239  0.35323  0.92153  Biso   1.000  C
  C53      1.0000 0.18682  0.27384  0.88002  Biso   1.000  C
  C54      1.0000 0.34630  0.82671  0.70611  Biso   1.000  C
  C55      1.0000 0.29056  0.55052  0.93813  Biso   1.000  C
  H45      1.0000 0.55257  0.24034  0.96442  Biso   1.000  H
  C56      1.0000 0.42392  0.34272  0.94441  Biso   1.000  C
  C57      1.0000 0.25173  0.45149  0.92318  Biso   1.000  C
  C58      1.0000 0.11568  0.36725  0.88561  Biso   1.000  C
  H46      1.0000 0.16478  0.21395  0.86411  Biso   1.000  H
  H47      1.0000 0.38323  0.88774  0.68131  Biso   1.000  H
  H48      1.0000 0.36477  0.76823  0.67243  Biso   1.000  H
  C59      1.0000 0.22004  0.85821  0.73102  Biso   1.000  C
  H49      1.0000 0.33121  0.53636  0.97559  Biso   1.000  H
  H50      1.0000 0.22416  0.60619  0.95452  Biso   1.000  H
  O13      1.0000 0.29751  0.58151  0.99113  Biso   1.000  O
  H51      1.0000 0.44630  0.40355  0.95883  Biso   1.000  H
  C60      1.0000 0.14891  0.45862  0.90700  Biso   1.000  C
  H52      1.0000 0.04418  0.37159  0.87523  Biso   1.000  H
  H53      1.0000 0.20339  0.91825  0.76353  Biso   1.000  H
  H54      1.0000 0.19130  0.88365  0.68951  Biso   1.000  H
  C61      1.0000 0.15634  0.77020  0.76891  Biso   1.000  C
  O14      1.0000 0.08332  0.55634  0.91386  Biso   1.000  O
  H55      1.0000 0.18126  0.74800  0.81233  Biso   1.000  H
  H56      1.0000 0.07357  0.79753  0.78413  Biso   1.000  H
  C62      1.0000 0.17422  0.67423  0.72383  Biso   1.000  C
  C63      1.0000 0.97441  0.57211  0.89960  Biso   1.000  C
  H57      1.0000 0.12147  0.62486  0.74852  Biso   1.000  H
  H58      1.0000 0.15955  0.69685  0.67801  Biso   1.000  H
  H59      1.0000 0.25311  0.63881  0.71590  Biso   1.000  H
  H60      1.0000 0.98293  0.55870  0.84899  Biso   1.000  H
  H61      1.0000 0.92428  0.52345  0.92983  Biso   1.000  H
  C64      1.0000 0.92412  0.68675  0.91642  Biso   1.000  C
  H62      1.0000 0.98268  0.73286  0.89391  Biso   1.000  H
  H63      1.0000 0.90407  0.69510  0.96852  Biso   1.000  H
  C65      1.0000 0.82019  0.72243  0.89119  Biso   1.000  C
  H64      1.0000 0.77349  0.77850  0.92371  Biso   1.000  H
  H65      1.0000 0.77663  0.66169  0.90019  Biso   1.000  H
  C66      1.0000 0.82131  0.76156  0.82143  Biso   1.000  C
  H66      1.0000 0.75619  0.68711  0.92089  Biso   1.000  H
  H67      1.0000 0.83542  0.70073  0.84149  Biso   1.000  H
  C67      1.0000 0.78871  0.83140  0.89449  Biso   1.000  C
  H68      1.0000 0.86067  0.70635  0.78721  Biso   1.000  H
  H69      1.0000 0.74259  0.78160  0.81840  Biso   1.000  H
  H70      1.0000 0.86140  0.82374  0.81041  Biso   1.000  H
  H71      1.0000 0.85449  0.86675  0.86954  Biso   1.000  H
  H72      1.0000 0.72671  0.85261  0.87193  Biso   1.000  H
  H73      1.0000 0.76266  0.85191  0.94430  Biso   1.000  H
  O15      1.0000 0.39666  0.55165  0.58191  Biso   1.000  O
  C68      1.0000 0.32970  0.55904  0.53620  Biso   1.000  C
  C69      1.0000 0.40723  0.45251  0.62209  Biso   1.000  C
  C70      1.0000 0.30292  0.65706  0.50693  Biso   1.000  C
  C71      1.0000 0.28927  0.46922  0.51911  Biso   1.000  C
  H74      1.0000 0.44054  0.39353  0.58899  Biso   1.000  H
  H75      1.0000 0.33067  0.43864  0.65098  Biso   1.000  H
  C72      1.0000 0.48051  0.45752  0.66913  Biso   1.000  C
  C73      1.0000 0.23246  0.66953  0.45919  Biso   1.000  C
  C74      1.0000 0.34674  0.75162  0.52433  Biso   1.000  C
  C75      1.0000 0.22485  0.48113  0.47170  Biso   1.000  C
  H76      1.0000 0.30644  0.40176  0.54040  Biso   1.000  H
  H77      1.0000 0.44627  0.51527  0.70313  Biso   1.000  H
  H78      1.0000 0.55676  0.47289  0.64039  Biso   1.000  H
  C76      1.0000 0.49300  0.35066  0.71000  Biso   1.000  C
  C77      1.0000 0.19693  0.57797  0.43849  Biso   1.000  C
  C78      1.0000 0.19596  0.76954  0.43168  Biso   1.000  C
  O16      1.0000 0.44199  0.76868  0.47330  Biso   1.000  O
  O17      1.0000 0.28163  0.83758  0.54971  Biso   1.000  O
  H79      1.0000 0.28776  0.81484  0.52752  Biso   1.000  H
  H80      1.0000 0.36404  0.73952  0.57079  Biso   1.000  H
  H81      1.0000 0.19784  0.42039  0.46068  Biso   1.000  H
  H82      1.0000 0.41734  0.34083  0.74251  Biso   1.000  H
  H83      1.0000 0.51523  0.29301  0.67541  Biso   1.000  H
  C79      1.0000 0.57520  0.33901  0.75150  Biso   1.000  C
  C80      1.0000 0.13275  0.59000  0.38650  Biso   1.000  C
  C81      1.0000 0.12655  0.78146  0.38762  Biso   1.000  C
  H84      1.0000 0.22043  0.83053  0.44429  Biso   1.000  H
  C82      1.0000 0.49983  0.85239  0.47761  Biso   1.000  C
  H85      1.0000 0.65153  0.34460  0.71979  Biso   1.000  H
  H86      1.0000 0.57594  0.26957  0.77630  Biso   1.000  H
  H87      1.0000 0.55386  0.39505  0.78652  Biso   1.000  H
  C83      1.0000 0.10815  0.49645  0.35149  Biso   1.000  C
  C84      1.0000 0.09741  0.68917  0.36543  Biso   1.000  C
  H88      1.0000 0.09849  0.84993  0.37219  Biso   1.000  H
  H89      1.0000 0.54249  0.83534  0.51379  Biso   1.000  H
  H90      1.0000 0.44475  0.91752  0.49139  Biso   1.000  H
  C85      1.0000 0.58063  0.86899  0.40619  Biso   1.000  C
  O18      1.0000 0.49083  0.88706  0.52609  Biso   1.000  O
  C86      1.0000 0.19462  0.47879  0.27821  Biso   1.000  C
  H91      1.0000 0.10898  0.43078  0.38251  Biso   1.000  H
  C87      1.0000 0.99027  0.53088  0.33850  Biso   1.000  C
  O19      1.0000 0.02873  0.71199  0.31865  Biso   1.000  O
  C88      1.0000 0.53912  0.90599  0.34702  Biso   1.000  C
  C89      1.0000 0.69635  0.84274  0.39699  Biso   1.000  C
  C90      1.0000 0.29753  0.40567  0.26751  Biso   1.000  C
  C91      1.0000 0.17244  0.53792  0.22079  Biso   1.000  C
  C92      1.0000 0.99603  0.62647  0.29050  Biso   1.000  C
  H92      1.0000 0.96858  0.47284  0.31642  Biso   1.000  H
  H93      1.0000 0.93190  0.54720  0.38421  Biso   1.000  H
  C93      1.0000 0.42324  0.94815  0.35479  Biso   1.000  C
  C94      1.0000 0.61666  0.90729  0.27720  Biso   1.000  C
  C95      1.0000 0.77341  0.85111  0.32892  Biso   1.000  C
  O20      1.0000 0.73760  0.80527  0.45435  Biso   1.000  O
  C96      1.0000 0.32485  0.33616  0.32121  Biso   1.000  C
  C97      1.0000 0.37965  0.40049  0.19908  Biso   1.000  C
  C98      1.0000 0.25216  0.53247  0.15310  Biso   1.000  C
  O21      1.0000 0.07302  0.60578  0.22302  Biso   1.000  O
  H94      1.0000 0.91823  0.64992  0.28380  Biso   1.000  H
  H95      1.0000 0.37059  0.94868  0.40071  Biso   1.000  H
  C99      1.0000 0.38607  0.98730  0.29912  Biso   1.000  C
  C100     1.0000 0.57487  0.94177  0.21760  Biso   1.000  C
  C101     1.0000 0.73422  0.87826  0.27198  Biso   1.000  C
  H96      1.0000 0.85346  0.83715  0.32349  Biso   1.000  H
  C102     1.0000 0.80562  0.87289  0.47303  Biso   1.000  C
  H97      1.0000 0.27105  0.33670  0.36681  Biso   1.000  H
  C103     1.0000 0.42485  0.26785  0.31110  Biso   1.000  C
  C104     1.0000 0.48530  0.33159  0.18982  Biso   1.000  C
  C105     1.0000 0.35278  0.46588  0.14352  Biso   1.000  C
  H98      1.0000 0.23586  0.57500  0.11441  Biso   1.000  H
  C106     1.0000 0.46249  0.98517  0.22978  Biso   1.000  C
  H99      1.0000 0.30819  0.01674  0.30588  Biso   1.000  H
  C107     1.0000 0.64806  0.93631  0.13942  Biso   1.000  C
  H100     1.0000 0.78745  0.87820  0.22622  Biso   1.000  H
  H101     1.0000 0.75980  0.94324  0.48543  Biso   1.000  H
  H102     1.0000 0.87185  0.88278  0.43179  Biso   1.000  H
  C108     1.0000 0.84662  0.82709  0.53380  Biso   1.000  C
  H103     1.0000 0.43835  0.21999  0.34819  Biso   1.000  H
  C109     1.0000 0.50761  0.26939  0.24479  Biso   1.000  C
  C110     1.0000 0.57706  0.33648  0.12138  Biso   1.000  C
  H104     1.0000 0.40638  0.46359  0.09792  Biso   1.000  H
  O22      1.0000 0.41260  0.02931  0.17790  Biso   1.000  O
  C111     1.0000 0.63268  0.83590  0.10718  Biso   1.000  C
  H105     1.0000 0.73043  0.93668  0.13628  Biso   1.000  H
  C112     1.0000 0.60321  0.03141  0.09893  Biso   1.000  C
  H106     1.0000 0.89439  0.75799  0.52002  Biso   1.000  H
  H107     1.0000 0.77985  0.81323  0.57350  Biso   1.000  H
  C113     1.0000 0.91403  0.89376  0.55982  Biso   1.000  C
  O23      1.0000 0.61219  0.20686  0.23303  Biso   1.000  O
  O24      1.0000 0.57866  0.31009  0.06482  Biso   1.000  O
  O25      1.0000 0.63768  0.41725  0.12399  Biso   1.000  O
  H108     1.0000 0.62890  0.26820  0.11420  Biso   1.000  H
  H109     1.0000 0.54260  0.34958  0.08099  Biso   1.000  H
  C114     1.0000 0.48009  0.02627  0.10579  Biso   1.000  C
  C115     1.0000 0.70794  0.73767  0.10302  Biso   1.000  C
  C116     1.0000 0.53926  0.84269  0.08041  Biso   1.000  C
  H110     1.0000 0.61103  0.09803  0.11878  Biso   1.000  H
  H111     1.0000 0.64725  0.02983  0.04811  Biso   1.000  H
  H112     1.0000 0.86453  0.96063  0.57738  Biso   1.000  H
  H113     1.0000 0.97777  0.91234  0.51938  Biso   1.000  H
  C117     1.0000 0.96259  0.84091  0.61863  Biso   1.000  C
  C118     1.0000 0.65353  0.17320  0.29391  Biso   1.000  C
  C119     1.0000 0.70927  0.44938  0.06189  Biso   1.000  C
  O26      1.0000 0.46368  0.93327  0.07642  Biso   1.000  O
  H114     1.0000 0.45009  0.08919  0.07961  Biso   1.000  H
  C120     1.0000 0.67744  0.64667  0.07849  Biso   1.000  C
  C121     1.0000 0.81309  0.72606  0.12000  Biso   1.000  C
  C122     1.0000 0.51152  0.75272  0.05423  Biso   1.000  C
  H115     1.0000 0.90272  0.81008  0.65471  Biso   1.000  H
  H116     1.0000 0.99135  0.89365  0.64028  Biso   1.000  H
  H117     1.0000 0.02550  0.78485  0.59872  Biso   1.000  H
  H118     1.0000 0.61668  0.11217  0.31871  Biso   1.000  H
  H119     1.0000 0.63506  0.23168  0.32759  Biso   1.000  H
  C123     1.0000 0.77987  0.14170  0.26900  Biso   1.000  C
  H120     1.0000 0.66869  0.46363  0.02443  Biso   1.000  H
  H121     1.0000 0.77567  0.39372  0.04550  Biso   1.000  H
  C124     1.0000 0.74818  0.54841  0.07684  Biso   1.000  C
  O27      1.0000 0.70240  0.41839  0.00889  Biso   1.000  O
  C125     1.0000 0.57600  0.65719  0.05561  Biso   1.000  C
  C126     1.0000 0.88413  0.63273  0.11441  Biso   1.000  C
  H122     1.0000 0.83504  0.78603  0.13591  Biso   1.000  H
  H123     1.0000 0.44726  0.75956  0.03560  Biso   1.000  H
  H124     1.0000 0.79644  0.08166  0.23649  Biso   1.000  H
  H125     1.0000 0.80853  0.11625  0.31051  Biso   1.000  H
  C127     1.0000 0.84357  0.22971  0.23111  Biso   1.000  C
  C128     1.0000 0.85092  0.54128  0.09302  Biso   1.000  C
  H126     1.0000 0.55359  0.59644  0.04119  Biso   1.000  H
  H127     1.0000 0.95565  0.62831  0.12479  Biso   1.000  H
  H128     1.0000 0.81857  0.25191  0.18769  Biso   1.000  H
  H129     1.0000 0.92626  0.20238  0.21589  Biso   1.000  H
  C129     1.0000 0.82570  0.32567  0.27619  Biso   1.000  C
  O28      1.0000 0.91659  0.44357  0.08616  Biso   1.000  O
  H130     1.0000 0.87836  0.37505  0.25149  Biso   1.000  H
  H131     1.0000 0.84036  0.30305  0.32200  Biso   1.000  H
  H132     1.0000 0.74672  0.36109  0.28412  Biso   1.000  H
  C130     1.0000 0.02550  0.42780  0.10042  Biso   1.000  C
  H133     1.0000 0.01698  0.44121  0.15102  Biso   1.000  H
  H134     1.0000 0.07555  0.47646  0.07019  Biso   1.000  H
  C131     1.0000 0.07578  0.31323  0.08360  Biso   1.000  C
  H135     1.0000 0.01714  0.26713  0.10611  Biso   1.000  H
  H136     1.0000 0.09576  0.30480  0.03150  Biso   1.000  H
  C132     1.0000 0.17964  0.27747  0.10883  Biso   1.000  C
  H137     1.0000 0.22634  0.22140  0.07631  Biso   1.000  H
  H138     1.0000 0.22331  0.33822  0.09978  Biso   1.000  H
  C133     1.0000 0.17859  0.23843  0.17859  Biso   1.000  C
  H139     1.0000 0.24367  0.31279  0.07908  Biso   1.000  H
  H140     1.0000 0.16449  0.29917  0.15853  Biso   1.000  H
  C134     1.0000 0.21112  0.16850  0.10553  Biso   1.000  C
  H141     1.0000 0.13916  0.29355  0.21281  Biso   1.000  H
  H142     1.0000 0.25724  0.21831  0.18162  Biso   1.000  H
  H143     1.0000 0.13843  0.17617  0.18961  Biso   1.000  H
  H144     1.0000 0.14534  0.13315  0.13048  Biso   1.000  H
  H145     1.0000 0.27320  0.14730  0.12809  Biso   1.000  H
  H146     1.0000 0.23717  0.14800  0.05572  Biso   1.000  H
