data_image0
_cell_length_a       14.604
_cell_length_b       18.962
_cell_length_c       22.653
_cell_angle_alpha    96.61
_cell_angle_beta     104.97
_cell_angle_gamma    111.88

_symmetry_space_group_name_H-M    "P 1"
_symmetry_int_tables_number       1

loop_
  _symmetry_equiv_pos_as_xyz
  'x, y, z'

loop_
  _atom_site_label
  _atom_site_occupancy
  _atom_site_fract_x
  _atom_site_fract_y
  _atom_site_fract_z
  _atom_site_thermal_displace_type
  _atom_site_B_iso_or_equiv
  _atom_site_type_symbol
  C1       1.0000 0.68911  0.47980  0.48403  Biso   1.000  C
  N1       1.0000 0.65482  0.45405  0.41792  Biso   1.000  N
  N2       1.0000 0.67757  0.41524  0.50670  Biso   1.000  N
  O1       1.0000 0.72087  0.54524  0.51262  Biso   1.000  O
  C2       1.0000 0.61337  0.37052  0.39723  Biso   1.000  C
  C3       1.0000 0.64314  0.50509  0.37532  Biso   1.000  C
  C4       1.0000 0.62630  0.34312  0.45883  Biso   1.000  C
  C5       1.0000 0.62637  0.34312  0.45883  Biso   1.000  C
  C6       1.0000 0.68904  0.41722  0.57140  Biso   1.000  C
  N3       1.0000 0.67341  0.34231  0.36751  Biso   1.000  N
  H1       1.0000 0.53983  0.34831  0.37090  Biso   1.000  H
  N4       1.0000 0.72360  0.52521  0.34452  Biso   1.000  N
  N5       1.0000 0.72366  0.52521  0.34452  Biso   1.000  N
  H2       1.0000 0.64705  0.55285  0.39883  Biso   1.000  H
  H3       1.0000 0.57472  0.47922  0.34330  Biso   1.000  H
  N6       1.0000 0.69146  0.30205  0.45521  Biso   1.000  N
  H4       1.0000 0.55913  0.30913  0.46193  Biso   1.000  H
  H5       1.0000 0.62790  0.37562  0.57431  Biso   1.000  H
  H6       1.0000 0.69177  0.46653  0.59110  Biso   1.000  H
  N7       1.0000 0.78168  0.40885  0.60643  Biso   1.000  N
  C7       1.0000 0.66193  0.33961  0.30093  Biso   1.000  C
  C8       1.0000 0.71176  0.29794  0.39991  Biso   1.000  C
  C9       1.0000 0.71644  0.48142  0.28589  Biso   1.000  C
  C10      1.0000 0.80803  0.59574  0.36893  Biso   1.000  C
  C11      1.0000 0.70914  0.25210  0.49710  Biso   1.000  C
  C12      1.0000 0.78474  0.33434  0.60953  Biso   1.000  C
  C13      1.0000 0.86581  0.46790  0.64870  Biso   1.000  C
  H7       1.0000 0.59123  0.33139  0.27832  Biso   1.000  H
  N8       1.0000 0.73602  0.41230  0.29299  Biso   1.000  N
  H8       1.0000 0.67357  0.29599  0.28321  Biso   1.000  H
  H9       1.0000 0.67364  0.29599  0.28321  Biso   1.000  H
  O2       1.0000 0.75523  0.25992  0.38172  Biso   1.000  O
  C14      1.0000 0.82052  0.53849  0.27390  Biso   1.000  C
  C15      1.0000 0.61357  0.46253  0.23482  Biso   1.000  C
  N9       1.0000 0.86820  0.60242  0.32952  Biso   1.000  N
  N10      1.0000 0.86827  0.60242  0.32952  Biso   1.000  N
  O3       1.0000 0.83162  0.64360  0.41646  Biso   1.000  O
  H10      1.0000 0.72385  0.21264  0.47533  Biso   1.000  H
  H11      1.0000 0.64550  0.22542  0.50651  Biso   1.000  H
  N11      1.0000 0.79310  0.29293  0.55532  Biso   1.000  N
  H12      1.0000 0.64556  0.22542  0.50651  Biso   1.000  H
  N12      1.0000 0.79317  0.29293  0.55532  Biso   1.000  N
  H13      1.0000 0.72624  0.30075  0.62133  Biso   1.000  H
  C16      1.0000 0.89141  0.35402  0.66092  Biso   1.000  C
  C17      1.0000 0.89148  0.35402  0.66092  Biso   1.000  C
  N13      1.0000 0.93476  0.44133  0.67940  Biso   1.000  N
  O4       1.0000 0.87903  0.53664  0.66003  Biso   1.000  O
  C18      1.0000 0.82973  0.41781  0.28523  Biso   1.000  C
  N14      1.0000 0.87741  0.48941  0.27399  Biso   1.000  N
  C19      1.0000 0.79692  0.56490  0.21282  Biso   1.000  C
  H14      1.0000 0.61089  0.43319  0.19641  Biso   1.000  H
  H15      1.0000 0.60862  0.51023  0.22810  Biso   1.000  H
  H16      1.0000 0.55634  0.43209  0.24771  Biso   1.000  H
  C20      1.0000 0.95571  0.67643  0.33789  Biso   1.000  C
  C21      1.0000 0.88463  0.28503  0.56754  Biso   1.000  C
  N15      1.0000 0.94403  0.32356  0.63013  Biso   1.000  N
  N16      1.0000 0.94410  0.32356  0.63013  Biso   1.000  N
  H17      1.0000 0.88127  0.33084  0.69643  Biso   1.000  H
  C22      1.0000 0.02377  0.48894  0.73555  Biso   1.000  C
  O5       1.0000 0.86018  0.36633  0.28683  Biso   1.000  O
  C23      1.0000 0.97634  0.51112  0.26449  Biso   1.000  C
  H18      1.0000 0.76533  0.52042  0.17779  Biso   1.000  H
  H19      1.0000 0.74994  0.58931  0.21272  Biso   1.000  H
  H20      1.0000 0.86075  0.60162  0.20952  Biso   1.000  H
  H21      1.0000 0.95514  0.68729  0.29703  Biso   1.000  H
  H22      1.0000 0.94729  0.71788  0.36201  Biso   1.000  H
  N17      1.0000 0.05601  0.67650  0.36991  Biso   1.000  N
  O6       1.0000 0.91231  0.24850  0.53171  Biso   1.000  O
  C24      1.0000 0.04431  0.32362  0.66210  Biso   1.000  C
  H23      1.0000 0.02227  0.46024  0.76832  Biso   1.000  H
  H24      1.0000 0.01657  0.53612  0.75031  Biso   1.000  H
  N18      1.0000 0.12268  0.51063  0.72600  Biso   1.000  N
  H25      1.0000 0.98352  0.46389  0.24973  Biso   1.000  H
  H26      1.0000 0.97785  0.53982  0.23172  Biso   1.000  H
  N19      1.0000 0.06533  0.55872  0.32059  Biso   1.000  N
  C25      1.0000 0.10861  0.64598  0.33911  Biso   1.000  C
  C26      1.0000 0.11541  0.71503  0.43250  Biso   1.000  C
  H27      1.0000 0.04495  0.31271  0.70301  Biso   1.000  H
  H28      1.0000 0.05273  0.28212  0.63803  Biso   1.000  H
  N20      1.0000 0.13184  0.39764  0.67052  Biso   1.000  N
  C27      1.0000 0.17956  0.46152  0.72614  Biso   1.000  C
  C28      1.0000 0.17038  0.58225  0.71481  Biso   1.000  C
  C29      1.0000 0.13418  0.53209  0.35129  Biso   1.000  C
  C30      1.0000 0.13425  0.53209  0.35129  Biso   1.000  C
  H29      1.0000 0.11885  0.66922  0.30361  Biso   1.000  H
  C31      1.0000 0.21531  0.66572  0.39051  Biso   1.000  C
  N21      1.0000 0.20695  0.70713  0.44472  Biso   1.000  N
  O7       1.0000 0.08771  0.75150  0.46833  Biso   1.000  O
  C32      1.0000 0.19208  0.40432  0.63111  Biso   1.000  C
  C33      1.0000 0.28365  0.51862  0.71411  Biso   1.000  C
  C34      1.0000 0.20313  0.43516  0.78722  Biso   1.000  C
  C35      1.0000 0.20320  0.43516  0.78722  Biso   1.000  C
  N22      1.0000 0.26406  0.58775  0.70701  Biso   1.000  N
  O8       1.0000 0.13994  0.63373  0.71321  Biso   1.000  O
  N23      1.0000 0.21843  0.59121  0.39361  Biso   1.000  N
  O9       1.0000 0.12102  0.46342  0.34001  Biso   1.000  O
  H30      1.0000 0.27381  0.69931  0.37871  Biso   1.000  H
  C36      1.0000 0.29094  0.74790  0.50293  Biso   1.000  C
  N24      1.0000 0.27645  0.47485  0.65552  Biso   1.000  N
  O10      1.0000 0.16840  0.35640  0.58358  Biso   1.000  O
  C37      1.0000 0.38655  0.53753  0.76522  Biso   1.000  C
  H31      1.0000 0.23476  0.47963  0.82221  Biso   1.000  H
  H32      1.0000 0.25017  0.41075  0.78732  Biso   1.000  H
  H33      1.0000 0.13937  0.39844  0.79051  Biso   1.000  H
  C38      1.0000 0.33819  0.66045  0.69911  Biso   1.000  C
  C39      1.0000 0.31104  0.58283  0.42859  Biso   1.000  C
  H34      1.0000 0.35455  0.77464  0.49353  Biso   1.000  H
  N25      1.0000 0.30865  0.69801  0.54483  Biso   1.000  N
  H35      1.0000 0.27627  0.78742  0.52471  Biso   1.000  H
  C40      1.0000 0.35695  0.49491  0.62472  Biso   1.000  C
  H36      1.0000 0.38913  0.56681  0.80363  Biso   1.000  H
  H37      1.0000 0.44377  0.56797  0.75233  Biso   1.000  H
  H38      1.0000 0.39150  0.48983  0.77194  Biso   1.000  H
  N26      1.0000 0.32664  0.65775  0.63252  Biso   1.000  N
  H39      1.0000 0.32645  0.70401  0.71683  Biso   1.000  H
  H40      1.0000 0.40886  0.66862  0.72172  Biso   1.000  H
  H41      1.0000 0.37214  0.62444  0.42573  Biso   1.000  H
  H42      1.0000 0.30832  0.53352  0.40889  Biso   1.000  H
  N27      1.0000 0.32252  0.58481  0.49330  Biso   1.000  N
  C41      1.0000 0.37375  0.65694  0.54121  Biso   1.000  C
  C42      1.0000 0.28836  0.70212  0.60013  Biso   1.000  C
  N28      1.0000 0.34523  0.54601  0.58212  Biso   1.000  N
  H43      1.0000 0.35300  0.44721  0.60121  Biso   1.000  H
  H44      1.0000 0.35307  0.44721  0.60121  Biso   1.000  H
  H45      1.0000 0.42539  0.52084  0.65674  Biso   1.000  H
  C43      1.0000 0.38674  0.62954  0.60281  Biso   1.000  C
  C44      1.0000 0.31090  0.52020  0.51601  Biso   1.000  C
  H46      1.0000 0.44092  0.69093  0.53811  Biso   1.000  H
  O11      1.0000 0.24482  0.74014  0.61832  Biso   1.000  O
  O12      1.0000 0.24489  0.74014  0.61832  Biso   1.000  O
  H47      1.0000 0.46029  0.65175  0.62914  Biso   1.000  H
  O13      1.0000 0.27925  0.45482  0.48742  Biso   1.000  O
  C45      1.0000 0.84723  0.68694  0.62082  Biso   1.000  C
  N29      1.0000 0.74212  0.66391  0.62622  Biso   1.000  N
  C46      1.0000 0.83578  0.71682  0.55974  Biso   1.000  C
  H48      1.0000 0.86692  0.64280  0.61781  Biso   1.000  H
  N30      1.0000 0.92815  0.75560  0.66911  Biso   1.000  N
  C47      1.0000 0.67096  0.66640  0.57483  Biso   1.000  C
  C48      1.0000 0.70913  0.61933  0.67052  Biso   1.000  C
  N31      1.0000 0.72805  0.70875  0.54055  Biso   1.000  N
  H49      1.0000 0.84827  0.68603  0.52743  Biso   1.000  H
  N32      1.0000 0.91242  0.79610  0.57991  Biso   1.000  N
  C49      1.0000 0.97318  0.81694  0.64282  Biso   1.000  C
  C50      1.0000 0.98495  0.74905  0.72990  Biso   1.000  C
  O14      1.0000 0.57861  0.63954  0.56289  Biso   1.000  O
  H50      1.0000 0.73516  0.57913  0.67141  Biso   1.000  H
  H51      1.0000 0.63350  0.59360  0.65641  Biso   1.000  H
  N33      1.0000 0.74579  0.66696  0.73254  Biso   1.000  N
  C51      1.0000 0.67762  0.71361  0.47632  Biso   1.000  C
  C52      1.0000 0.94377  0.84213  0.53472  Biso   1.000  C
  O15      1.0000 0.05293  0.87413  0.66887  Biso   1.000  O
  N34      1.0000 0.93203  0.75083  0.77631  Biso   1.000  N
  H52      1.0000 0.99303  0.70042  0.72454  Biso   1.000  H
  H53      1.0000 0.05419  0.79176  0.74552  Biso   1.000  H
  C53      1.0000 0.67524  0.67905  0.75925  Biso   1.000  C
  C54      1.0000 0.84544  0.68463  0.77961  Biso   1.000  C
  H54      1.0000 0.60362  0.67991  0.46273  Biso   1.000  H
  H55      1.0000 0.70735  0.69533  0.44750  Biso   1.000  H
  N35      1.0000 0.69178  0.79233  0.47402  Biso   1.000  N
  N36      1.0000 0.87885  0.88339  0.51460  Biso   1.000  N
  H56      1.0000 0.93943  0.80733  0.49823  Biso   1.000  H
  H57      1.0000 0.01584  0.87980  0.55391  Biso   1.000  H
  C55      1.0000 0.97405  0.81122  0.82893  Biso   1.000  C
  N37      1.0000 0.72644  0.71016  0.82211  Biso   1.000  N
  O16      1.0000 0.58427  0.66343  0.73117  Biso   1.000  O
  H58      1.0000 0.86044  0.63843  0.78022  Biso   1.000  H
  C56      1.0000 0.83123  0.71454  0.84304  Biso   1.000  C
  C57      1.0000 0.62464  0.82052  0.48450  Biso   1.000  C
  C58      1.0000 0.78013  0.84961  0.46062  Biso   1.000  C
  C59      1.0000 0.91569  0.96205  0.53533  Biso   1.000  C
  N38      1.0000 0.91238  0.79413  0.86603  Biso   1.000  N
  O17      1.0000 0.05646  0.87185  0.84228  Biso   1.000  O
  C60      1.0000 0.67023  0.72102  0.86575  Biso   1.000  C
  H59      1.0000 0.83895  0.68202  0.87304  Biso   1.000  H
  N39      1.0000 0.65813  0.89641  0.47933  Biso   1.000  N
  O18      1.0000 0.54654  0.78519  0.49851  Biso   1.000  O
  C61      1.0000 0.75086  0.92273  0.45939  Biso   1.000  C
  C62      1.0000 0.79493  0.81790  0.40151  Biso   1.000  C
  N40      1.0000 0.84077  0.98634  0.50750  Biso   1.000  N
  O19      1.0000 0.00214  0.00509  0.57281  Biso   1.000  O
  C63      1.0000 0.93827  0.84181  0.92861  Biso   1.000  C
  H60      1.0000 0.69179  0.70155  0.90224  Biso   1.000  H
  H61      1.0000 0.59594  0.69002  0.84492  Biso   1.000  H
  N41      1.0000 0.68857  0.80117  0.88634  Biso   1.000  N
  C64      1.0000 0.59001  0.93588  0.47750  Biso   1.000  C
  C65      1.0000 0.73146  0.94260  0.39671  Biso   1.000  C
  H62      1.0000 0.85283  0.85733  0.39450  Biso   1.000  H
  H63      1.0000 0.80863  0.77273  0.40584  Biso   1.000  H
  H64      1.0000 0.73276  0.80372  0.36653  Biso   1.000  H
  C66      1.0000 0.85163  0.06382  0.52753  Biso   1.000  C
  H65      1.0000 0.92765  0.80815  0.95763  Biso   1.000  H
  N42      1.0000 0.87569  0.88555  0.92894  Biso   1.000  N
  H66      1.0000 0.01150  0.87796  0.94314  Biso   1.000  H
  C67      1.0000 0.61638  0.82734  0.85931  Biso   1.000  C
  C68      1.0000 0.77577  0.85891  0.94042  Biso   1.000  C
  H67      1.0000 0.59449  0.96539  0.44519  Biso   1.000  H
  H68      1.0000 0.51863  0.89699  0.46560  Biso   1.000  H
  N43      1.0000 0.61506  0.98914  0.53740  Biso   1.000  N
  H69      1.0000 0.79532  0.96110  0.38712  Biso   1.000  H
  H70      1.0000 0.68034  0.89679  0.36512  Biso   1.000  H
  H71      1.0000 0.70611  0.98258  0.39780  Biso   1.000  H
  H72      1.0000 0.92546  0.09844  0.54521  Biso   1.000  H
  H73      1.0000 0.82235  0.08042  0.49113  Biso   1.000  H
  N44      1.0000 0.80113  0.07234  0.57422  Biso   1.000  N
  C69      1.0000 0.91270  0.96347  0.92894  Biso   1.000  C
  N45      1.0000 0.65291  0.90622  0.88992  Biso   1.000  N
  O20      1.0000 0.53499  0.78974  0.81675  Biso   1.000  O
  C70      1.0000 0.78037  0.82693  0.99976  Biso   1.000  C
  C71      1.0000 0.74976  0.93365  0.94042  Biso   1.000  C
  C72      1.0000 0.55962  0.97101  0.57831  Biso   1.000  C
  C73      1.0000 0.69541  0.06573  0.55710  Biso   1.000  C
  C74      1.0000 0.85910  0.11150  0.63760  Biso   1.000  C
  N46      1.0000 0.83859  0.98996  0.92782  Biso   1.000  N
  O21      1.0000 0.00220  0.00336  0.92913  Biso   1.000  O
  C75      1.0000 0.59058  0.94975  0.86993  Biso   1.000  C
  H74      1.0000 0.79268  0.78078  0.99374  Biso   1.000  H
  H75      1.0000 0.83587  0.86570  0.03488  Biso   1.000  H
  H76      1.0000 0.71517  0.81417  0.00761  Biso   1.000  H
  C76      1.0000 0.73905  0.96536  0.00168  Biso   1.000  C
  O22      1.0000 0.48124  0.90912  0.56801  Biso   1.000  O
  N47      1.0000 0.60374  0.03212  0.62933  Biso   1.000  N
  C77      1.0000 0.68787  0.09823  0.62241  Biso   1.000  C
  H77      1.0000 0.68371  0.09722  0.52710  Biso   1.000  H
  N48      1.0000 0.78866  0.11923  0.66591  Biso   1.000  N
  O23      1.0000 0.95315  0.13593  0.66201  Biso   1.000  O
  C78      1.0000 0.85748  0.06975  0.92391  Biso   1.000  C
  H78      1.0000 0.59647  0.98492  0.90675  Biso   1.000  H
  H79      1.0000 0.51783  0.91303  0.85131  Biso   1.000  H
  N49      1.0000 0.61965  0.99435  0.82573  Biso   1.000  N
  H80      1.0000 0.80465  0.98365  0.03479  Biso   1.000  H
  H81      1.0000 0.68664  0.92460  0.01170  Biso   1.000  H
  H82      1.0000 0.71927  0.00794  0.99745  Biso   1.000  H
  C79      1.0000 0.54968  0.03705  0.67404  Biso   1.000  C
  H83      1.0000 0.67089  0.14355  0.62133  Biso   1.000  H
  C80      1.0000 0.82597  0.16663  0.73221  Biso   1.000  C
  H84      1.0000 0.83437  0.09152  0.95495  Biso   1.000  H
  H85      1.0000 0.93217  0.10004  0.93515  Biso   1.000  H
  N50      1.0000 0.80677  0.07934  0.86283  Biso   1.000  N
  C81      1.0000 0.56256  0.97250  0.76381  Biso   1.000  C
  C82      1.0000 0.70182  0.07321  0.84482  Biso   1.000  C
  H86      1.0000 0.47982  0.99502  0.65862  Biso   1.000  H
  H87      1.0000 0.54346  0.08633  0.67832  Biso   1.000  H
  N51      1.0000 0.60688  0.03105  0.73555  Biso   1.000  N
  H88      1.0000 0.80013  0.20691  0.73273  Biso   1.000  H
  H89      1.0000 0.90163  0.19220  0.74711  Biso   1.000  H
  N52      1.0000 0.79124  0.11902  0.77410  Biso   1.000  N
  C83      1.0000 0.85818  0.11144  0.82404  Biso   1.000  C
  O24      1.0000 0.48515  0.91125  0.73635  Biso   1.000  O
  C84      1.0000 0.68625  0.09955  0.78135  Biso   1.000  C
  H90      1.0000 0.69220  0.10664  0.87684  Biso   1.000  H
  O25      1.0000 0.95196  0.13176  0.83344  Biso   1.000  O
  H91      1.0000 0.66763  0.14423  0.78294  Biso   1.000  H
  O26      1.0000 0.42141  0.36050  0.43711  Biso   1.000  O
  C85      1.0000 0.32912  0.33360  0.42521  Biso   1.000  C
  N53      1.0000 0.25793  0.33615  0.37382  Biso   1.000  N
  N54      1.0000 0.27200  0.29131  0.45949  Biso   1.000  N
  C86      1.0000 0.29092  0.38073  0.32952  Biso   1.000  C
  C87      1.0000 0.15282  0.31312  0.37922  Biso   1.000  C
  C88      1.0000 0.16434  0.28324  0.44030  Biso   1.000  C
  C89      1.0000 0.32243  0.28645  0.52372  Biso   1.000  C
  N55      1.0000 0.25432  0.33310  0.26750  Biso   1.000  N
  H92      1.0000 0.26496  0.42093  0.32863  Biso   1.000  H
  H93      1.0000 0.36652  0.40640  0.34363  Biso   1.000  H
  H94      1.0000 0.13310  0.35720  0.38223  Biso   1.000  H
  N56      1.0000 0.07194  0.24441  0.33093  Biso   1.000  N
  H95      1.0000 0.15184  0.31403  0.47261  Biso   1.000  H
  N57      1.0000 0.08760  0.20390  0.42013  Biso   1.000  N
  H96      1.0000 0.39640  0.32010  0.53731  Biso   1.000  H
  H97      1.0000 0.29277  0.30473  0.55254  Biso   1.000  H
  N58      1.0000 0.30834  0.20773  0.52602  Biso   1.000  N
  C90      1.0000 0.32480  0.32101  0.24079  Biso   1.000  C
  C91      1.0000 0.15458  0.31542  0.22039  Biso   1.000  C
  C92      1.0000 0.01507  0.25100  0.27009  Biso   1.000  C
  C93      1.0000 0.02693  0.18312  0.35722  Biso   1.000  C
  C94      1.0000 0.05635  0.15793  0.46532  Biso   1.000  C
  C95      1.0000 0.37547  0.17954  0.51554  Biso   1.000  C
  C96      1.0000 0.21992  0.15045  0.53942  Biso   1.000  C
  N59      1.0000 0.27360  0.28990  0.17793  Biso   1.000  N
  O27      1.0000 0.41585  0.33663  0.26887  Biso   1.000  O
  C97      1.0000 0.16881  0.28553  0.15700  Biso   1.000  C
  H98      1.0000 0.13960  0.36163  0.21982  Biso   1.000  H
  N60      1.0000 0.06801  0.24923  0.22373  Biso   1.000  N
  H99      1.0000 0.00699  0.29959  0.27550  Biso   1.000  H
  H100     1.0000 0.94593  0.20830  0.25452  Biso   1.000  H
  O28      1.0000 0.94712  0.12593  0.33117  Biso   1.000  O
  H101     1.0000 0.06062  0.19273  0.50181  Biso   1.000  H
  N61      1.0000 0.12122  0.11660  0.48540  Biso   1.000  N
  H102     1.0000 0.98428  0.12026  0.44613  Biso   1.000  H
  N62      1.0000 0.34192  0.10365  0.52071  Biso   1.000  N
  O29      1.0000 0.45355  0.21481  0.50152  Biso   1.000  O
  C98      1.0000 0.24923  0.07732  0.54060  Biso   1.000  C
  C99      1.0000 0.20519  0.18216  0.59853  Biso   1.000  C
  C100     1.0000 0.32979  0.27898  0.13429  Biso   1.000  C
  H103     1.0000 0.16113  0.31799  0.12700  Biso   1.000  H
  N63      1.0000 0.08774  0.20593  0.13401  Biso   1.000  N
  C101     1.0000 0.02597  0.18879  0.17111  Biso   1.000  C
  C102     1.0000 0.08442  0.03801  0.46471  Biso   1.000  C
  C103     1.0000 0.40999  0.06411  0.52250  Biso   1.000  C
  C104     1.0000 0.26866  0.05746  0.60332  Biso   1.000  C
  N64      1.0000 0.15932  0.01371  0.49250  Biso   1.000  N
  H104     1.0000 0.14722  0.14273  0.60553  Biso   1.000  H
  H105     1.0000 0.19141  0.22733  0.59420  Biso   1.000  H
  H106     1.0000 0.26736  0.19634  0.63351  Biso   1.000  H
  H107     1.0000 0.30832  0.29851  0.09780  Biso   1.000  H
  H108     1.0000 0.40411  0.31004  0.15512  Biso   1.000  H
  N65      1.0000 0.31147  0.19889  0.11370  Biso   1.000  N
  C105     1.0000 0.06182  0.15819  0.07142  Biso   1.000  C
  O30      1.0000 0.94358  0.12821  0.15775  Biso   1.000  O
  O31      1.0000 0.99795  0.99491  0.42723  Biso   1.000  O
  H109     1.0000 0.40553  0.03465  0.55480  Biso   1.000  H
  H110     1.0000 0.48146  0.10302  0.53444  Biso   1.000  H
  N66      1.0000 0.38505  0.01092  0.46264  Biso   1.000  N
  H111     1.0000 0.20470  0.03891  0.61292  Biso   1.000  H
  H112     1.0000 0.31975  0.10321  0.63492  Biso   1.000  H
  H113     1.0000 0.29397  0.01742  0.60224  Biso   1.000  H
  C106     1.0000 0.14841  0.93624  0.47251  Biso   1.000  C
  C107     1.0000 0.38371  0.17271  0.14069  Biso   1.000  C
  C108     1.0000 0.22432  0.14109  0.05962  Biso   1.000  C
  N67      1.0000 0.12443  0.11451  0.07110  Biso   1.000  N
  H114     1.0000 0.07240  0.19191  0.04241  Biso   1.000  H
  H115     1.0000 0.98862  0.12211  0.05690  Biso   1.000  H
  C109     1.0000 0.44043  0.02905  0.42173  Biso   1.000  C
  C110     1.0000 0.30463  0.93433  0.44294  Biso   1.000  C
  H116     1.0000 0.07466  0.90162  0.45483  Biso   1.000  H
  H117     1.0000 0.17776  0.91964  0.50891  Biso   1.000  H
  N68      1.0000 0.19892  0.92772  0.42582  Biso   1.000  N
  N69      1.0000 0.34710  0.09378  0.11012  Biso   1.000  N
  O32      1.0000 0.46513  0.21032  0.18329  Biso   1.000  O
  C111     1.0000 0.21971  0.17308  0.00028  Biso   1.000  C
  C112     1.0000 0.25029  0.06642  0.05962  Biso   1.000  C
  C113     1.0000 0.08741  0.03659  0.07110  Biso   1.000  C
  N70      1.0000 0.39631  0.96794  0.37071  Biso   1.000  N
  O33      1.0000 0.51888  0.09094  0.43203  Biso   1.000  O
  C114     1.0000 0.31224  0.90183  0.37762  Biso   1.000  C
  H118     1.0000 0.31634  0.90284  0.47294  Biso   1.000  H
  C115     1.0000 0.14089  0.88849  0.36239  Biso   1.000  C
  C116     1.0000 0.40954  0.05031  0.13011  Biso   1.000  C
  H119     1.0000 0.20737  0.21928  0.00630  Biso   1.000  H
  H120     1.0000 0.16424  0.13436  0.96516  Biso   1.000  H
  H121     1.0000 0.28494  0.18589  0.99243  Biso   1.000  H
  N71      1.0000 0.16153  0.01010  0.07222  Biso   1.000  N
  C117     1.0000 0.26106  0.03470  0.99835  Biso   1.000  C
  O34      1.0000 0.99789  0.99668  0.07086  Biso   1.000  O
  C118     1.0000 0.45044  0.96301  0.32600  Biso   1.000  C
  N72      1.0000 0.21145  0.88083  0.33413  Biso   1.000  N
  H122     1.0000 0.32923  0.85651  0.37871  Biso   1.000  H
  O35      1.0000 0.04697  0.86413  0.33803  Biso   1.000  O
  H123     1.0000 0.40362  0.01508  0.09329  Biso   1.000  H
  H124     1.0000 0.48222  0.08703  0.14873  Biso   1.000  H
  N73      1.0000 0.38040  0.00571  0.17431  Biso   1.000  N
  C119     1.0000 0.14261  0.93030  0.07608  Biso   1.000  C
  H125     1.0000 0.28078  0.99212  0.00259  Biso   1.000  H
  H126     1.0000 0.19544  0.01635  0.96525  Biso   1.000  H
  H127     1.0000 0.31341  0.07546  0.98834  Biso   1.000  H
  N74      1.0000 0.39323  0.96901  0.26449  Biso   1.000  N
  H128     1.0000 0.52023  0.00504  0.34142  Biso   1.000  H
  H129     1.0000 0.45665  0.91373  0.32172  Biso   1.000  H
  C120     1.0000 0.17414  0.83343  0.26783  Biso   1.000  C
  C121     1.0000 0.43750  0.02749  0.23619  Biso   1.000  C
  C122     1.0000 0.29820  0.92680  0.15522  Biso   1.000  C
  H130     1.0000 0.16572  0.90848  0.04509  Biso   1.000  H
  H131     1.0000 0.06794  0.90002  0.06489  Biso   1.000  H
  N75      1.0000 0.19335  0.92072  0.13721  Biso   1.000  N
  C123     1.0000 0.31380  0.90051  0.21869  Biso   1.000  C
  N76      1.0000 0.20879  0.88103  0.22589  Biso   1.000  N
  H132     1.0000 0.19989  0.79310  0.26731  Biso   1.000  H
  H133     1.0000 0.09839  0.80780  0.25293  Biso   1.000  H
  O36      1.0000 0.51490  0.08881  0.26369  Biso   1.000  O
  H134     1.0000 0.30791  0.89342  0.12319  Biso   1.000  H
  C124     1.0000 0.14193  0.88862  0.17600  Biso   1.000  C
  H135     1.0000 0.33242  0.85583  0.21710  Biso   1.000  H
  O37      1.0000 0.04808  0.86830  0.16659  Biso   1.000  O
