data_image0
_cell_length_a       16.284
_cell_length_b       21.681
_cell_length_c       24.254
_cell_angle_alpha    65.82
_cell_angle_beta     87.93
_cell_angle_gamma    77.17

_symmetry_space_group_name_H-M    "P 1"
_symmetry_int_tables_number       1

loop_
  _symmetry_equiv_pos_as_xyz
  'x, y, z'

loop_
  _atom_site_label
  _atom_site_occupancy
  _atom_site_fract_x
  _atom_site_fract_y
  _atom_site_fract_z
  _atom_site_thermal_displace_type
  _atom_site_B_iso_or_equiv
  _atom_site_type_symbol
  C1       1.0000 0.53906  0.53698  0.41288  Biso   1.000  C
  C2       1.0000 0.53723  0.60978  0.41089  Biso   1.000  C
  H1       1.0000 0.49936  0.51560  0.44181  Biso   1.000  H
  H2       1.0000 0.59605  0.50768  0.42542  Biso   1.000  H
  H3       1.0000 0.52274  0.54178  0.37249  Biso   1.000  H
  C3       1.0000 0.44834  0.65351  0.39382  Biso   1.000  C
  C4       1.0000 0.56395  0.60009  0.47433  Biso   1.000  C
  C5       1.0000 0.59805  0.64355  0.36185  Biso   1.000  C
  N1       1.0000 0.43122  0.72578  0.37181  Biso   1.000  N
  C6       1.0000 0.37147  0.63568  0.40011  Biso   1.000  C
  N2       1.0000 0.51260  0.63448  0.50467  Biso   1.000  N
  C7       1.0000 0.63233  0.55875  0.51377  Biso   1.000  C
  C8       1.0000 0.68164  0.63932  0.37570  Biso   1.000  C
  C9       1.0000 0.57066  0.67526  0.29954  Biso   1.000  C
  H4       1.0000 0.46973  0.75037  0.36452  Biso   1.000  H
  C10      1.0000 0.34616  0.75295  0.36307  Biso   1.000  C
  H5       1.0000 0.36246  0.59000  0.41460  Biso   1.000  H
  C11      1.0000 0.30827  0.69798  0.38100  Biso   1.000  C
  H6       1.0000 0.46425  0.66431  0.48950  Biso   1.000  H
  C12      1.0000 0.54801  0.61537  0.56222  Biso   1.000  C
  C13      1.0000 0.62262  0.56810  0.56856  Biso   1.000  C
  H7       1.0000 0.67865  0.52878  0.50571  Biso   1.000  H
  H8       1.0000 0.70204  0.61848  0.41700  Biso   1.000  H
  C14      1.0000 0.73716  0.66504  0.33029  Biso   1.000  C
  C15      1.0000 0.62508  0.70170  0.25439  Biso   1.000  C
  H9       1.0000 0.51403  0.67858  0.28831  Biso   1.000  H
  C16      1.0000 0.30885  0.83150  0.33608  Biso   1.000  C
  H10      1.0000 0.24915  0.70110  0.38059  Biso   1.000  H
  C17      1.0000 0.50241  0.64263  0.60705  Biso   1.000  C
  H11      1.0000 0.66082  0.54556  0.60333  Biso   1.000  H
  H12      1.0000 0.79424  0.66087  0.34120  Biso   1.000  H
  C18      1.0000 0.70888  0.69628  0.26988  Biso   1.000  C
  H13      1.0000 0.60496  0.72348  0.21301  Biso   1.000  H
  C19      1.0000 0.31171  0.86135  0.38263  Biso   1.000  C
  C20      1.0000 0.21571  0.84420  0.31503  Biso   1.000  C
  C21      1.0000 0.35705  0.86869  0.28020  Biso   1.000  C
  C22      1.0000 0.50612  0.71837  0.59102  Biso   1.000  C
  C23      1.0000 0.40902  0.63892  0.60669  Biso   1.000  C
  C24      1.0000 0.54522  0.59611  0.67076  Biso   1.000  C
  O1       1.0000 0.75858  0.72436  0.22247  Biso   1.000  O
  N3       1.0000 0.38696  0.86189  0.40772  Biso   1.000  N
  C25      1.0000 0.24810  0.89339  0.40713  Biso   1.000  C
  H14      1.0000 0.18426  0.82128  0.34980  Biso   1.000  H
  H15      1.0000 0.21303  0.82508  0.28500  Biso   1.000  H
  H16      1.0000 0.19073  0.89419  0.29682  Biso   1.000  H
  H17      1.0000 0.32891  0.91798  0.26069  Biso   1.000  H
  H18      1.0000 0.35723  0.84758  0.25131  Biso   1.000  H
  H19      1.0000 0.41526  0.86388  0.29320  Biso   1.000  H
  N4       1.0000 0.47190  0.77158  0.53636  Biso   1.000  N
  C26      1.0000 0.53183  0.74811  0.62548  Biso   1.000  C
  H20      1.0000 0.38026  0.67267  0.56770  Biso   1.000  H
  H21      1.0000 0.38194  0.64957  0.63951  Biso   1.000  H
  H22      1.0000 0.40542  0.59208  0.61262  Biso   1.000  H
  H23      1.0000 0.54621  0.54745  0.68013  Biso   1.000  H
  H24      1.0000 0.51341  0.60957  0.70074  Biso   1.000  H
  H25      1.0000 0.60312  0.60175  0.67194  Biso   1.000  H
  C27      1.0000 0.84743  0.70838  0.23845  Biso   1.000  C
  H26      1.0000 0.43756  0.84329  0.40043  Biso   1.000  H
  C28      1.0000 0.37096  0.89616  0.44603  Biso   1.000  C
  H27      1.0000 0.18943  0.89988  0.39929  Biso   1.000  H
  C29      1.0000 0.28512  0.91538  0.44639  Biso   1.000  C
  H28      1.0000 0.45103  0.76578  0.50630  Biso   1.000  H
  C30      1.0000 0.47494  0.83561  0.53541  Biso   1.000  C
  C31      1.0000 0.51200  0.82187  0.59093  Biso   1.000  C
  H29      1.0000 0.55802  0.72417  0.66523  Biso   1.000  H
  H30      1.0000 0.86926  0.65737  0.25811  Biso   1.000  H
  H31      1.0000 0.85725  0.72810  0.26730  Biso   1.000  H
  C32      1.0000 0.89258  0.73939  0.18095  Biso   1.000  C
  C33      1.0000 0.44195  0.90386  0.48017  Biso   1.000  C
  H32      1.0000 0.25525  0.93918  0.46889  Biso   1.000  H
  H33      1.0000 0.52265  0.85536  0.60383  Biso   1.000  H
  O2       1.0000 0.88477  0.81218  0.16695  Biso   1.000  O
  H34      1.0000 0.95277  0.71500  0.18701  Biso   1.000  H
  H35      1.0000 0.86674  0.73428  0.14712  Biso   1.000  H
  C34      1.0000 0.40620  0.96086  0.50380  Biso   1.000  C
  C35      1.0000 0.51254  0.92802  0.43706  Biso   1.000  C
  C36      1.0000 0.90926  0.84977  0.10782  Biso   1.000  C
  H36      1.0000 0.45061  0.96408  0.52812  Biso   1.000  H
  H37      1.0000 0.35884  0.94867  0.52880  Biso   1.000  H
  H38      1.0000 0.38682  0.00569  0.46930  Biso   1.000  H
  C37      1.0000 0.49151  0.97866  0.37724  Biso   1.000  C
  C38      1.0000 0.59795  0.90457  0.45644  Biso   1.000  C
  C39      1.0000 0.99255  0.85753  0.10021  Biso   1.000  C
  C40      1.0000 0.84624  0.88161  0.06086  Biso   1.000  C
  H39      1.0000 0.43383  0.99626  0.36311  Biso   1.000  H
  C41      1.0000 0.55325  0.00356  0.33825  Biso   1.000  C
  H40      1.0000 0.61395  0.87117  0.49670  Biso   1.000  H
  C42      1.0000 0.66101  0.92935  0.41763  Biso   1.000  C
  C43      1.0000 0.01234  0.89910  0.04148  Biso   1.000  C
  C44      1.0000 0.05916  0.82722  0.15305  Biso   1.000  C
  C45      1.0000 0.86957  0.92231  0.00276  Biso   1.000  C
  C46      1.0000 0.75398  0.87789  0.07155  Biso   1.000  C
  C47      1.0000 0.63831  0.97888  0.35845  Biso   1.000  C
  H41      1.0000 0.53733  0.03730  0.29800  Biso   1.000  H
  H42      1.0000 0.71875  0.91238  0.43181  Biso   1.000  H
  C48      1.0000 0.95219  0.93056  0.99362  Biso   1.000  C
  H43      1.0000 0.06823  0.90552  0.03469  Biso   1.000  H
  C49      1.0000 0.09158  0.88368  0.16129  Biso   1.000  C
  H44      1.0000 0.03438  0.80029  0.19082  Biso   1.000  H
  H45      1.0000 0.10703  0.79503  0.14558  Biso   1.000  H
  H46      1.0000 0.82848  0.94417  0.96962  Biso   1.000  H
  H47      1.0000 0.73139  0.86650  0.04039  Biso   1.000  H
  H48      1.0000 0.75055  0.84041  0.11171  Biso   1.000  H
  C50      1.0000 0.70057  0.94602  0.06892  Biso   1.000  C
  O3       1.0000 0.69485  0.00594  0.31620  Biso   1.000  O
  H49      1.0000 0.96719  0.95798  0.95440  Biso   1.000  H
  C51      1.0000 0.03987  0.92694  0.18498  Biso   1.000  C
  C52      1.0000 0.17108  0.89727  0.14295  Biso   1.000  C
  C53      1.0000 0.71483  0.97079  0.11280  Biso   1.000  C
  C54      1.0000 0.63828  0.98748  0.02291  Biso   1.000  C
  C55      1.0000 0.78221  0.98731  0.33681  Biso   1.000  C
  O4       1.0000 0.96399  0.90948  0.20399  Biso   1.000  O
  C56      1.0000 0.06517  0.98343  0.18846  Biso   1.000  C
  H50      1.0000 0.20737  0.86838  0.12720  Biso   1.000  H
  C57      1.0000 0.19766  0.95159  0.14712  Biso   1.000  C
  O5       1.0000 0.77185  0.93381  0.16143  Biso   1.000  O
  C58      1.0000 0.67011  0.03612  0.10800  Biso   1.000  C
  H51      1.0000 0.62783  0.97176  0.99312  Biso   1.000  H
  C59      1.0000 0.59075  0.05110  0.01902  Biso   1.000  C
  H52      1.0000 0.80564  0.93726  0.34763  Biso   1.000  H
  H53      1.0000 0.78802  0.99636  0.37321  Biso   1.000  H
  C60      1.0000 0.82924  0.03040  0.28627  Biso   1.000  C
  H54      1.0000 0.93402  0.94018  0.21341  Biso   1.000  H
  C61      1.0000 0.14444  0.99471  0.16890  Biso   1.000  C
  C62      1.0000 0.00555  0.03218  0.21033  Biso   1.000  C
  H55      1.0000 0.25197  0.95930  0.13521  Biso   1.000  H
  H56      1.0000 0.79502  0.89542  0.16089  Biso   1.000  H
  C63      1.0000 0.60773  0.07511  0.06122  Biso   1.000  C
  C64      1.0000 0.69456  0.06340  0.15296  Biso   1.000  C
  H57      1.0000 0.54721  0.07754  0.98791  Biso   1.000  H
  O6       1.0000 0.83909  0.00462  0.23922  Biso   1.000  O
  H58      1.0000 0.79766  0.07947  0.26911  Biso   1.000  H
  H59      1.0000 0.88544  0.02807  0.30230  Biso   1.000  H
  H60      1.0000 0.16214  0.03278  0.17062  Biso   1.000  H
  C65      1.0000 0.92773  0.07183  0.16736  Biso   1.000  C
  H61      1.0000 0.98803  0.00511  0.25100  Biso   1.000  H
  H62      1.0000 0.03552  0.06558  0.21382  Biso   1.000  H
  H63      1.0000 0.57637  0.11902  0.05819  Biso   1.000  H
  H64      1.0000 0.65041  0.10411  0.15070  Biso   1.000  H
  H65      1.0000 0.69863  0.02688  0.19471  Biso   1.000  H
  C66      1.0000 0.77893  0.08396  0.13838  Biso   1.000  C
  C67      1.0000 0.84784  0.05555  0.18140  Biso   1.000  C
  C68      1.0000 0.93562  0.12193  0.10949  Biso   1.000  C
  C69      1.0000 0.79186  0.13119  0.08028  Biso   1.000  C
  H66      1.0000 0.98761  0.13582  0.09971  Biso   1.000  H
  C70      1.0000 0.86867  0.15118  0.06652  Biso   1.000  C
  H67      1.0000 0.74745  0.15008  0.04972  Biso   1.000  H
  H68      1.0000 0.87484  0.18499  0.02740  Biso   1.000  H
  C71      1.0000 0.46087  0.46295  0.58717  Biso   1.000  C
  C72      1.0000 0.46262  0.39020  0.58916  Biso   1.000  C
  H69      1.0000 0.50055  0.48438  0.55823  Biso   1.000  H
  H70      1.0000 0.40386  0.49229  0.57463  Biso   1.000  H
  H71      1.0000 0.47712  0.45817  0.62751  Biso   1.000  H
  C73      1.0000 0.43596  0.39990  0.52568  Biso   1.000  C
  C74      1.0000 0.55153  0.34641  0.60623  Biso   1.000  C
  C75      1.0000 0.40186  0.35643  0.63820  Biso   1.000  C
  N5       1.0000 0.48725  0.36549  0.49538  Biso   1.000  N
  C76      1.0000 0.36752  0.44125  0.48624  Biso   1.000  C
  N6       1.0000 0.56870  0.27414  0.62824  Biso   1.000  N
  C77      1.0000 0.62845  0.36426  0.59989  Biso   1.000  C
  C78      1.0000 0.31822  0.36063  0.62430  Biso   1.000  C
  C79      1.0000 0.42927  0.32469  0.70046  Biso   1.000  C
  C80      1.0000 0.45184  0.38460  0.43783  Biso   1.000  C
  H72      1.0000 0.53566  0.33569  0.51051  Biso   1.000  H
  C81      1.0000 0.37722  0.43189  0.43144  Biso   1.000  C
  H73      1.0000 0.32127  0.47116  0.49430  Biso   1.000  H
  C82      1.0000 0.65376  0.24700  0.63693  Biso   1.000  C
  H74      1.0000 0.53014  0.24955  0.63553  Biso   1.000  H
  C83      1.0000 0.69165  0.30197  0.61900  Biso   1.000  C
  H75      1.0000 0.63745  0.41000  0.58540  Biso   1.000  H
  H76      1.0000 0.29782  0.38147  0.58300  Biso   1.000  H
  C84      1.0000 0.26277  0.33491  0.66972  Biso   1.000  C
  C85      1.0000 0.37484  0.29822  0.74565  Biso   1.000  C
  H77      1.0000 0.48583  0.32137  0.71169  Biso   1.000  H
  C86      1.0000 0.49745  0.35730  0.39300  Biso   1.000  C
  H78      1.0000 0.33904  0.45436  0.39671  Biso   1.000  H
  C87      1.0000 0.69106  0.16849  0.66392  Biso   1.000  C
  H79      1.0000 0.75076  0.29889  0.61941  Biso   1.000  H
  H80      1.0000 0.20562  0.33907  0.65880  Biso   1.000  H
  C88      1.0000 0.29105  0.30365  0.73017  Biso   1.000  C
  H81      1.0000 0.39496  0.27646  0.78700  Biso   1.000  H
  C89      1.0000 0.49373  0.28160  0.40903  Biso   1.000  C
  C90      1.0000 0.59085  0.36101  0.39336  Biso   1.000  C
  C91      1.0000 0.45464  0.40382  0.32929  Biso   1.000  C
  C92      1.0000 0.68814  0.13864  0.61737  Biso   1.000  C
  C93      1.0000 0.78414  0.15577  0.68502  Biso   1.000  C
  C94      1.0000 0.64286  0.13128  0.71984  Biso   1.000  C
  O7       1.0000 0.24128  0.27559  0.77753  Biso   1.000  O
  C95      1.0000 0.46808  0.25186  0.37457  Biso   1.000  C
  N7       1.0000 0.52803  0.22836  0.46364  Biso   1.000  N
  H82      1.0000 0.61966  0.32728  0.43231  Biso   1.000  H
  H83      1.0000 0.61799  0.35038  0.36049  Biso   1.000  H
  H84      1.0000 0.59445  0.40785  0.38743  Biso   1.000  H
  H85      1.0000 0.45365  0.45248  0.31992  Biso   1.000  H
  H86      1.0000 0.48644  0.39041  0.29931  Biso   1.000  H
  H87      1.0000 0.39674  0.39818  0.32811  Biso   1.000  H
  N8       1.0000 0.61297  0.13803  0.59233  Biso   1.000  N
  C96      1.0000 0.75176  0.10655  0.59287  Biso   1.000  C
  H88      1.0000 0.81566  0.17866  0.65020  Biso   1.000  H
  H89      1.0000 0.78683  0.17486  0.71500  Biso   1.000  H
  H90      1.0000 0.80913  0.10573  0.70323  Biso   1.000  H
  H91      1.0000 0.67095  0.08196  0.73932  Biso   1.000  H
  H92      1.0000 0.64263  0.15235  0.74873  Biso   1.000  H
  H93      1.0000 0.58467  0.13607  0.70680  Biso   1.000  H
  C97      1.0000 0.15241  0.29161  0.76155  Biso   1.000  C
  C98      1.0000 0.48785  0.17811  0.40912  Biso   1.000  C
  H94      1.0000 0.44183  0.27580  0.33481  Biso   1.000  H
  C99      1.0000 0.52498  0.16434  0.46459  Biso   1.000  C
  H95      1.0000 0.54889  0.23416  0.49371  Biso   1.000  H
  C100     1.0000 0.62896  0.10379  0.55398  Biso   1.000  C
  H96      1.0000 0.56235  0.15668  0.59962  Biso   1.000  H
  C101     1.0000 0.71473  0.08461  0.55361  Biso   1.000  C
  H97      1.0000 0.81049  0.10006  0.60071  Biso   1.000  H
  H98      1.0000 0.13066  0.34257  0.74190  Biso   1.000  H
  H99      1.0000 0.14267  0.27184  0.73270  Biso   1.000  H
  C102     1.0000 0.10735  0.26056  0.81906  Biso   1.000  C
  H100     1.0000 0.47727  0.14456  0.39622  Biso   1.000  H
  C103     1.0000 0.55796  0.09611  0.51988  Biso   1.000  C
  H101     1.0000 0.74467  0.06076  0.53111  Biso   1.000  H
  O8       1.0000 0.11509  0.18777  0.83305  Biso   1.000  O
  H102     1.0000 0.04716  0.28493  0.81303  Biso   1.000  H
  H103     1.0000 0.13313  0.26565  0.85293  Biso   1.000  H
  C104     1.0000 0.59366  0.03909  0.49620  Biso   1.000  C
  C105     1.0000 0.48738  0.07193  0.56294  Biso   1.000  C
  C106     1.0000 0.09065  0.15022  0.89219  Biso   1.000  C
  H104     1.0000 0.54925  0.03584  0.47193  Biso   1.000  H
  H105     1.0000 0.64108  0.05128  0.47120  Biso   1.000  H
  H106     1.0000 0.61310  0.99426  0.53070  Biso   1.000  H
  C107     1.0000 0.50835  0.02129  0.62276  Biso   1.000  C
  C108     1.0000 0.40197  0.09537  0.54356  Biso   1.000  C
  C109     1.0000 0.00731  0.14241  0.89979  Biso   1.000  C
  C110     1.0000 0.15362  0.11831  0.93919  Biso   1.000  C
  H107     1.0000 0.56604  0.00366  0.63693  Biso   1.000  H
  C111     1.0000 0.44668  0.99638  0.66175  Biso   1.000  C
  H108     1.0000 0.38597  0.12877  0.50331  Biso   1.000  H
  C112     1.0000 0.33885  0.07060  0.58237  Biso   1.000  C
  C113     1.0000 0.98752  0.10083  0.95857  Biso   1.000  C
  C114     1.0000 0.94075  0.17278  0.84695  Biso   1.000  C
  C115     1.0000 0.13034  0.07766  0.99729  Biso   1.000  C
  C116     1.0000 0.24595  0.12204  0.92850  Biso   1.000  C
  C117     1.0000 0.36154  0.02111  0.64155  Biso   1.000  C
  H109     1.0000 0.46259  0.96265  0.70200  Biso   1.000  H
  H110     1.0000 0.28118  0.08756  0.56820  Biso   1.000  H
  H111     1.0000 0.93162  0.09447  0.96532  Biso   1.000  H
  C118     1.0000 0.04768  0.06936  0.00643  Biso   1.000  C
  C119     1.0000 0.90834  0.11626  0.83871  Biso   1.000  C
  H112     1.0000 0.96554  0.19964  0.80923  Biso   1.000  H
  H113     1.0000 0.89282  0.20496  0.85442  Biso   1.000  H
  H114     1.0000 0.17137  0.05580  0.03043  Biso   1.000  H
  C120     1.0000 0.29934  0.05398  0.93108  Biso   1.000  C
  H115     1.0000 0.26854  0.13345  0.95961  Biso   1.000  H
  H116     1.0000 0.24936  0.15956  0.88834  Biso   1.000  H
  O9       1.0000 0.30508  0.99398  0.68385  Biso   1.000  O
  H117     1.0000 0.03265  0.04201  0.04560  Biso   1.000  H
  C121     1.0000 0.96006  0.07299  0.81507  Biso   1.000  C
  C122     1.0000 0.82884  0.10266  0.85709  Biso   1.000  C
  C123     1.0000 0.28503  0.02916  0.88721  Biso   1.000  C
  C124     1.0000 0.36165  0.01244  0.97714  Biso   1.000  C
  C125     1.0000 0.21763  0.01268  0.66320  Biso   1.000  C
  C126     1.0000 0.93476  0.01650  0.81159  Biso   1.000  C
  O10      1.0000 0.03594  0.09044  0.79605  Biso   1.000  O
  C127     1.0000 0.80226  0.04835  0.85288  Biso   1.000  C
  H118     1.0000 0.79255  0.13156  0.87281  Biso   1.000  H
  C128     1.0000 0.32974  0.96386  0.89205  Biso   1.000  C
  O11      1.0000 0.22800  0.06619  0.83857  Biso   1.000  O
  C129     1.0000 0.40917  0.94882  0.98103  Biso   1.000  C
  H119     1.0000 0.37209  0.02821  0.00693  Biso   1.000  H
  H120     1.0000 0.19429  0.06266  0.65242  Biso   1.000  H
  H121     1.0000 0.21185  0.00356  0.62684  Biso   1.000  H
  C130     1.0000 0.17068  0.96955  0.71373  Biso   1.000  C
  C131     1.0000 0.99438  0.96775  0.78971  Biso   1.000  C
  C132     1.0000 0.85548  0.00524  0.83110  Biso   1.000  C
  H122     1.0000 0.06584  0.05974  0.78663  Biso   1.000  H
  H123     1.0000 0.74796  0.04062  0.86484  Biso   1.000  H
  C133     1.0000 0.30536  0.93654  0.84704  Biso   1.000  C
  C134     1.0000 0.39212  0.92486  0.93883  Biso   1.000  C
  H124     1.0000 0.20483  0.10458  0.83912  Biso   1.000  H
  H125     1.0000 0.45271  0.92239  0.01214  Biso   1.000  H
  O12      1.0000 0.16077  0.99533  0.76078  Biso   1.000  O
  H126     1.0000 0.20226  0.92045  0.73094  Biso   1.000  H
  H127     1.0000 0.11448  0.97187  0.69770  Biso   1.000  H
  C135     1.0000 0.07212  0.92816  0.83264  Biso   1.000  C
  H128     1.0000 0.96434  0.93434  0.78623  Biso   1.000  H
  H129     1.0000 0.01182  0.99489  0.74901  Biso   1.000  H
  H130     1.0000 0.83773  0.96715  0.82943  Biso   1.000  H
  C136     1.0000 0.22094  0.91596  0.86167  Biso   1.000  C
  H131     1.0000 0.34944  0.89588  0.84930  Biso   1.000  H
  H132     1.0000 0.30123  0.97304  0.80534  Biso   1.000  H
  H133     1.0000 0.42356  0.88093  0.94182  Biso   1.000  H
  C137     1.0000 0.15202  0.94440  0.81860  Biso   1.000  C
  C138     1.0000 0.06423  0.87806  0.89051  Biso   1.000  C
  C139     1.0000 0.20807  0.86876  0.91972  Biso   1.000  C
  C140     1.0000 0.13126  0.84875  0.93353  Biso   1.000  C
  H134     1.0000 0.01224  0.86415  0.90034  Biso   1.000  H
  H135     1.0000 0.25242  0.84985  0.95033  Biso   1.000  H
  H136     1.0000 0.12502  0.81496  0.97261  Biso   1.000  H
  C141     1.0000 0.73443  0.49566  0.33124  Biso   1.000  C
  C142     1.0000 0.74954  0.52253  0.27038  Biso   1.000  C
  H137     1.0000 0.67995  0.48849  0.34342  Biso   1.000  H
  C143     1.0000 0.79879  0.47895  0.37511  Biso   1.000  C
  O13      1.0000 0.68920  0.53974  0.22424  Biso   1.000  O
  C144     1.0000 0.82954  0.53263  0.25281  Biso   1.000  C
  H138     1.0000 0.78683  0.46077  0.41659  Biso   1.000  H
  C145     1.0000 0.87955  0.48816  0.35972  Biso   1.000  C
  C146     1.0000 0.60507  0.53517  0.24262  Biso   1.000  C
  C147     1.0000 0.89354  0.51574  0.29746  Biso   1.000  C
  H139     1.0000 0.84087  0.55068  0.21119  Biso   1.000  H
  C148     1.0000 0.95028  0.47572  0.40668  Biso   1.000  C
  C149     1.0000 0.54827  0.55858  0.18688  Biso   1.000  C
  H140     1.0000 0.58535  0.56509  0.26440  Biso   1.000  H
  H141     1.0000 0.60426  0.48680  0.27011  Biso   1.000  H
  H142     1.0000 0.94788  0.52318  0.28532  Biso   1.000  H
  C150     1.0000 0.93667  0.42504  0.47138  Biso   1.000  C
  C151     1.0000 0.94983  0.54691  0.40849  Biso   1.000  C
  C152     1.0000 0.03534  0.44890  0.38725  Biso   1.000  C
  O14      1.0000 0.55798  0.50290  0.16736  Biso   1.000  O
  H143     1.0000 0.48888  0.57192  0.19589  Biso   1.000  H
  H144     1.0000 0.56283  0.59962  0.15418  Biso   1.000  H
  N9       1.0000 0.99114  0.36151  0.50082  Biso   1.000  N
  C153     1.0000 0.87646  0.43120  0.51100  Biso   1.000  C
  H145     1.0000 0.99615  0.54100  0.43620  Biso   1.000  H
  H146     1.0000 0.89596  0.56389  0.42271  Biso   1.000  H
  H147     1.0000 0.95709  0.58046  0.36782  Biso   1.000  H
  N10      1.0000 0.04738  0.39487  0.36905  Biso   1.000  N
  C154     1.0000 0.11056  0.46908  0.38159  Biso   1.000  C
  C155     1.0000 0.52704  0.52723  0.10646  Biso   1.000  C
  C156     1.0000 0.96655  0.32657  0.55873  Biso   1.000  C
  H148     1.0000 0.03563  0.34518  0.48501  Biso   1.000  H
  H149     1.0000 0.83033  0.46980  0.50340  Biso   1.000  H
  C157     1.0000 0.89516  0.36923  0.56575  Biso   1.000  C
  H150     1.0000 0.00857  0.37247  0.36900  Biso   1.000  H
  C158     1.0000 0.12813  0.38094  0.35107  Biso   1.000  C
  C159     1.0000 0.16843  0.42710  0.35841  Biso   1.000  C
  H151     1.0000 0.12188  0.50460  0.39151  Biso   1.000  H
  C160     1.0000 0.44177  0.53330  0.09441  Biso   1.000  C
  C161     1.0000 0.58520  0.54328  0.06158  Biso   1.000  C
  C162     1.0000 0.01725  0.25661  0.60347  Biso   1.000  C
  H152     1.0000 0.86354  0.35948  0.60080  Biso   1.000  H
  C163     1.0000 0.15846  0.32689  0.32630  Biso   1.000  C
  H153     1.0000 0.22508  0.43026  0.34962  Biso   1.000  H
  C164     1.0000 0.38205  0.50860  0.14508  Biso   1.000  C
  C165     1.0000 0.41378  0.56172  0.03278  Biso   1.000  C
  C166     1.0000 0.67925  0.52819  0.07770  Biso   1.000  C
  C167     1.0000 0.55416  0.57109  0.00063  Biso   1.000  C
  C168     1.0000 0.01063  0.19663  0.58694  Biso   1.000  C
  C169     1.0000 0.98546  0.24195  0.66772  Biso   1.000  C
  C170     1.0000 0.11157  0.25884  0.60496  Biso   1.000  C
  C171     1.0000 0.16476  0.25297  0.37453  Biso   1.000  C
  C172     1.0000 0.24667  0.33351  0.30198  Biso   1.000  C
  C173     1.0000 0.09820  0.34087  0.27260  Biso   1.000  C
  C174     1.0000 0.35265  0.44489  0.14798  Biso   1.000  C
  H154     1.0000 0.33204  0.54700  0.13870  Biso   1.000  H
  H155     1.0000 0.41116  0.49708  0.18439  Biso   1.000  H
  H156     1.0000 0.35594  0.56751  0.02241  Biso   1.000  H
  C175     1.0000 0.46913  0.58144  0.98673  Biso   1.000  C
  C176     1.0000 0.72966  0.46173  0.07449  Biso   1.000  C
  H157     1.0000 0.70224  0.56772  0.04972  Biso   1.000  H
  H158     1.0000 0.68705  0.52482  0.11918  Biso   1.000  H
  H159     1.0000 0.59180  0.58267  0.96912  Biso   1.000  H
  N11      1.0000 0.03369  0.19526  0.53229  Biso   1.000  N
  C177     1.0000 0.99478  0.13242  0.62262  Biso   1.000  C
  H160     1.0000 0.99103  0.27937  0.67914  Biso   1.000  H
  H161     1.0000 0.92604  0.23955  0.66782  Biso   1.000  H
  H162     1.0000 0.01916  0.19766  0.69680  Biso   1.000  H
  H163     1.0000 0.13246  0.26886  0.56453  Biso   1.000  H
  H164     1.0000 0.14413  0.21389  0.63372  Biso   1.000  H
  H165     1.0000 0.11763  0.29525  0.61751  Biso   1.000  H
  N12      1.0000 0.09487  0.22799  0.40006  Biso   1.000  N
  C178     1.0000 0.23397  0.19837  0.39957  Biso   1.000  C
  H166     1.0000 0.24318  0.38051  0.27069  Biso   1.000  H
  H167     1.0000 0.26636  0.29958  0.28460  Biso   1.000  H
  H168     1.0000 0.28627  0.32458  0.33531  Biso   1.000  H
  H169     1.0000 0.04129  0.33851  0.28641  Biso   1.000  H
  H170     1.0000 0.11807  0.30591  0.25639  Biso   1.000  H
  H171     1.0000 0.09709  0.38720  0.24072  Biso   1.000  H
  C179     1.0000 0.40607  0.37855  0.17465  Biso   1.000  C
  C180     1.0000 0.27318  0.45080  0.12466  Biso   1.000  C
  H172     1.0000 0.44821  0.60215  0.94562  Biso   1.000  H
  C181     1.0000 0.71848  0.39505  0.11461  Biso   1.000  C
  C182     1.0000 0.78936  0.46438  0.03115  Biso   1.000  C
  C183     1.0000 0.03246  0.13206  0.53138  Biso   1.000  C
  H173     1.0000 0.04758  0.23005  0.50181  Biso   1.000  H
  C184     1.0000 0.00718  0.09265  0.58676  Biso   1.000  C
  H174     1.0000 0.97863  0.11736  0.66320  Biso   1.000  H
  C185     1.0000 0.11868  0.15832  0.43969  Biso   1.000  C
  H175     1.0000 0.04257  0.25279  0.39232  Biso   1.000  H
  C186     1.0000 0.20456  0.13969  0.43996  Biso   1.000  C
  H176     1.0000 0.29114  0.19986  0.39133  Biso   1.000  H
  C187     1.0000 0.38219  0.31893  0.17687  Biso   1.000  C
  O15      1.0000 0.48317  0.37546  0.19910  Biso   1.000  O
  C188     1.0000 0.24719  0.39250  0.12570  Biso   1.000  C
  H177     1.0000 0.23545  0.49510  0.10768  Biso   1.000  H
  C189     1.0000 0.76326  0.33459  0.10981  Biso   1.000  C
  O16      1.0000 0.66249  0.38530  0.15975  Biso   1.000  O
  C190     1.0000 0.83527  0.40541  0.02590  Biso   1.000  C
  H178     1.0000 0.79876  0.50829  0.00439  Biso   1.000  H
  C191     1.0000 0.05459  0.11711  0.47514  Biso   1.000  C
  H179     1.0000 0.99915  0.04689  0.59930  Biso   1.000  H
  H180     1.0000 0.23885  0.09506  0.46323  Biso   1.000  H
  C192     1.0000 0.30235  0.32719  0.15219  Biso   1.000  C
  C193     1.0000 0.44198  0.24764  0.20381  Biso   1.000  C
  H181     1.0000 0.51476  0.33601  0.20771  Biso   1.000  H
  H182     1.0000 0.19320  0.39751  0.10859  Biso   1.000  H
  C194     1.0000 0.74645  0.26443  0.15255  Biso   1.000  C
  C195     1.0000 0.82066  0.34021  0.06557  Biso   1.000  C
  H183     1.0000 0.63869  0.42388  0.15971  Biso   1.000  H
  H184     1.0000 0.87572  0.40857  0.99629  Biso   1.000  H
  C196     1.0000 0.97514  0.13286  0.43389  Biso   1.000  C
  C197     1.0000 0.09577  0.03847  0.49801  Biso   1.000  C
  H185     1.0000 0.28507  0.28759  0.15341  Biso   1.000  H
  C198     1.0000 0.51555  0.24434  0.16365  Biso   1.000  C
  H186     1.0000 0.41119  0.21169  0.20771  Biso   1.000  H
  H187     1.0000 0.46376  0.23820  0.24470  Biso   1.000  H
  C199     1.0000 0.66067  0.25510  0.13757  Biso   1.000  C
  H188     1.0000 0.74849  0.26027  0.19471  Biso   1.000  H
  H189     1.0000 0.79149  0.22680  0.15002  Biso   1.000  H
  H190     1.0000 0.85089  0.29951  0.06172  Biso   1.000  H
  C200     1.0000 0.98510  0.13744  0.37434  Biso   1.000  C
  C201     1.0000 0.89408  0.13912  0.45318  Biso   1.000  C
  H191     1.0000 0.10828  0.02657  0.46332  Biso   1.000  H
  H192     1.0000 0.05677  0.01148  0.52309  Biso   1.000  H
  H193     1.0000 0.14814  0.02770  0.52210  Biso   1.000  H
  C202     1.0000 0.59681  0.24669  0.17909  Biso   1.000  C
  C203     1.0000 0.50010  0.24616  0.10655  Biso   1.000  C
  C204     1.0000 0.64206  0.25887  0.08024  Biso   1.000  C
  C205     1.0000 0.91580  0.14882  0.33635  Biso   1.000  C
  H194     1.0000 0.04007  0.13277  0.35981  Biso   1.000  H
  C206     1.0000 0.82326  0.15143  0.41541  Biso   1.000  C
  H195     1.0000 0.88583  0.13497  0.49339  Biso   1.000  H
  O17      1.0000 0.61300  0.24595  0.23601  Biso   1.000  O
  C207     1.0000 0.56370  0.25228  0.06525  Biso   1.000  C
  H196     1.0000 0.44610  0.24320  0.09568  Biso   1.000  H
  H197     1.0000 0.68359  0.26601  0.05112  Biso   1.000  H
  C208     1.0000 0.83438  0.15671  0.35659  Biso   1.000  C
  H198     1.0000 0.92399  0.15119  0.29660  Biso   1.000  H
  H199     1.0000 0.76827  0.15618  0.42991  Biso   1.000  H
  C209     1.0000 0.62875  0.17651  0.28487  Biso   1.000  C
  H200     1.0000 0.55327  0.25192  0.02708  Biso   1.000  H
  O18      1.0000 0.76971  0.16975  0.31489  Biso   1.000  O
  C210     1.0000 0.68536  0.17247  0.33477  Biso   1.000  C
  H201     1.0000 0.65599  0.14190  0.26911  Biso   1.000  H
  H202     1.0000 0.57456  0.16556  0.30112  Biso   1.000  H
  H203     1.0000 0.66568  0.21370  0.34392  Biso   1.000  H
  H204     1.0000 0.68398  0.13047  0.37199  Biso   1.000  H
  C211     1.0000 0.26543  0.50428  0.66877  Biso   1.000  C
  C212     1.0000 0.20114  0.52098  0.62493  Biso   1.000  C
  C213     1.0000 0.25033  0.47740  0.72967  Biso   1.000  C
  H205     1.0000 0.31991  0.51144  0.65663  Biso   1.000  H
  C214     1.0000 0.12031  0.51176  0.64033  Biso   1.000  C
  H206     1.0000 0.21303  0.53918  0.58341  Biso   1.000  H
  C215     1.0000 0.17032  0.46732  0.74719  Biso   1.000  C
  O19      1.0000 0.31072  0.46018  0.77581  Biso   1.000  O
  C216     1.0000 0.04964  0.52423  0.59333  Biso   1.000  C
  C217     1.0000 0.10632  0.48421  0.70255  Biso   1.000  C
  H207     1.0000 0.15905  0.44926  0.78881  Biso   1.000  H
  C218     1.0000 0.39486  0.46477  0.75738  Biso   1.000  C
  C219     1.0000 0.06325  0.57491  0.52862  Biso   1.000  C
  C220     1.0000 0.05003  0.45304  0.59152  Biso   1.000  C
  C221     1.0000 0.96451  0.55107  0.61280  Biso   1.000  C
  H208     1.0000 0.05205  0.47675  0.71473  Biso   1.000  H
  C222     1.0000 0.45164  0.44141  0.81312  Biso   1.000  C
  H209     1.0000 0.41451  0.43486  0.73560  Biso   1.000  H
  H210     1.0000 0.39559  0.51319  0.72990  Biso   1.000  H
  C223     1.0000 0.12345  0.56878  0.48904  Biso   1.000  C
  N13      1.0000 0.00871  0.63847  0.49923  Biso   1.000  N
  H211     1.0000 0.00376  0.45899  0.56380  Biso   1.000  H
  H212     1.0000 0.10396  0.43606  0.57730  Biso   1.000  H
  H213     1.0000 0.04284  0.41947  0.63222  Biso   1.000  H
  N14      1.0000 0.95254  0.60508  0.63096  Biso   1.000  N
  C224     1.0000 0.88936  0.53087  0.61841  Biso   1.000  C
  O20      1.0000 0.44193  0.49709  0.83264  Biso   1.000  O
  H214     1.0000 0.51103  0.42807  0.80411  Biso   1.000  H
  H215     1.0000 0.43702  0.40037  0.84582  Biso   1.000  H
  H216     1.0000 0.16951  0.53020  0.49661  Biso   1.000  H
  C225     1.0000 0.10477  0.63069  0.43430  Biso   1.000  C
  C226     1.0000 0.03336  0.67342  0.44127  Biso   1.000  C
  H217     1.0000 0.96423  0.65477  0.51499  Biso   1.000  H
  H218     1.0000 0.99136  0.62748  0.63100  Biso   1.000  H
  C227     1.0000 0.87172  0.61905  0.64893  Biso   1.000  C
  C228     1.0000 0.83141  0.57289  0.64160  Biso   1.000  C
  H219     1.0000 0.87803  0.49539  0.60850  Biso   1.000  H
  C229     1.0000 0.47282  0.47269  0.89359  Biso   1.000  C
  H220     1.0000 0.13638  0.64046  0.39920  Biso   1.000  H
  C230     1.0000 0.98261  0.74333  0.39653  Biso   1.000  C
  C231     1.0000 0.84139  0.67308  0.67375  Biso   1.000  C
  H221     1.0000 0.77484  0.56967  0.65043  Biso   1.000  H
  C232     1.0000 0.41472  0.45666  0.93842  Biso   1.000  C
  C233     1.0000 0.55810  0.46662  0.90564  Biso   1.000  C
  C234     1.0000 0.01447  0.75799  0.33228  Biso   1.000  C
  C235     1.0000 0.98923  0.80331  0.41306  Biso   1.000  C
  C236     1.0000 0.88835  0.74109  0.39508  Biso   1.000  C
  C237     1.0000 0.83515  0.74702  0.62548  Biso   1.000  C
  C238     1.0000 0.75324  0.66648  0.69802  Biso   1.000  C
  C239     1.0000 0.90172  0.65907  0.72741  Biso   1.000  C
  C240     1.0000 0.32061  0.47176  0.92230  Biso   1.000  C
  C241     1.0000 0.44570  0.42886  0.99937  Biso   1.000  C
  C242     1.0000 0.58613  0.43828  0.96722  Biso   1.000  C
  C243     1.0000 0.61781  0.49134  0.85492  Biso   1.000  C
  H222     1.0000 0.00882  0.72060  0.32091  Biso   1.000  H
  H223     1.0000 0.07382  0.76040  0.33219  Biso   1.000  H
  H224     1.0000 0.98077  0.80229  0.30321  Biso   1.000  H
  C244     1.0000 0.00514  0.86752  0.37738  Biso   1.000  C
  N15      1.0000 0.96617  0.80466  0.46776  Biso   1.000  N
  H225     1.0000 0.86746  0.73106  0.43552  Biso   1.000  H
  H226     1.0000 0.85572  0.78608  0.36633  Biso   1.000  H
  H227     1.0000 0.88223  0.70470  0.38250  Biso   1.000  H
  N16      1.0000 0.90504  0.77201  0.59994  Biso   1.000  N
  C245     1.0000 0.76590  0.80157  0.60044  Biso   1.000  C
  H228     1.0000 0.75673  0.61948  0.72931  Biso   1.000  H
  H229     1.0000 0.73350  0.70037  0.71541  Biso   1.000  H
  H230     1.0000 0.71366  0.67535  0.66474  Biso   1.000  H
  H231     1.0000 0.95862  0.66149  0.71360  Biso   1.000  H
  H232     1.0000 0.88184  0.69408  0.74362  Biso   1.000  H
  H233     1.0000 0.90283  0.61277  0.75933  Biso   1.000  H
  C246     1.0000 0.27021  0.53819  0.92556  Biso   1.000  C
  H234     1.0000 0.29762  0.43226  0.95033  Biso   1.000  H
  H235     1.0000 0.31280  0.47518  0.88082  Biso   1.000  H
  C247     1.0000 0.53080  0.41848  0.01332  Biso   1.000  C
  H236     1.0000 0.40805  0.41730  0.03093  Biso   1.000  H
  H237     1.0000 0.64391  0.43246  0.97763  Biso   1.000  H
  H238     1.0000 0.66782  0.45294  0.86130  Biso   1.000  H
  H239     1.0000 0.58870  0.50287  0.81562  Biso   1.000  H
  C248     1.0000 0.64720  0.55511  0.85202  Biso   1.000  C
  H240     1.0000 0.02123  0.88258  0.33681  Biso   1.000  H
  C249     1.0000 0.99275  0.90727  0.41329  Biso   1.000  C
  H241     1.0000 0.95234  0.76990  0.49819  Biso   1.000  H
  C250     1.0000 0.96745  0.86791  0.46867  Biso   1.000  C
  C251     1.0000 0.88125  0.84161  0.56036  Biso   1.000  C
  H242     1.0000 0.95734  0.74718  0.60773  Biso   1.000  H
  C252     1.0000 0.79529  0.86030  0.56004  Biso   1.000  C
  H243     1.0000 0.70872  0.80007  0.60872  Biso   1.000  H
  C253     1.0000 0.28145  0.60488  0.88544  Biso   1.000  C
  C254     1.0000 0.21050  0.53555  0.96889  Biso   1.000  C
  H244     1.0000 0.55166  0.39778  0.05443  Biso   1.000  H
  C255     1.0000 0.59384  0.62143  0.82540  Biso   1.000  C
  C256     1.0000 0.72674  0.54915  0.87534  Biso   1.000  C
  H245     1.0000 0.00076  0.95310  0.40070  Biso   1.000  H
  C257     1.0000 0.94532  0.88286  0.52491  Biso   1.000  C
  H246     1.0000 0.76101  0.90486  0.53682  Biso   1.000  H
  O21      1.0000 0.33736  0.61467  0.84029  Biso   1.000  O
  C258     1.0000 0.23659  0.66541  0.89019  Biso   1.000  C
  H247     1.0000 0.20110  0.49165  0.99561  Biso   1.000  H
  C259     1.0000 0.16459  0.59454  0.97410  Biso   1.000  C
  O22      1.0000 0.51675  0.62449  0.80090  Biso   1.000  O
  C260     1.0000 0.61773  0.68101  0.82313  Biso   1.000  C
  C261     1.0000 0.75273  0.60745  0.87430  Biso   1.000  C
  H248     1.0000 0.76441  0.50484  0.89232  Biso   1.000  H
  C262     1.0000 0.02470  0.86713  0.56611  Biso   1.000  C
  C263     1.0000 0.90415  0.96148  0.50199  Biso   1.000  C
  H249     1.0000 0.36124  0.57605  0.84034  Biso   1.000  H
  C264     1.0000 0.25339  0.73556  0.84745  Biso   1.000  C
  C265     1.0000 0.17919  0.65976  0.93448  Biso   1.000  C
  H250     1.0000 0.12413  0.59142  0.00372  Biso   1.000  H
  H251     1.0000 0.48509  0.66398  0.79230  Biso   1.000  H
  C266     1.0000 0.69752  0.67274  0.84786  Biso   1.000  C
  C267     1.0000 0.55788  0.75229  0.79623  Biso   1.000  C
  H252     1.0000 0.80672  0.60243  0.89142  Biso   1.000  H
  C268     1.0000 0.01483  0.86248  0.62570  Biso   1.000  C
  C269     1.0000 0.10584  0.86082  0.54682  Biso   1.000  C
  H253     1.0000 0.89165  0.97336  0.53672  Biso   1.000  H
  H254     1.0000 0.94315  0.98847  0.47691  Biso   1.000  H
  H255     1.0000 0.85171  0.97230  0.47790  Biso   1.000  H
  C270     1.0000 0.33919  0.74484  0.86244  Biso   1.000  C
  H256     1.0000 0.25144  0.73966  0.80534  Biso   1.000  H
  H257     1.0000 0.20842  0.77318  0.85003  Biso   1.000  H
  H258     1.0000 0.14902  0.70047  0.93833  Biso   1.000  H
  H259     1.0000 0.71480  0.71234  0.84663  Biso   1.000  H
  C271     1.0000 0.48431  0.75561  0.83635  Biso   1.000  C
  H260     1.0000 0.58873  0.78825  0.79230  Biso   1.000  H
  H261     1.0000 0.53609  0.76179  0.75530  Biso   1.000  H
  C272     1.0000 0.08411  0.85115  0.66369  Biso   1.000  C
  H262     1.0000 0.95985  0.86718  0.64019  Biso   1.000  H
  C273     1.0000 0.17660  0.84849  0.58463  Biso   1.000  C
  H263     1.0000 0.11403  0.86497  0.50661  Biso   1.000  H
  C274     1.0000 0.40312  0.75323  0.82096  Biso   1.000  C
  C275     1.0000 0.35779  0.74110  0.91981  Biso   1.000  C
  C276     1.0000 0.49983  0.75379  0.89345  Biso   1.000  C
  H264     1.0000 0.07593  0.84875  0.70341  Biso   1.000  H
  C277     1.0000 0.16552  0.84328  0.64341  Biso   1.000  C
  H265     1.0000 0.23165  0.84377  0.57010  Biso   1.000  H
  O23      1.0000 0.38686  0.75397  0.76404  Biso   1.000  O
  H266     1.0000 0.31632  0.73397  0.94892  Biso   1.000  H
  C278     1.0000 0.43623  0.74766  0.93475  Biso   1.000  C
  H267     1.0000 0.55382  0.75674  0.90432  Biso   1.000  H
  O24      1.0000 0.23020  0.83024  0.68511  Biso   1.000  O
  C279     1.0000 0.37110  0.82346  0.71518  Biso   1.000  C
  H268     1.0000 0.44658  0.74807  0.97292  Biso   1.000  H
  C280     1.0000 0.31450  0.82748  0.66523  Biso   1.000  C
  H269     1.0000 0.34393  0.85807  0.73094  Biso   1.000  H
  H270     1.0000 0.42531  0.83436  0.69892  Biso   1.000  H
  H271     1.0000 0.33424  0.78628  0.65613  Biso   1.000  H
  H272     1.0000 0.31594  0.86948  0.62801  Biso   1.000  H
  Ne1      1.0000 0.79508  0.34178  0.29388  Biso   1.000  Ne
  He1      1.0000 0.73148  0.33014  0.33927  Biso   1.000  He
  He2      1.0000 0.87300  0.38094  0.22256  Biso   1.000  He
  Ar1      1.0000 0.79624  0.34500  0.28312  Biso   1.000  Ar
  Ne2      1.0000 0.32897  0.14728  0.70218  Biso   1.000  Ne
  He3      1.0000 0.44174  0.07732  0.77634  Biso   1.000  He
  He4      1.0000 0.25692  0.16152  0.68917  Biso   1.000  He
  Ar2      1.0000 0.38535  0.13989  0.71280  Biso   1.000  Ar
  Ne3      1.0000 0.67092  0.85267  0.29784  Biso   1.000  Ne
  He5      1.0000 0.73760  0.82815  0.33373  Biso   1.000  He
  He6      1.0000 0.62198  0.87203  0.27129  Biso   1.000  He
  Ar3      1.0000 0.67047  0.85646  0.28953  Biso   1.000  Ar
  Ne4      1.0000 0.20480  0.65818  0.70614  Biso   1.000  Ne
  He7      1.0000 0.13121  0.62338  0.77184  Biso   1.000  He
  He8      1.0000 0.29771  0.67523  0.62613  Biso   1.000  He
  Ar4      1.0000 0.20511  0.65676  0.70662  Biso   1.000  Ar
