data_image0
_cell_length_a       12.337
_cell_length_b       15.538
_cell_length_c       18.191
_cell_angle_alpha    90
_cell_angle_beta     90
_cell_angle_gamma    90

_symmetry_space_group_name_H-M    "P 1"
_symmetry_int_tables_number       1

loop_
  _symmetry_equiv_pos_as_xyz
  'x, y, z'

loop_
  _atom_site_label
  _atom_site_occupancy
  _atom_site_fract_x
  _atom_site_fract_y
  _atom_site_fract_z
  _atom_site_thermal_displace_type
  _atom_site_B_iso_or_equiv
  _atom_site_type_symbol
  C1       1.0000 0.67464  0.72609  0.64658  Biso   1.000  C
  O1       1.0000 0.76696  0.72628  0.60178  Biso   1.000  O
  C2       1.0000 0.71468  0.73188  0.72530  Biso   1.000  C
  H1       1.0000 0.62933  0.77462  0.63520  Biso   1.000  H
  H2       1.0000 0.63443  0.67390  0.63949  Biso   1.000  H
  C3       1.0000 0.86083  0.70299  0.64471  Biso   1.000  C
  C4       1.0000 0.82119  0.68258  0.72052  Biso   1.000  C
  O2       1.0000 0.63541  0.70060  0.77351  Biso   1.000  O
  H3       1.0000 0.72741  0.78833  0.74498  Biso   1.000  H
  C5       1.0000 0.90760  0.61771  0.61899  Biso   1.000  C
  H4       1.0000 0.91270  0.74900  0.64142  Biso   1.000  H
  O3       1.0000 0.80109  0.59120  0.72250  Biso   1.000  O
  H5       1.0000 0.87007  0.69732  0.75961  Biso   1.000  H
  C6       1.0000 0.63257  0.73948  0.84481  Biso   1.000  C
  O4       1.0000 0.90849  0.60330  0.54230  Biso   1.000  O
  C7       1.0000 0.83002  0.55522  0.65378  Biso   1.000  C
  H6       1.0000 0.98273  0.61340  0.63213  Biso   1.000  H
  C8       1.0000 0.71030  0.69732  0.89792  Biso   1.000  C
  H7       1.0000 0.65154  0.79920  0.84009  Biso   1.000  H
  H8       1.0000 0.56043  0.73471  0.86411  Biso   1.000  H
  C9       1.0000 0.97917  0.66019  0.50371  Biso   1.000  C
  H9       1.0000 0.86423  0.50032  0.66071  Biso   1.000  H
  H10      1.0000 0.76688  0.54827  0.62339  Biso   1.000  H
  C10      1.0000 0.67869  0.62659  0.93783  Biso   1.000  C
  C11      1.0000 0.81657  0.72731  0.90710  Biso   1.000  C
  H11      1.0000 0.96239  0.65742  0.45231  Biso   1.000  H
  H12      1.0000 0.96774  0.71779  0.52119  Biso   1.000  H
  C12      1.0000 0.09743  0.63689  0.51438  Biso   1.000  C
  C13      1.0000 0.74718  0.58502  0.98488  Biso   1.000  C
  H13      1.0000 0.60590  0.60561  0.93249  Biso   1.000  H
  C14      1.0000 0.88976  0.68400  0.95239  Biso   1.000  C
  O5       1.0000 0.84907  0.79579  0.86482  Biso   1.000  O
  C15      1.0000 0.14347  0.56938  0.47529  Biso   1.000  C
  C16      1.0000 0.16171  0.68053  0.56358  Biso   1.000  C
  C17      1.0000 0.85231  0.61308  0.99170  Biso   1.000  C
  H14      1.0000 0.72230  0.53649  0.01281  Biso   1.000  H
  C18      1.0000 0.00721  0.71110  0.95437  Biso   1.000  C
  C19      1.0000 0.85394  0.87817  0.89698  Biso   1.000  C
  C20      1.0000 0.24909  0.54537  0.48562  Biso   1.000  C
  H15      1.0000 0.10019  0.53887  0.44011  Biso   1.000  H
  C21      1.0000 0.26903  0.65478  0.57858  Biso   1.000  C
  O6       1.0000 0.12077  0.75010  0.60178  Biso   1.000  O
  H16      1.0000 0.90087  0.58328  0.02408  Biso   1.000  H
  O7       1.0000 0.04928  0.70009  0.88318  Biso   1.000  O
  H17      1.0000 0.04661  0.67602  0.98862  Biso   1.000  H
  H18      1.0000 0.01256  0.77037  0.96872  Biso   1.000  H
  C22      1.0000 0.84332  0.94279  0.83811  Biso   1.000  C
  H19      1.0000 0.79590  0.88480  0.93172  Biso   1.000  H
  H20      1.0000 0.92210  0.88531  0.92172  Biso   1.000  H
  C23      1.0000 0.31069  0.58772  0.53708  Biso   1.000  C
  H21      1.0000 0.27973  0.49942  0.45720  Biso   1.000  H
  C24      1.0000 0.33177  0.69488  0.63999  Biso   1.000  C
  C25      1.0000 0.13561  0.83029  0.56402  Biso   1.000  C
  C26      1.0000 0.13666  0.75499  0.86378  Biso   1.000  C
  O8       1.0000 0.92437  0.93719  0.78638  Biso   1.000  O
  H22      1.0000 0.84567  0.99897  0.85988  Biso   1.000  H
  H23      1.0000 0.77466  0.93480  0.81419  Biso   1.000  H
  H24      1.0000 0.38453  0.57009  0.54472  Biso   1.000  H
  O9       1.0000 0.29837  0.65362  0.70612  Biso   1.000  O
  H25      1.0000 0.31677  0.75537  0.64263  Biso   1.000  H
  H26      1.0000 0.40796  0.68619  0.63229  Biso   1.000  H
  C27      1.0000 0.11907  0.90308  0.61382  Biso   1.000  C
  H27      1.0000 0.20791  0.83260  0.54461  Biso   1.000  H
  H28      1.0000 0.08438  0.83402  0.52438  Biso   1.000  H
  C28      1.0000 0.24933  0.71792  0.87472  Biso   1.000  C
  C29      1.0000 0.13277  0.77397  0.78258  Biso   1.000  C
  H29      1.0000 0.12694  0.80358  0.89572  Biso   1.000  H
  C30      1.0000 0.90460  0.98597  0.72387  Biso   1.000  C
  C31      1.0000 0.35884  0.67711  0.76901  Biso   1.000  C
  O10      1.0000 0.01573  0.90597  0.64219  Biso   1.000  O
  H30      1.0000 0.13237  0.95540  0.58721  Biso   1.000  H
  H31      1.0000 0.16981  0.89851  0.65367  Biso   1.000  H
  C32      1.0000 0.31272  0.75582  0.80952  Biso   1.000  C
  O11      1.0000 0.24820  0.62691  0.86372  Biso   1.000  O
  H32      1.0000 0.27786  0.73002  0.92260  Biso   1.000  H
  O12      1.0000 0.23879  0.80557  0.76813  Biso   1.000  O
  H33      1.0000 0.07879  0.81671  0.77170  Biso   1.000  H
  H34      1.0000 0.11818  0.72281  0.75482  Biso   1.000  H
  C33      1.0000 0.99360  0.98687  0.67401  Biso   1.000  C
  H35      1.0000 0.84243  0.96293  0.69908  Biso   1.000  H
  H36      1.0000 0.88992  0.04409  0.73883  Biso   1.000  H
  C34      1.0000 0.34538  0.60748  0.82579  Biso   1.000  C
  H37      1.0000 0.43122  0.68722  0.75169  Biso   1.000  H
  H38      1.0000 0.37148  0.79360  0.82173  Biso   1.000  H
  H39      1.0000 0.97690  0.02658  0.63520  Biso   1.000  H
  H40      1.0000 0.05698  0.00611  0.69969  Biso   1.000  H
  H41      1.0000 0.40569  0.60761  0.85922  Biso   1.000  H
  H42      1.0000 0.34012  0.55219  0.80248  Biso   1.000  H
  Ne1      1.0000 0.99801  0.72140  0.73386  Biso   1.000  Ne
  He1      1.0000 0.01328  0.67133  0.71322  Biso   1.000  He
  Ar1      1.0000 0.99732  0.71051  0.72368  Biso   1.000  Ar
