data_image0
_cell_length_a       13.093
_cell_length_b       25.621
_cell_length_c       27.14
_cell_angle_alpha    90
_cell_angle_beta     90
_cell_angle_gamma    90

_symmetry_space_group_name_H-M    "P 1"
_symmetry_int_tables_number       1

loop_
  _symmetry_equiv_pos_as_xyz
  'x, y, z'

loop_
  _atom_site_label
  _atom_site_occupancy
  _atom_site_fract_x
  _atom_site_fract_y
  _atom_site_fract_z
  _atom_site_thermal_displace_type
  _atom_site_B_iso_or_equiv
  _atom_site_type_symbol
  O1       1.0000 0.40564  0.47469  0.50501  Biso   1.000  O
  C1       1.0000 0.32017  0.48171  0.51750  Biso   1.000  C
  N1       1.0000 0.24334  0.44491  0.52071  Biso   1.000  N
  N2       1.0000 0.27923  0.52980  0.52881  Biso   1.000  N
  C2       1.0000 0.26770  0.39120  0.51629  Biso   1.000  C
  C3       1.0000 0.15191  0.46598  0.54079  Biso   1.000  C
  C4       1.0000 0.17338  0.52488  0.54492  Biso   1.000  C
  C5       1.0000 0.34087  0.57461  0.53810  Biso   1.000  C
  N3       1.0000 0.21951  0.36599  0.47380  Biso   1.000  N
  H1       1.0000 0.34133  0.38749  0.51360  Biso   1.000  H
  H2       1.0000 0.24639  0.37329  0.54609  Biso   1.000  H
  N4       1.0000 0.06530  0.46520  0.50671  Biso   1.000  N
  H3       1.0000 0.13480  0.45049  0.57270  Biso   1.000  H
  N5       1.0000 0.09853  0.54932  0.51382  Biso   1.000  N
  H4       1.0000 0.16589  0.53671  0.57900  Biso   1.000  H
  N6       1.0000 0.33033  0.61539  0.50122  Biso   1.000  N
  H5       1.0000 0.32300  0.58881  0.57012  Biso   1.000  H
  H6       1.0000 0.41190  0.56380  0.53950  Biso   1.000  H
  C6       1.0000 0.27618  0.34378  0.43920  Biso   1.000  C
  C7       1.0000 0.11479  0.34671  0.47469  Biso   1.000  C
  C8       1.0000 0.99847  0.42122  0.50059  Biso   1.000  C
  C9       1.0000 0.03712  0.51419  0.49270  Biso   1.000  C
  C10      1.0000 0.07897  0.60528  0.51102  Biso   1.000  C
  C11      1.0000 0.40678  0.62972  0.47041  Biso   1.000  C
  C12      1.0000 0.24968  0.65150  0.50280  Biso   1.000  C
  N7       1.0000 0.21569  0.31139  0.40962  Biso   1.000  N
  O2       1.0000 0.36661  0.34999  0.43198  Biso   1.000  O
  C13      1.0000 0.11189  0.30920  0.43029  Biso   1.000  C
  N8       1.0000 0.03949  0.38410  0.46430  Biso   1.000  N
  H7       1.0000 0.09998  0.32829  0.50560  Biso   1.000  H
  H8       1.0000 0.98999  0.40369  0.53198  Biso   1.000  H
  H9       1.0000 0.93187  0.43332  0.48979  Biso   1.000  H
  O3       1.0000 0.96242  0.52531  0.46710  Biso   1.000  O
  N9       1.0000 0.15298  0.63292  0.48290  Biso   1.000  N
  H10      1.0000 0.07768  0.61941  0.54422  Biso   1.000  H
  H11      1.0000 0.01222  0.61079  0.49650  Biso   1.000  H
  O4       1.0000 0.48912  0.60681  0.46710  Biso   1.000  O
  N10      1.0000 0.37700  0.67261  0.44598  Biso   1.000  N
  C14      1.0000 0.28259  0.69529  0.46551  Biso   1.000  C
  H12      1.0000 0.24089  0.66570  0.53611  Biso   1.000  H
  C15      1.0000 0.25777  0.27200  0.37881  Biso   1.000  C
  N11      1.0000 0.03383  0.33250  0.39702  Biso   1.000  N
  H13      1.0000 0.09341  0.27368  0.44031  Biso   1.000  H
  C16      1.0000 0.99374  0.37411  0.42181  Biso   1.000  C
  C17      1.0000 0.12549  0.66141  0.44259  Biso   1.000  C
  C18      1.0000 0.44940  0.70380  0.41942  Biso   1.000  C
  N12      1.0000 0.20171  0.69580  0.43091  Biso   1.000  N
  H14      1.0000 0.29329  0.72921  0.48128  Biso   1.000  H
  N13      1.0000 0.22340  0.27360  0.32870  Biso   1.000  N
  H15      1.0000 0.33163  0.27520  0.37918  Biso   1.000  H
  H16      1.0000 0.24066  0.23820  0.39259  Biso   1.000  H
  C19      1.0000 0.98969  0.30471  0.36010  Biso   1.000  C
  O5       1.0000 0.91530  0.39870  0.40682  Biso   1.000  O
  O6       1.0000 0.04201  0.65829  0.42012  Biso   1.000  O
  N14      1.0000 0.42878  0.70661  0.36669  Biso   1.000  N
  H17      1.0000 0.44909  0.73881  0.43290  Biso   1.000  H
  H18      1.0000 0.51707  0.68932  0.42439  Biso   1.000  H
  C20      1.0000 0.19277  0.73479  0.39381  Biso   1.000  C
  C21      1.0000 0.29810  0.27438  0.29079  Biso   1.000  C
  C22      1.0000 0.12663  0.25971  0.31109  Biso   1.000  C
  N15      1.0000 0.05079  0.30151  0.31581  Biso   1.000  N
  H19      1.0000 0.97632  0.26958  0.37189  Biso   1.000  H
  H20      1.0000 0.92462  0.32052  0.35199  Biso   1.000  H
  C23      1.0000 0.48957  0.68381  0.33198  Biso   1.000  C
  C24      1.0000 0.35660  0.74298  0.34359  Biso   1.000  C
  N16      1.0000 0.25052  0.72589  0.35011  Biso   1.000  N
  H21      1.0000 0.12136  0.73791  0.38478  Biso   1.000  H
  H22      1.0000 0.21393  0.76789  0.40781  Biso   1.000  H
  N17      1.0000 0.24723  0.26560  0.24790  Biso   1.000  N
  O7       1.0000 0.38761  0.27911  0.29709  Biso   1.000  O
  C25      1.0000 0.13878  0.25620  0.25239  Biso   1.000  C
  H23      1.0000 0.10257  0.22681  0.32531  Biso   1.000  H
  C26      1.0000 0.01528  0.31880  0.27100  Biso   1.000  C
  N18      1.0000 0.45627  0.69798  0.28659  Biso   1.000  N
  O8       1.0000 0.56687  0.65700  0.33891  Biso   1.000  O
  C27      1.0000 0.37868  0.73670  0.29020  Biso   1.000  C
  H24      1.0000 0.36699  0.77901  0.35472  Biso   1.000  H
  C28      1.0000 0.20591  0.71859  0.30409  Biso   1.000  C
  C29      1.0000 0.30444  0.25581  0.20269  Biso   1.000  C
  N19      1.0000 0.06912  0.29519  0.23460  Biso   1.000  N
  H25      1.0000 0.12052  0.22138  0.24020  Biso   1.000  H
  O9       1.0000 0.94531  0.34901  0.26400  Biso   1.000  O
  C30      1.0000 0.51829  0.69349  0.24282  Biso   1.000  C
  N20      1.0000 0.27809  0.72210  0.26931  Biso   1.000  N
  H26      1.0000 0.40243  0.76980  0.27601  Biso   1.000  H
  O10      1.0000 0.11579  0.71071  0.29772  Biso   1.000  O
  N21      1.0000 0.29642  0.29780  0.16721  Biso   1.000  N
  H27      1.0000 0.27946  0.22380  0.18780  Biso   1.000  H
  H28      1.0000 0.37577  0.25061  0.21091  Biso   1.000  H
  C31      1.0000 0.04598  0.29921  0.18460  Biso   1.000  C
  N22      1.0000 0.46651  0.66328  0.20269  Biso   1.000  N
  H29      1.0000 0.53441  0.72819  0.23080  Biso   1.000  H
  H30      1.0000 0.58199  0.67640  0.25122  Biso   1.000  H
  C32      1.0000 0.25449  0.73061  0.21802  Biso   1.000  C
  C33      1.0000 0.37600  0.32961  0.15490  Biso   1.000  C
  C34      1.0000 0.21057  0.30452  0.13371  Biso   1.000  C
  N23      1.0000 0.12090  0.32879  0.15501  Biso   1.000  N
  H31      1.0000 0.04033  0.26431  0.17100  Biso   1.000  H
  H32      1.0000 0.97984  0.31580  0.18121  Biso   1.000  H
  C35      1.0000 0.51508  0.61961  0.18441  Biso   1.000  C
  C36      1.0000 0.39853  0.68811  0.16990  Biso   1.000  C
  N24      1.0000 0.29588  0.68850  0.18688  Biso   1.000  N
  H33      1.0000 0.18101  0.73241  0.21382  Biso   1.000  H
  H34      1.0000 0.28313  0.76379  0.20752  Biso   1.000  H
  O11      1.0000 0.45887  0.32926  0.17487  Biso   1.000  O
  N25      1.0000 0.34339  0.36131  0.11691  Biso   1.000  N
  H35      1.0000 0.19300  0.27142  0.11780  Biso   1.000  H
  C37      1.0000 0.24807  0.34429  0.09591  Biso   1.000  C
  C38      1.0000 0.09188  0.37379  0.12970  Biso   1.000  C
  N26      1.0000 0.46712  0.61040  0.13961  Biso   1.000  N
  O12      1.0000 0.57993  0.59619  0.20409  Biso   1.000  O
  C39      1.0000 0.39578  0.65009  0.12550  Biso   1.000  C
  H36      1.0000 0.42198  0.72300  0.16050  Biso   1.000  H
  C40      1.0000 0.23211  0.65841  0.15859  Biso   1.000  C
  C41      1.0000 0.41893  0.38999  0.08758  Biso   1.000  C
  N27      1.0000 0.16971  0.38301  0.09562  Biso   1.000  N
  H37      1.0000 0.25762  0.32848  0.06341  Biso   1.000  H
  O13      1.0000 0.01688  0.39850  0.13581  Biso   1.000  O
  C42      1.0000 0.50638  0.57441  0.10402  Biso   1.000  C
  N28      1.0000 0.29038  0.63319  0.12391  Biso   1.000  N
  H38      1.0000 0.41633  0.66738  0.09492  Biso   1.000  H
  O14      1.0000 0.13946  0.65462  0.16271  Biso   1.000  O
  N29      1.0000 0.40273  0.44569  0.08791  Biso   1.000  N
  H39      1.0000 0.41641  0.37750  0.05391  Biso   1.000  H
  H40      1.0000 0.48660  0.38262  0.10041  Biso   1.000  H
  C43      1.0000 0.16154  0.42379  0.06039  Biso   1.000  C
  N30      1.0000 0.44207  0.52929  0.09661  Biso   1.000  N
  H41      1.0000 0.51463  0.59229  0.07281  Biso   1.000  H
  H42      1.0000 0.57344  0.56278  0.11459  Biso   1.000  H
  C44      1.0000 0.24861  0.60751  0.08029  Biso   1.000  C
  C45      1.0000 0.47002  0.48011  0.10892  Biso   1.000  C
  C46      1.0000 0.33170  0.47122  0.05438  Biso   1.000  C
  N31      1.0000 0.22997  0.46848  0.07001  Biso   1.000  N
  H43      1.0000 0.17681  0.40978  0.02800  Biso   1.000  H
  H44      1.0000 0.09150  0.43620  0.05991  Biso   1.000  H
  C47      1.0000 0.36111  0.53011  0.06201  Biso   1.000  C
  N32      1.0000 0.26541  0.55220  0.08040  Biso   1.000  N
  H45      1.0000 0.27977  0.62242  0.05111  Biso   1.000  H
  H46      1.0000 0.17582  0.61430  0.07870  Biso   1.000  H
  O15      1.0000 0.54197  0.46739  0.13670  Biso   1.000  O
  H47      1.0000 0.34041  0.45982  0.02019  Biso   1.000  H
  C48      1.0000 0.19048  0.51669  0.08408  Biso   1.000  C
  H48      1.0000 0.38211  0.54650  0.03099  Biso   1.000  H
  O16      1.0000 0.09891  0.52582  0.09388  Biso   1.000  O
  C49      1.0000 0.63889  0.46989  0.56201  Biso   1.000  C
  N33      1.0000 0.55793  0.47071  0.59661  Biso   1.000  N
  N34      1.0000 0.73459  0.44780  0.58040  Biso   1.000  N
  C50      1.0000 0.66830  0.52878  0.55438  Biso   1.000  C
  H49      1.0000 0.61789  0.45350  0.53099  Biso   1.000  H
  C51      1.0000 0.49362  0.42559  0.60402  Biso   1.000  C
  C52      1.0000 0.52998  0.51989  0.60892  Biso   1.000  C
  C53      1.0000 0.80952  0.48331  0.58408  Biso   1.000  C
  C54      1.0000 0.75139  0.39249  0.58029  Biso   1.000  C
  N35      1.0000 0.59727  0.55431  0.58791  Biso   1.000  N
  N36      1.0000 0.77003  0.53152  0.57001  Biso   1.000  N
  H50      1.0000 0.65959  0.54018  0.52019  Biso   1.000  H
  N37      1.0000 0.53288  0.38960  0.63961  Biso   1.000  N
  H51      1.0000 0.48537  0.40771  0.57281  Biso   1.000  H
  H52      1.0000 0.42656  0.43722  0.61459  Biso   1.000  H
  O17      1.0000 0.45803  0.53261  0.63670  Biso   1.000  O
  O18      1.0000 0.90109  0.47418  0.59388  Biso   1.000  O
  N38      1.0000 0.70962  0.36681  0.62391  Biso   1.000  N
  H53      1.0000 0.72023  0.37758  0.55111  Biso   1.000  H
  H54      1.0000 0.82418  0.38570  0.57870  Biso   1.000  H
  C55      1.0000 0.58107  0.61001  0.58758  Biso   1.000  C
  C56      1.0000 0.83846  0.57621  0.56039  Biso   1.000  C
  C57      1.0000 0.48492  0.38039  0.68441  Biso   1.000  C
  C58      1.0000 0.60422  0.34991  0.62550  Biso   1.000  C
  C59      1.0000 0.76789  0.34159  0.65859  Biso   1.000  C
  N39      1.0000 0.65661  0.63869  0.61691  Biso   1.000  N
  H55      1.0000 0.58359  0.62250  0.55391  Biso   1.000  H
  H56      1.0000 0.51340  0.61738  0.60041  Biso   1.000  H
  N40      1.0000 0.83029  0.61699  0.59562  Biso   1.000  N
  H57      1.0000 0.82319  0.59022  0.52800  Biso   1.000  H
  H58      1.0000 0.90850  0.56380  0.55991  Biso   1.000  H
  O19      1.0000 0.42007  0.40381  0.70409  Biso   1.000  O
  N41      1.0000 0.53349  0.33672  0.70269  Biso   1.000  N
  H59      1.0000 0.58367  0.33262  0.59492  Biso   1.000  H
  C60      1.0000 0.60147  0.31189  0.66990  Biso   1.000  C
  N42      1.0000 0.70412  0.31150  0.68688  Biso   1.000  N
  O20      1.0000 0.86054  0.34538  0.66271  Biso   1.000  O
  C61      1.0000 0.62400  0.67039  0.65490  Biso   1.000  C
  C62      1.0000 0.75193  0.65571  0.59591  Biso   1.000  C
  C63      1.0000 0.90812  0.62621  0.62970  Biso   1.000  C
  C64      1.0000 0.48171  0.30651  0.74282  Biso   1.000  C
  H60      1.0000 0.57802  0.27700  0.66050  Biso   1.000  H
  C65      1.0000 0.74551  0.26939  0.71802  Biso   1.000  C
  O21      1.0000 0.54113  0.67074  0.67487  Biso   1.000  O
  N43      1.0000 0.70358  0.70220  0.66721  Biso   1.000  N
  C66      1.0000 0.78943  0.69548  0.63371  Biso   1.000  C
  H61      1.0000 0.74238  0.67152  0.56341  Biso   1.000  H
  N44      1.0000 0.87910  0.67121  0.65501  Biso   1.000  N
  O22      1.0000 0.98312  0.60150  0.63581  Biso   1.000  O
  N45      1.0000 0.54373  0.30202  0.78659  Biso   1.000  N
  H62      1.0000 0.46559  0.27181  0.73080  Biso   1.000  H
  H63      1.0000 0.41801  0.32360  0.75122  Biso   1.000  H
  N46      1.0000 0.72191  0.27790  0.76931  Biso   1.000  N
  H64      1.0000 0.81899  0.26759  0.71382  Biso   1.000  H
  H65      1.0000 0.71687  0.23621  0.70752  Biso   1.000  H
  C67      1.0000 0.69556  0.74419  0.70269  Biso   1.000  C
  H66      1.0000 0.80700  0.72858  0.61780  Biso   1.000  H
  C68      1.0000 0.95402  0.70079  0.68460  Biso   1.000  C
  C69      1.0000 0.51043  0.31619  0.83198  Biso   1.000  C
  C70      1.0000 0.62132  0.26330  0.79020  Biso   1.000  C
  C71      1.0000 0.79409  0.28141  0.80409  Biso   1.000  C
  N47      1.0000 0.75277  0.73440  0.74790  Biso   1.000  N
  H67      1.0000 0.72054  0.77620  0.68780  Biso   1.000  H
  H68      1.0000 0.62423  0.74939  0.71091  Biso   1.000  H
  N48      1.0000 0.93088  0.70481  0.73460  Biso   1.000  N
  H69      1.0000 0.95967  0.73569  0.67100  Biso   1.000  H
  H70      1.0000 0.02016  0.68420  0.68121  Biso   1.000  H
  O23      1.0000 0.43313  0.34300  0.83891  Biso   1.000  O
  N49      1.0000 0.57122  0.29339  0.86669  Biso   1.000  N
  H71      1.0000 0.59757  0.23020  0.77601  Biso   1.000  H
  C72      1.0000 0.64340  0.25702  0.84359  Biso   1.000  C
  N50      1.0000 0.74948  0.27411  0.85011  Biso   1.000  N
  O24      1.0000 0.88421  0.28929  0.79772  Biso   1.000  O
  C73      1.0000 0.70190  0.72562  0.79079  Biso   1.000  C
  C74      1.0000 0.86122  0.74380  0.75239  Biso   1.000  C
  C75      1.0000 0.98472  0.68120  0.77100  Biso   1.000  C
  C76      1.0000 0.55060  0.29620  0.91942  Biso   1.000  C
  H72      1.0000 0.63301  0.22099  0.85472  Biso   1.000  H
  C77      1.0000 0.80723  0.26521  0.89381  Biso   1.000  C
  O25      1.0000 0.61239  0.72089  0.79709  Biso   1.000  O
  N51      1.0000 0.77660  0.72640  0.82870  Biso   1.000  N
  C78      1.0000 0.87337  0.74029  0.81109  Biso   1.000  C
  H73      1.0000 0.87948  0.77862  0.74020  Biso   1.000  H
  N52      1.0000 0.94921  0.69849  0.81581  Biso   1.000  N
  O26      1.0000 0.05469  0.65099  0.76400  Biso   1.000  O
  N53      1.0000 0.62300  0.32739  0.94598  Biso   1.000  N
  H74      1.0000 0.55091  0.26119  0.93290  Biso   1.000  H
  H75      1.0000 0.48293  0.31068  0.92439  Biso   1.000  H
  N54      1.0000 0.79829  0.30420  0.93091  Biso   1.000  N
  H76      1.0000 0.87864  0.26209  0.88478  Biso   1.000  H
  H77      1.0000 0.78607  0.23211  0.90781  Biso   1.000  H
  C79      1.0000 0.74223  0.72800  0.87881  Biso   1.000  C
  H78      1.0000 0.89743  0.77319  0.82531  Biso   1.000  H
  C80      1.0000 0.01031  0.69529  0.86010  Biso   1.000  C
  C81      1.0000 0.59322  0.37028  0.97041  Biso   1.000  C
  C82      1.0000 0.71741  0.30471  0.96551  Biso   1.000  C
  C83      1.0000 0.87451  0.33859  0.94259  Biso   1.000  C
  N55      1.0000 0.78431  0.68861  0.90962  Biso   1.000  N
  H79      1.0000 0.66837  0.72480  0.87918  Biso   1.000  H
  H80      1.0000 0.75934  0.76180  0.89259  Biso   1.000  H
  N56      1.0000 0.96617  0.66750  0.89702  Biso   1.000  N
  H81      1.0000 0.02368  0.73042  0.87189  Biso   1.000  H
  H82      1.0000 0.07538  0.67948  0.85199  Biso   1.000  H
  O27      1.0000 0.51088  0.39319  0.96710  Biso   1.000  O
  N57      1.0000 0.66967  0.38461  0.00122  Biso   1.000  N
  H83      1.0000 0.70671  0.27079  0.98128  Biso   1.000  H
  C84      1.0000 0.75032  0.34850  0.00280  Biso   1.000  C
  N58      1.0000 0.84702  0.36708  0.98290  Biso   1.000  N
  O28      1.0000 0.95799  0.34171  0.92012  Biso   1.000  O
  C85      1.0000 0.72382  0.65622  0.93920  Biso   1.000  C
  C86      1.0000 0.88811  0.69080  0.93029  Biso   1.000  C
  C87      1.0000 0.00626  0.62589  0.92181  Biso   1.000  C
  C88      1.0000 0.65913  0.42539  0.03810  Biso   1.000  C
  H84      1.0000 0.75911  0.33430  0.03611  Biso   1.000  H
  C89      1.0000 0.92103  0.39472  0.01102  Biso   1.000  C
  O29      1.0000 0.63339  0.65001  0.93198  Biso   1.000  O
  N59      1.0000 0.78049  0.63401  0.97380  Biso   1.000  N
  C90      1.0000 0.88521  0.65329  0.97469  Biso   1.000  C
  H85      1.0000 0.90659  0.72632  0.94031  Biso   1.000  H
  N60      1.0000 0.96051  0.61590  0.96430  Biso   1.000  N
  O30      1.0000 0.08470  0.60130  0.90682  Biso   1.000  O
  N61      1.0000 0.72077  0.47020  0.02881  Biso   1.000  N
  H86      1.0000 0.67700  0.41119  0.07012  Biso   1.000  H
  H87      1.0000 0.58810  0.43620  0.03950  Biso   1.000  H
  H88      1.0000 0.98778  0.38921  0.99650  Biso   1.000  H
  N62      1.0000 0.90147  0.45068  0.01382  Biso   1.000  N
  H89      1.0000 0.92232  0.38059  0.04422  Biso   1.000  H
  C91      1.0000 0.73230  0.60880  0.01629  Biso   1.000  C
  H90      1.0000 0.90002  0.67171  0.00560  Biso   1.000  H
  C92      1.0000 0.00153  0.57878  0.00059  Biso   1.000  C
  C93      1.0000 0.67983  0.51829  0.01750  Biso   1.000  C
  C94      1.0000 0.82662  0.47512  0.04492  Biso   1.000  C
  C95      1.0000 0.96288  0.48581  0.99270  Biso   1.000  C
  N63      1.0000 0.75666  0.55509  0.02071  Biso   1.000  N
  H91      1.0000 0.65867  0.61251  0.01360  Biso   1.000  H
  H92      1.0000 0.75361  0.62671  0.04609  Biso   1.000  H
  N64      1.0000 0.93470  0.53480  0.00671  Biso   1.000  N
  H93      1.0000 0.06813  0.56668  0.98979  Biso   1.000  H
  H94      1.0000 0.01001  0.59631  0.03198  Biso   1.000  H
  O31      1.0000 0.59436  0.52531  0.00501  Biso   1.000  O
  H95      1.0000 0.83411  0.46329  0.07900  Biso   1.000  H
  C96      1.0000 0.84809  0.53402  0.04079  Biso   1.000  C
  O32      1.0000 0.03758  0.47469  0.96710  Biso   1.000  O
  H96      1.0000 0.86520  0.54951  0.07270  Biso   1.000  H
  C97      1.0000 0.61193  0.19078  0.43029  Biso   1.000  C
  N65      1.0000 0.53380  0.16752  0.39702  Biso   1.000  N
  N66      1.0000 0.71573  0.18860  0.40962  Biso   1.000  N
  C98      1.0000 0.61483  0.15331  0.47469  Biso   1.000  C
  H97      1.0000 0.59337  0.22630  0.44031  Biso   1.000  H
  C99      1.0000 0.48973  0.19531  0.36010  Biso   1.000  C
  C100     1.0000 0.49370  0.12591  0.42181  Biso   1.000  C
  C101     1.0000 0.75781  0.22802  0.37881  Biso   1.000  C
  C102     1.0000 0.77622  0.15620  0.43920  Biso   1.000  C
  N67      1.0000 0.53952  0.11588  0.46430  Biso   1.000  N
  N68      1.0000 0.71947  0.13399  0.47380  Biso   1.000  N
  H98      1.0000 0.60002  0.17170  0.50560  Biso   1.000  H
  N69      1.0000 0.55083  0.19851  0.31581  Biso   1.000  N
  H99      1.0000 0.47629  0.23040  0.37189  Biso   1.000  H
  H100     1.0000 0.42458  0.17950  0.35199  Biso   1.000  H
  O33      1.0000 0.41534  0.10128  0.40682  Biso   1.000  O
  N70      1.0000 0.72336  0.22642  0.32870  Biso   1.000  N
  H101     1.0000 0.83159  0.22482  0.37918  Biso   1.000  H
  H102     1.0000 0.74070  0.26182  0.39259  Biso   1.000  H
  O34      1.0000 0.86657  0.14999  0.43198  Biso   1.000  O
  C103     1.0000 0.49851  0.07880  0.50059  Biso   1.000  C
  C104     1.0000 0.76766  0.10882  0.51629  Biso   1.000  C
  C105     1.0000 0.51531  0.18122  0.27100  Biso   1.000  C
  C106     1.0000 0.62659  0.24031  0.31109  Biso   1.000  C
  C107     1.0000 0.79814  0.22560  0.29079  Biso   1.000  C
  N71      1.0000 0.56526  0.03482  0.50671  Biso   1.000  N
  H103     1.0000 0.49003  0.09629  0.53198  Biso   1.000  H
  H104     1.0000 0.43191  0.06670  0.48979  Biso   1.000  H
  N72      1.0000 0.74330  0.05511  0.52071  Biso   1.000  N
  H105     1.0000 0.84129  0.11249  0.51360  Biso   1.000  H
  H106     1.0000 0.74643  0.12669  0.54609  Biso   1.000  H
  O35      1.0000 0.44528  0.15101  0.26400  Biso   1.000  O
  N73      1.0000 0.56908  0.20479  0.23460  Biso   1.000  N
  C108     1.0000 0.63881  0.24378  0.25239  Biso   1.000  C
  H107     1.0000 0.60261  0.27321  0.32531  Biso   1.000  H
  N74      1.0000 0.74719  0.23442  0.24790  Biso   1.000  N
  O36      1.0000 0.88757  0.22091  0.29709  Biso   1.000  O
  C109     1.0000 0.65188  0.03400  0.54079  Biso   1.000  C
  C110     1.0000 0.53708  0.98579  0.49270  Biso   1.000  C
  C111     1.0000 0.82021  0.01831  0.51750  Biso   1.000  C
  C112     1.0000 0.54602  0.20081  0.18460  Biso   1.000  C
  H108     1.0000 0.62048  0.27860  0.24020  Biso   1.000  H
  C113     1.0000 0.80440  0.24421  0.20269  Biso   1.000  C
  H109     1.0000 0.63477  0.04949  0.57270  Biso   1.000  H
  C114     1.0000 0.67341  0.97510  0.54492  Biso   1.000  C
  O37      1.0000 0.46238  0.97471  0.46710  Biso   1.000  O
  N75      1.0000 0.59849  0.95070  0.51382  Biso   1.000  N
  N76      1.0000 0.77919  0.97018  0.52881  Biso   1.000  N
  O38      1.0000 0.90560  0.02529  0.50501  Biso   1.000  O
  N77      1.0000 0.62087  0.17123  0.15501  Biso   1.000  N
  H110     1.0000 0.54029  0.23571  0.17100  Biso   1.000  H
  H111     1.0000 0.47980  0.18418  0.18121  Biso   1.000  H
  N78      1.0000 0.79638  0.20222  0.16721  Biso   1.000  N
  H112     1.0000 0.77950  0.27622  0.18780  Biso   1.000  H
  H113     1.0000 0.87581  0.24940  0.21091  Biso   1.000  H
  H114     1.0000 0.66593  0.96331  0.57900  Biso   1.000  H
  C115     1.0000 0.57901  0.89470  0.51102  Biso   1.000  C
  C116     1.0000 0.84091  0.92541  0.53810  Biso   1.000  C
  C117     1.0000 0.71061  0.19550  0.13371  Biso   1.000  C
  C118     1.0000 0.59192  0.12619  0.12970  Biso   1.000  C
  C119     1.0000 0.87596  0.17041  0.15490  Biso   1.000  C
  N79      1.0000 0.65302  0.86710  0.48290  Biso   1.000  N
  H115     1.0000 0.57771  0.88061  0.54422  Biso   1.000  H
  H116     1.0000 0.51218  0.88919  0.49650  Biso   1.000  H
  N80      1.0000 0.83029  0.88459  0.50122  Biso   1.000  N
  H117     1.0000 0.82304  0.91121  0.57012  Biso   1.000  H
  H118     1.0000 0.91194  0.93619  0.53950  Biso   1.000  H
  H119     1.0000 0.69297  0.22860  0.11780  Biso   1.000  H
  C120     1.0000 0.74811  0.15569  0.09591  Biso   1.000  C
  O39      1.0000 0.51692  0.10152  0.13581  Biso   1.000  O
  N81      1.0000 0.66967  0.11701  0.09562  Biso   1.000  N
  N82      1.0000 0.84343  0.13871  0.11691  Biso   1.000  N
  O40      1.0000 0.95891  0.17076  0.17487  Biso   1.000  O
  C121     1.0000 0.62553  0.83861  0.44259  Biso   1.000  C
  C122     1.0000 0.74971  0.84848  0.50280  Biso   1.000  C
  C123     1.0000 0.90682  0.87030  0.47041  Biso   1.000  C
  H120     1.0000 0.75758  0.17150  0.06341  Biso   1.000  H
  C124     1.0000 0.66150  0.07619  0.06039  Biso   1.000  C
  C125     1.0000 0.91889  0.10999  0.08758  Biso   1.000  C
  O41      1.0000 0.54197  0.84169  0.42012  Biso   1.000  O
  N83      1.0000 0.70167  0.80418  0.43091  Biso   1.000  N
  C126     1.0000 0.78263  0.80469  0.46551  Biso   1.000  C
  H121     1.0000 0.74093  0.83432  0.53611  Biso   1.000  H
  O42      1.0000 0.98908  0.89321  0.46710  Biso   1.000  O
  N84      1.0000 0.87703  0.82741  0.44598  Biso   1.000  N
  N85      1.0000 0.73001  0.03150  0.07001  Biso   1.000  N
  H122     1.0000 0.67677  0.09020  0.02800  Biso   1.000  H
  H123     1.0000 0.59154  0.06381  0.05991  Biso   1.000  H
  N86      1.0000 0.90270  0.05429  0.08791  Biso   1.000  N
  H124     1.0000 0.91637  0.12252  0.05391  Biso   1.000  H
  H125     1.0000 0.98663  0.11740  0.10041  Biso   1.000  H
  C127     1.0000 0.69281  0.76519  0.39381  Biso   1.000  C
  H126     1.0000 0.79332  0.77081  0.48128  Biso   1.000  H
  C128     1.0000 0.94936  0.79618  0.41942  Biso   1.000  C
  C129     1.0000 0.83167  0.02880  0.05438  Biso   1.000  C
  C130     1.0000 0.69052  0.98329  0.08408  Biso   1.000  C
  C131     1.0000 0.96998  0.01991  0.10892  Biso   1.000  C
  N87      1.0000 0.75048  0.77409  0.35011  Biso   1.000  N
  H127     1.0000 0.62140  0.76211  0.38478  Biso   1.000  H
  H128     1.0000 0.71389  0.73209  0.40781  Biso   1.000  H
  N88      1.0000 0.92882  0.79341  0.36669  Biso   1.000  N
  H129     1.0000 0.94913  0.76121  0.43290  Biso   1.000  H
  H130     1.0000 0.01711  0.81070  0.42439  Biso   1.000  H
  H131     1.0000 0.84037  0.04020  0.02019  Biso   1.000  H
  C132     1.0000 0.86107  0.96991  0.06201  Biso   1.000  C
  O43      1.0000 0.59887  0.97420  0.09388  Biso   1.000  O
  N89      1.0000 0.76537  0.94782  0.08040  Biso   1.000  N
  N90      1.0000 0.94211  0.97069  0.09661  Biso   1.000  N
  O44      1.0000 0.04201  0.03259  0.13670  Biso   1.000  O
  C133     1.0000 0.70587  0.78139  0.30409  Biso   1.000  C
  C134     1.0000 0.85656  0.75700  0.34359  Biso   1.000  C
  C135     1.0000 0.98961  0.81621  0.33198  Biso   1.000  C
  H132     1.0000 0.88207  0.95351  0.03099  Biso   1.000  H
  C136     1.0000 0.74857  0.89251  0.08029  Biso   1.000  C
  C137     1.0000 0.00642  0.92561  0.10402  Biso   1.000  C
  N91      1.0000 0.77813  0.77792  0.26931  Biso   1.000  N
  O45      1.0000 0.61583  0.78931  0.29772  Biso   1.000  O
  C138     1.0000 0.87871  0.76332  0.29020  Biso   1.000  C
  H133     1.0000 0.86703  0.72101  0.35472  Biso   1.000  H
  N92      1.0000 0.95631  0.80200  0.28659  Biso   1.000  N
  O46      1.0000 0.06691  0.84302  0.33891  Biso   1.000  O
  N93      1.0000 0.79042  0.86679  0.12391  Biso   1.000  N
  H134     1.0000 0.77981  0.87760  0.05111  Biso   1.000  H
  H135     1.0000 0.67578  0.88572  0.07870  Biso   1.000  H
  N94      1.0000 0.96708  0.88958  0.13961  Biso   1.000  N
  H136     1.0000 0.01459  0.90769  0.07281  Biso   1.000  H
  H137     1.0000 0.07340  0.93720  0.11459  Biso   1.000  H
  C139     1.0000 0.75453  0.76941  0.21802  Biso   1.000  C
  H138     1.0000 0.90239  0.73018  0.27601  Biso   1.000  H
  C140     1.0000 0.01833  0.80649  0.24282  Biso   1.000  C
  C141     1.0000 0.89582  0.84989  0.12550  Biso   1.000  C
  C142     1.0000 0.73207  0.84161  0.15859  Biso   1.000  C
  C143     1.0000 0.01512  0.88041  0.18441  Biso   1.000  C
  N95      1.0000 0.79592  0.81148  0.18688  Biso   1.000  N
  H139     1.0000 0.68097  0.76761  0.21382  Biso   1.000  H
  H140     1.0000 0.78309  0.73619  0.20752  Biso   1.000  H
  N96      1.0000 0.96647  0.83670  0.20269  Biso   1.000  N
  H141     1.0000 0.03437  0.77179  0.23080  Biso   1.000  H
  H142     1.0000 0.08203  0.82358  0.25122  Biso   1.000  H
  H143     1.0000 0.91629  0.83260  0.09492  Biso   1.000  H
  C144     1.0000 0.89850  0.81191  0.16990  Biso   1.000  C
  O47      1.0000 0.63950  0.84540  0.16271  Biso   1.000  O
  O48      1.0000 0.07989  0.90379  0.20409  Biso   1.000  O
  H144     1.0000 0.92202  0.77702  0.16050  Biso   1.000  H
  C145     1.0000 0.28939  0.80450  0.63371  Biso   1.000  C
  N97      1.0000 0.20362  0.79778  0.66721  Biso   1.000  N
  N98      1.0000 0.37913  0.82877  0.65501  Biso   1.000  N
  H145     1.0000 0.30703  0.77140  0.61780  Biso   1.000  H
  C146     1.0000 0.25189  0.84431  0.59591  Biso   1.000  C
  C147     1.0000 0.19560  0.75579  0.70269  Biso   1.000  C
  C148     1.0000 0.12404  0.82959  0.65490  Biso   1.000  C
  C149     1.0000 0.45398  0.79919  0.68460  Biso   1.000  C
  C150     1.0000 0.40808  0.87381  0.62970  Biso   1.000  C
  N99      1.0000 0.15657  0.86129  0.61691  Biso   1.000  N
  N100     1.0000 0.33033  0.88299  0.59562  Biso   1.000  N
  H146     1.0000 0.24242  0.82850  0.56341  Biso   1.000  H
  N101     1.0000 0.25281  0.76558  0.74790  Biso   1.000  N
  H147     1.0000 0.22050  0.72378  0.68780  Biso   1.000  H
  H148     1.0000 0.12419  0.75060  0.71091  Biso   1.000  H
  O49      1.0000 0.04109  0.82924  0.67487  Biso   1.000  O
  N102     1.0000 0.43092  0.79521  0.73460  Biso   1.000  N
  H149     1.0000 0.45971  0.76429  0.67100  Biso   1.000  H
  H150     1.0000 0.52020  0.81582  0.68121  Biso   1.000  H
  O50      1.0000 0.48308  0.89848  0.63581  Biso   1.000  O
  C151     1.0000 0.08111  0.89001  0.58758  Biso   1.000  C
  C152     1.0000 0.33850  0.92381  0.56039  Biso   1.000  C
  C153     1.0000 0.20186  0.77440  0.79079  Biso   1.000  C
  C154     1.0000 0.36119  0.75622  0.75239  Biso   1.000  C
  C155     1.0000 0.48469  0.81878  0.77100  Biso   1.000  C
  N103     1.0000 0.09730  0.94571  0.58791  Biso   1.000  N
  H151     1.0000 0.08363  0.87748  0.55391  Biso   1.000  H
  H152     1.0000 0.01337  0.88260  0.60041  Biso   1.000  H
  N104     1.0000 0.26999  0.96850  0.57001  Biso   1.000  N
  H153     1.0000 0.32323  0.90980  0.52800  Biso   1.000  H
  H154     1.0000 0.40846  0.93619  0.55991  Biso   1.000  H
  O51      1.0000 0.11243  0.77909  0.79709  Biso   1.000  O
  N105     1.0000 0.27664  0.77358  0.82870  Biso   1.000  N
  C156     1.0000 0.37341  0.75969  0.81109  Biso   1.000  C
  H155     1.0000 0.37952  0.72140  0.74020  Biso   1.000  H
  O52      1.0000 0.55472  0.84899  0.76400  Biso   1.000  O
  N106     1.0000 0.44917  0.80149  0.81581  Biso   1.000  N
  C157     1.0000 0.03002  0.98009  0.60892  Biso   1.000  C
  C158     1.0000 0.16833  0.97120  0.55438  Biso   1.000  C
  C159     1.0000 0.30948  0.01671  0.58408  Biso   1.000  C
  C160     1.0000 0.24219  0.77198  0.87881  Biso   1.000  C
  H156     1.0000 0.39739  0.72679  0.82531  Biso   1.000  H
  C161     1.0000 0.51027  0.80469  0.86010  Biso   1.000  C
  O53      1.0000 0.95799  0.96741  0.63670  Biso   1.000  O
  N107     1.0000 0.05789  0.02931  0.59661  Biso   1.000  N
  H157     1.0000 0.15963  0.95980  0.52019  Biso   1.000  H
  C162     1.0000 0.13893  0.03009  0.56201  Biso   1.000  C
  O54      1.0000 0.40113  0.02580  0.59388  Biso   1.000  O
  N108     1.0000 0.23463  0.05218  0.58040  Biso   1.000  N
  N109     1.0000 0.28427  0.81140  0.90962  Biso   1.000  N
  H158     1.0000 0.16841  0.77518  0.87918  Biso   1.000  H
  H159     1.0000 0.25930  0.73818  0.89259  Biso   1.000  H
  N110     1.0000 0.46620  0.83248  0.89702  Biso   1.000  N
  H160     1.0000 0.52371  0.76960  0.87189  Biso   1.000  H
  H161     1.0000 0.57542  0.82050  0.85199  Biso   1.000  H
  C163     1.0000 0.99358  0.07439  0.60402  Biso   1.000  C
  H162     1.0000 0.11793  0.04649  0.53099  Biso   1.000  H
  C164     1.0000 0.25143  0.10749  0.58029  Biso   1.000  C
  C165     1.0000 0.22378  0.84380  0.93920  Biso   1.000  C
  C166     1.0000 0.38807  0.80922  0.93029  Biso   1.000  C
  C167     1.0000 0.50630  0.87409  0.92181  Biso   1.000  C
  H163     1.0000 0.98541  0.09231  0.57281  Biso   1.000  H
  H164     1.0000 0.92660  0.06280  0.61459  Biso   1.000  H
  N111     1.0000 0.03292  0.11042  0.63961  Biso   1.000  N
  N112     1.0000 0.20958  0.13321  0.62391  Biso   1.000  N
  H165     1.0000 0.22019  0.12240  0.55111  Biso   1.000  H
  H166     1.0000 0.32422  0.11428  0.57870  Biso   1.000  H
  O55      1.0000 0.13343  0.85001  0.93198  Biso   1.000  O
  N113     1.0000 0.28053  0.86601  0.97380  Biso   1.000  N
  C168     1.0000 0.38517  0.84669  0.97469  Biso   1.000  C
  H167     1.0000 0.40663  0.77370  0.94031  Biso   1.000  H
  O56      1.0000 0.58466  0.89872  0.90682  Biso   1.000  O
  N114     1.0000 0.46048  0.88412  0.96430  Biso   1.000  N
  C169     1.0000 0.98488  0.11959  0.68441  Biso   1.000  C
  C170     1.0000 0.10418  0.15011  0.62550  Biso   1.000  C
  C171     1.0000 0.26793  0.15839  0.65859  Biso   1.000  C
  C172     1.0000 0.23234  0.89118  0.01629  Biso   1.000  C
  H168     1.0000 0.39998  0.82830  0.00560  Biso   1.000  H
  C173     1.0000 0.50149  0.92120  0.00059  Biso   1.000  C
  O57      1.0000 0.92011  0.09621  0.70409  Biso   1.000  O
  N115     1.0000 0.03353  0.16330  0.70269  Biso   1.000  N
  H169     1.0000 0.08371  0.16740  0.59492  Biso   1.000  H
  C174     1.0000 0.10150  0.18809  0.66990  Biso   1.000  C
  O58      1.0000 0.36050  0.15460  0.66271  Biso   1.000  O
  N116     1.0000 0.20408  0.18852  0.68688  Biso   1.000  N
  N117     1.0000 0.25670  0.94489  0.02071  Biso   1.000  N
  H170     1.0000 0.15871  0.88751  0.01360  Biso   1.000  H
  H171     1.0000 0.25357  0.87331  0.04609  Biso   1.000  H
  H172     1.0000 0.56809  0.93330  0.98979  Biso   1.000  H
  N118     1.0000 0.43474  0.96518  0.00671  Biso   1.000  N
  H173     1.0000 0.50997  0.90371  0.03198  Biso   1.000  H
  C175     1.0000 0.98167  0.19351  0.74282  Biso   1.000  C
  H174     1.0000 0.07798  0.22298  0.66050  Biso   1.000  H
  C176     1.0000 0.24547  0.23059  0.71802  Biso   1.000  C
  C177     1.0000 0.17979  0.98169  0.01750  Biso   1.000  C
  C178     1.0000 0.34812  0.96600  0.04079  Biso   1.000  C
  C179     1.0000 0.46292  0.01421  0.99270  Biso   1.000  C
  H175     1.0000 0.96563  0.22821  0.73080  Biso   1.000  H
  H176     1.0000 0.91797  0.17642  0.75122  Biso   1.000  H
  N119     1.0000 0.04369  0.19800  0.78659  Biso   1.000  N
  N120     1.0000 0.22187  0.22208  0.76931  Biso   1.000  N
  H177     1.0000 0.31903  0.23239  0.71382  Biso   1.000  H
  H178     1.0000 0.21691  0.26381  0.70752  Biso   1.000  H
  O59      1.0000 0.09440  0.97471  0.00501  Biso   1.000  O
  N121     1.0000 0.22081  0.02982  0.02881  Biso   1.000  N
  H179     1.0000 0.36523  0.95051  0.07270  Biso   1.000  H
  C180     1.0000 0.32659  0.02490  0.04492  Biso   1.000  C
  O60      1.0000 0.53762  0.02529  0.96710  Biso   1.000  O
  N122     1.0000 0.40151  0.04930  0.01382  Biso   1.000  N
  C181     1.0000 0.01039  0.18379  0.83198  Biso   1.000  C
  C182     1.0000 0.12129  0.23668  0.79020  Biso   1.000  C
  C183     1.0000 0.29413  0.21861  0.80409  Biso   1.000  C
  C184     1.0000 0.15909  0.07459  0.03810  Biso   1.000  C
  H180     1.0000 0.33407  0.03669  0.07900  Biso   1.000  H
  C185     1.0000 0.42099  0.10530  0.01102  Biso   1.000  C
  O61      1.0000 0.93309  0.15698  0.83891  Biso   1.000  O
  N123     1.0000 0.07118  0.20659  0.86669  Biso   1.000  N
  H181     1.0000 0.09761  0.26982  0.77601  Biso   1.000  H
  C186     1.0000 0.14344  0.24300  0.84359  Biso   1.000  C
  O62      1.0000 0.38417  0.21069  0.79772  Biso   1.000  O
  N124     1.0000 0.24952  0.22591  0.85011  Biso   1.000  N
  N125     1.0000 0.16971  0.11541  0.00122  Biso   1.000  N
  H182     1.0000 0.17696  0.08879  0.07012  Biso   1.000  H
  H183     1.0000 0.08806  0.06381  0.03950  Biso   1.000  H
  N126     1.0000 0.34698  0.13290  0.98290  Biso   1.000  N
  H184     1.0000 0.48782  0.11081  0.99650  Biso   1.000  H
  H185     1.0000 0.42229  0.11939  0.04422  Biso   1.000  H
  C187     1.0000 0.05064  0.20382  0.91942  Biso   1.000  C
  H186     1.0000 0.13297  0.27899  0.85472  Biso   1.000  H
  C188     1.0000 0.30719  0.23481  0.89381  Biso   1.000  C
  C189     1.0000 0.09318  0.12970  0.97041  Biso   1.000  C
  C190     1.0000 0.25029  0.15152  0.00280  Biso   1.000  C
  C191     1.0000 0.37447  0.16139  0.94259  Biso   1.000  C
  H187     1.0000 0.98289  0.18930  0.92439  Biso   1.000  H
  N127     1.0000 0.12297  0.17259  0.94598  Biso   1.000  N
  H188     1.0000 0.05087  0.23879  0.93290  Biso   1.000  H
  N128     1.0000 0.29833  0.19582  0.93091  Biso   1.000  N
  H189     1.0000 0.37860  0.23789  0.88478  Biso   1.000  H
  H190     1.0000 0.28611  0.26791  0.90781  Biso   1.000  H
  O63      1.0000 0.01092  0.10679  0.96710  Biso   1.000  O
  C192     1.0000 0.21737  0.19531  0.96551  Biso   1.000  C
  H191     1.0000 0.25907  0.16568  0.03611  Biso   1.000  H
  O64      1.0000 0.45803  0.15831  0.92012  Biso   1.000  O
  H192     1.0000 0.20668  0.22919  0.98128  Biso   1.000  H
