data_image0
_cell_length_a       14.317
_cell_length_b       19.722
_cell_length_c       19.99
_cell_angle_alpha    90
_cell_angle_beta     105.53
_cell_angle_gamma    90

_symmetry_space_group_name_H-M    "P 1"
_symmetry_int_tables_number       1

loop_
  _symmetry_equiv_pos_as_xyz
  'x, y, z'

loop_
  _atom_site_label
  _atom_site_occupancy
  _atom_site_fract_x
  _atom_site_fract_y
  _atom_site_fract_z
  _atom_site_thermal_displace_type
  _atom_site_B_iso_or_equiv
  _atom_site_type_symbol
  N1       1.0000 0.09144  0.35138  0.77055  Biso   1.000  N
  C1       1.0000 0.18158  0.38323  0.76448  Biso   1.000  C
  C2       1.0000 0.10729  0.31102  0.82902  Biso   1.000  C
  C3       1.0000 0.10720  0.31102  0.82896  Biso   1.000  C
  C4       1.0000 0.01053  0.34200  0.71126  Biso   1.000  C
  N2       1.0000 0.09146  0.35138  0.77061  Biso   1.000  N
  N3       1.0000 0.18263  0.45558  0.77346  Biso   1.000  N
  C5       1.0000 0.25855  0.35782  0.83005  Biso   1.000  C
  H1       1.0000 0.19774  0.36969  0.72066  Biso   1.000  H
  N4       1.0000 0.20295  0.31741  0.86536  Biso   1.000  N
  O1       1.0000 0.04664  0.27614  0.84428  Biso   1.000  O
  H2       1.0000 0.03495  0.33349  0.67009  Biso   1.000  H
  N5       1.0000 0.94534  0.39910  0.69719  Biso   1.000  N
  H3       1.0000 0.97409  0.30129  0.71858  Biso   1.000  H
  H4       1.0000 0.97402  0.30129  0.71858  Biso   1.000  H
  C6       1.0000 0.13626  0.50101  0.71837  Biso   1.000  C
  C7       1.0000 0.25154  0.47581  0.83000  Biso   1.000  C
  C8       1.0000 0.25152  0.47581  0.82995  Biso   1.000  C
  H5       1.0000 0.30997  0.33029  0.81739  Biso   1.000  H
  N6       1.0000 0.29685  0.41938  0.86396  Biso   1.000  N
  C9       1.0000 0.24652  0.26889  0.91951  Biso   1.000  C
  C10      1.0000 0.24650  0.26889  0.91946  Biso   1.000  C
  C11      1.0000 0.96393  0.46050  0.66339  Biso   1.000  C
  C12      1.0000 0.85551  0.39818  0.70726  Biso   1.000  C
  N7       1.0000 0.03244  0.50659  0.70820  Biso   1.000  N
  H6       1.0000 0.16572  0.54650  0.72860  Biso   1.000  H
  H7       1.0000 0.14884  0.48499  0.67466  Biso   1.000  H
  O2       1.0000 0.27284  0.53478  0.84755  Biso   1.000  O
  C13      1.0000 0.38704  0.42283  0.91816  Biso   1.000  C
  N8       1.0000 0.28493  0.29972  0.98639  Biso   1.000  N
  H8       1.0000 0.19724  0.23492  0.92279  Biso   1.000  H
  H9       1.0000 0.29955  0.24480  0.90612  Biso   1.000  H
  H10      1.0000 0.29953  0.24480  0.90607  Biso   1.000  H
  N9       1.0000 0.81007  0.45710  0.68322  Biso   1.000  N
  O3       1.0000 0.81994  0.35149  0.73374  Biso   1.000  O
  N10      1.0000 0.81005  0.45710  0.68317  Biso   1.000  N
  H11      1.0000 0.98157  0.45082  0.61921  Biso   1.000  H
  C14      1.0000 0.86660  0.49990  0.65041  Biso   1.000  C
  C15      1.0000 0.86651  0.49990  0.65036  Biso   1.000  C
  C16      1.0000 0.99044  0.56789  0.71469  Biso   1.000  C
  N11      1.0000 0.37915  0.40062  0.98488  Biso   1.000  N
  H12      1.0000 0.41076  0.47019  0.92221  Biso   1.000  H
  H13      1.0000 0.41074  0.47019  0.92216  Biso   1.000  H
  H14      1.0000 0.43590  0.39438  0.90446  Biso   1.000  H
  C17      1.0000 0.26380  0.27370  0.04329  Biso   1.000  C
  C18      1.0000 0.38051  0.33029  0.00477  Biso   1.000  C
  C19      1.0000 0.70743  0.46902  0.67549  Biso   1.000  C
  N12      1.0000 0.89369  0.56348  0.68421  Biso   1.000  N
  N13      1.0000 0.89367  0.56348  0.68416  Biso   1.000  N
  H15      1.0000 0.83478  0.50578  0.59968  Biso   1.000  H
  O4       1.0000 0.03403  0.61911  0.74309  Biso   1.000  O
  C20      1.0000 0.40010  0.44382  0.04168  Biso   1.000  C
  O5       1.0000 0.19450  0.23522  0.04251  Biso   1.000  O
  N14      1.0000 0.32940  0.29652  0.10067  Biso   1.000  N
  O6       1.0000 0.19449  0.23522  0.04246  Biso   1.000  O
  H16      1.0000 0.42857  0.30321  0.98779  Biso   1.000  H
  H17      1.0000 0.42850  0.30321  0.98779  Biso   1.000  H
  C21      1.0000 0.40612  0.33328  0.08488  Biso   1.000  C
  N15      1.0000 0.68975  0.52251  0.72029  Biso   1.000  N
  H18      1.0000 0.67749  0.42653  0.68618  Biso   1.000  H
  H19      1.0000 0.67574  0.48109  0.62658  Biso   1.000  H
  H20      1.0000 0.67742  0.42653  0.68618  Biso   1.000  H
  C22      1.0000 0.83384  0.62423  0.66910  Biso   1.000  C
  O7       1.0000 0.40857  0.50522  0.03987  Biso   1.000  O
  N16      1.0000 0.40842  0.40559  0.09999  Biso   1.000  N
  C23      1.0000 0.33037  0.27472  0.16998  Biso   1.000  C
  H21      1.0000 0.47028  0.31158  0.10627  Biso   1.000  H
  C24      1.0000 0.64006  0.50852  0.76749  Biso   1.000  C
  C25      1.0000 0.67713  0.59269  0.69719  Biso   1.000  C
  N17      1.0000 0.76547  0.63143  0.70929  Biso   1.000  N
  H22      1.0000 0.79805  0.62372  0.61931  Biso   1.000  H
  H23      1.0000 0.87686  0.66438  0.67710  Biso   1.000  H
  H24      1.0000 0.79803  0.62372  0.61926  Biso   1.000  H
  C26      1.0000 0.45730  0.43048  0.16795  Biso   1.000  C
  N18      1.0000 0.30522  0.32781  0.21219  Biso   1.000  N
  H25      1.0000 0.39578  0.25738  0.19360  Biso   1.000  H
  N19      1.0000 0.30520  0.32781  0.21214  Biso   1.000  N
  H26      1.0000 0.28407  0.23669  0.16645  Biso   1.000  H
  H27      1.0000 0.39576  0.25738  0.19355  Biso   1.000  H
  O8       1.0000 0.63074  0.45178  0.79096  Biso   1.000  O
  N20      1.0000 0.60373  0.56718  0.78577  Biso   1.000  N
  C27      1.0000 0.62408  0.62392  0.74828  Biso   1.000  C
  H28      1.0000 0.63735  0.59629  0.64776  Biso   1.000  H
  C28      1.0000 0.77333  0.67939  0.76059  Biso   1.000  C
  N21      1.0000 0.39620  0.43282  0.21416  Biso   1.000  N
  H29      1.0000 0.48221  0.47663  0.16359  Biso   1.000  H
  H30      1.0000 0.48219  0.47663  0.16354  Biso   1.000  H
  H31      1.0000 0.51361  0.40092  0.18836  Biso   1.000  H
  C29      1.0000 0.37587  0.37613  0.25170  Biso   1.000  C
  C30      1.0000 0.22660  0.32061  0.23935  Biso   1.000  C
  C31      1.0000 0.37585  0.37613  0.25165  Biso   1.000  C
  C32      1.0000 0.54263  0.56952  0.83198  Biso   1.000  C
  N22      1.0000 0.69473  0.67219  0.78779  Biso   1.000  N
  H32      1.0000 0.56306  0.64740  0.72258  Biso   1.000  H
  O9       1.0000 0.83609  0.72249  0.77730  Biso   1.000  O
  O10      1.0000 0.83600  0.72249  0.77725  Biso   1.000  O
  C33      1.0000 0.35989  0.49148  0.23249  Biso   1.000  C
  C34      1.0000 0.35987  0.49148  0.23244  Biso   1.000  C
  O11      1.0000 0.16386  0.27751  0.22268  Biso   1.000  O
  N23      1.0000 0.23448  0.36862  0.29069  Biso   1.000  N
  N24      1.0000 0.23446  0.36862  0.29064  Biso   1.000  N
  C35      1.0000 0.32282  0.40731  0.30279  Biso   1.000  C
  H33      1.0000 0.43689  0.35260  0.27740  Biso   1.000  H
  C36      1.0000 0.32273  0.40731  0.30274  Biso   1.000  C
  H34      1.0000 0.43687  0.35260  0.27735  Biso   1.000  H
  N25      1.0000 0.59153  0.59441  0.89999  Biso   1.000  N
  H35      1.0000 0.51774  0.52343  0.83639  Biso   1.000  H
  H36      1.0000 0.48632  0.59913  0.81157  Biso   1.000  H
  C37      1.0000 0.66958  0.72533  0.83000  Biso   1.000  C
  C38      1.0000 0.66956  0.72533  0.82995  Biso   1.000  C
  O12      1.0000 0.36919  0.54822  0.20897  Biso   1.000  O
  N26      1.0000 0.31020  0.47749  0.27969  Biso   1.000  N
  C39      1.0000 0.16610  0.37582  0.33088  Biso   1.000  C
  H37      1.0000 0.36258  0.40371  0.35217  Biso   1.000  H
  C40      1.0000 0.59985  0.55618  0.95830  Biso   1.000  C
  C41      1.0000 0.59382  0.66672  0.91510  Biso   1.000  C
  C42      1.0000 0.59983  0.55618  0.95825  Biso   1.000  C
  C43      1.0000 0.59381  0.66672  0.91505  Biso   1.000  C
  N27      1.0000 0.67055  0.70353  0.89932  Biso   1.000  N
  H38      1.0000 0.71586  0.76331  0.83348  Biso   1.000  H
  H39      1.0000 0.60417  0.74262  0.80638  Biso   1.000  H
  N28      1.0000 0.67053  0.70353  0.89927  Biso   1.000  N
  C44      1.0000 0.29251  0.53098  0.32449  Biso   1.000  C
  C45      1.0000 0.29250  0.53098  0.32444  Biso   1.000  C
  N29      1.0000 0.10625  0.43652  0.31577  Biso   1.000  N
  H40      1.0000 0.20190  0.37628  0.38067  Biso   1.000  H
  H41      1.0000 0.12309  0.33562  0.32289  Biso   1.000  H
  O13      1.0000 0.59137  0.49483  0.96012  Biso   1.000  O
  O14      1.0000 0.59136  0.49483  0.96006  Biso   1.000  O
  N30      1.0000 0.62078  0.59938  0.01505  Biso   1.000  N
  H42      1.0000 0.52967  0.68842  0.89371  Biso   1.000  H
  H43      1.0000 0.52965  0.68842  0.89366  Biso   1.000  H
  C46      1.0000 0.61942  0.66971  0.99516  Biso   1.000  C
  C47      1.0000 0.73614  0.72630  0.95669  Biso   1.000  C
  N31      1.0000 0.18988  0.54290  0.31676  Biso   1.000  N
  H44      1.0000 0.32421  0.51891  0.37340  Biso   1.000  H
  H45      1.0000 0.32244  0.57352  0.31375  Biso   1.000  H
  H46      1.0000 0.32419  0.51891  0.37335  Biso   1.000  H
  C48      1.0000 0.13335  0.50010  0.34957  Biso   1.000  C
  C49      1.0000 0.00949  0.43211  0.28524  Biso   1.000  C
  C50      1.0000 0.61289  0.57722  0.08177  Biso   1.000  C
  N32      1.0000 0.71502  0.70028  0.01359  Biso   1.000  N
  H47      1.0000 0.57138  0.69679  0.01219  Biso   1.000  H
  O15      1.0000 0.80544  0.76483  0.95747  Biso   1.000  O
  C51      1.0000 0.14442  0.60182  0.29267  Biso   1.000  C
  C52      1.0000 0.14435  0.60182  0.29267  Biso   1.000  C
  O16      1.0000 0.96592  0.38089  0.25689  Biso   1.000  O
  N33      1.0000 0.96751  0.49341  0.29178  Biso   1.000  N
  O17      1.0000 0.96583  0.38089  0.25684  Biso   1.000  O
  C53      1.0000 0.03602  0.53950  0.33659  Biso   1.000  C
  C54      1.0000 0.03593  0.53950  0.33654  Biso   1.000  C
  H48      1.0000 0.16514  0.49422  0.40025  Biso   1.000  H
  N34      1.0000 0.70307  0.58062  0.13597  Biso   1.000  N
  H49      1.0000 0.58919  0.52981  0.07777  Biso   1.000  H
  H50      1.0000 0.56396  0.60562  0.09547  Biso   1.000  H
  C55      1.0000 0.75336  0.73111  0.08047  Biso   1.000  C
  O18      1.0000 0.17999  0.64851  0.26619  Biso   1.000  O
  N35      1.0000 0.05459  0.60090  0.30274  Biso   1.000  N
  C56      1.0000 0.86369  0.49899  0.28161  Biso   1.000  C
  C57      1.0000 0.86367  0.49899  0.28156  Biso   1.000  C
  H51      1.0000 0.01838  0.54918  0.38078  Biso   1.000  H
  C58      1.0000 0.74841  0.52419  0.16998  Biso   1.000  C
  C59      1.0000 0.74138  0.64223  0.16988  Biso   1.000  C
  N36      1.0000 0.79698  0.68259  0.13457  Biso   1.000  N
  H52      1.0000 0.70039  0.75520  0.09386  Biso   1.000  H
  H53      1.0000 0.80271  0.76508  0.07720  Biso   1.000  H
  H54      1.0000 0.80269  0.76508  0.07715  Biso   1.000  H
  C60      1.0000 0.98940  0.65800  0.28867  Biso   1.000  C
  N37      1.0000 0.81730  0.54442  0.22647  Biso   1.000  N
  H55      1.0000 0.83416  0.45350  0.27138  Biso   1.000  H
  H56      1.0000 0.85109  0.51501  0.32527  Biso   1.000  H
  O19      1.0000 0.72709  0.46522  0.15238  Biso   1.000  O
  H57      1.0000 0.68998  0.66971  0.18260  Biso   1.000  H
  H58      1.0000 0.68996  0.66971  0.18254  Biso   1.000  H
  C61      1.0000 0.81835  0.61682  0.23545  Biso   1.000  C
  C62      1.0000 0.89266  0.68903  0.17097  Biso   1.000  C
  N38      1.0000 0.90849  0.64862  0.22938  Biso   1.000  N
  H59      1.0000 0.96500  0.66651  0.32989  Biso   1.000  H
  H60      1.0000 0.96498  0.66651  0.32984  Biso   1.000  H
  H61      1.0000 0.02586  0.69871  0.28140  Biso   1.000  H
  H62      1.0000 0.02584  0.69871  0.28135  Biso   1.000  H
  H63      1.0000 0.80219  0.63031  0.27927  Biso   1.000  H
  O20      1.0000 0.95331  0.72391  0.15570  Biso   1.000  O
  O21      1.0000 0.95329  0.72391  0.15565  Biso   1.000  O
  O22      1.0000 0.16386  0.22249  0.72268  Biso   1.000  O
  C63      1.0000 0.22654  0.17939  0.73940  Biso   1.000  C
  N39      1.0000 0.30515  0.17219  0.71220  Biso   1.000  N
  N40      1.0000 0.23447  0.13143  0.79070  Biso   1.000  N
  C64      1.0000 0.33037  0.22528  0.66998  Biso   1.000  C
  C65      1.0000 0.33037  0.22533  0.66998  Biso   1.000  C
  C66      1.0000 0.37585  0.12392  0.75165  Biso   1.000  C
  C67      1.0000 0.32274  0.09269  0.80280  Biso   1.000  C
  C68      1.0000 0.16603  0.12418  0.83089  Biso   1.000  C
  C69      1.0000 0.16603  0.12423  0.83089  Biso   1.000  C
  N41      1.0000 0.32932  0.20348  0.60067  Biso   1.000  N
  N42      1.0000 0.32932  0.20353  0.60067  Biso   1.000  N
  H64      1.0000 0.28409  0.26331  0.66650  Biso   1.000  H
  H65      1.0000 0.39576  0.24262  0.69356  Biso   1.000  H
  N43      1.0000 0.39613  0.06718  0.71417  Biso   1.000  N
  N44      1.0000 0.39613  0.06723  0.71417  Biso   1.000  N
  H66      1.0000 0.43686  0.14740  0.77736  Biso   1.000  H
  N45      1.0000 0.31012  0.02251  0.77969  Biso   1.000  N
  H67      1.0000 0.36250  0.09629  0.85217  Biso   1.000  H
  H68      1.0000 0.20183  0.12372  0.88068  Biso   1.000  H
  N46      1.0000 0.10625  0.06353  0.81578  Biso   1.000  N
  H69      1.0000 0.12302  0.16444  0.82289  Biso   1.000  H
  C70      1.0000 0.26373  0.22630  0.54330  Biso   1.000  C
  C71      1.0000 0.40605  0.16672  0.58489  Biso   1.000  C
  C72      1.0000 0.45722  0.06952  0.66796  Biso   1.000  C
  C73      1.0000 0.35988  0.00852  0.73250  Biso   1.000  C
  C74      1.0000 0.29244  0.96902  0.82450  Biso   1.000  C
  C75      1.0000 0.00943  0.06789  0.78530  Biso   1.000  C
  C76      1.0000 0.13334  0.99990  0.84958  Biso   1.000  C
  N47      1.0000 0.28499  0.20033  0.48639  Biso   1.000  N
  O23      1.0000 0.19448  0.26483  0.54247  Biso   1.000  O
  C77      1.0000 0.38043  0.16971  0.50477  Biso   1.000  C
  N48      1.0000 0.40835  0.09441  0.59999  Biso   1.000  N
  H70      1.0000 0.47027  0.18842  0.60628  Biso   1.000  H
  H71      1.0000 0.48213  0.02337  0.66360  Biso   1.000  H
  H72      1.0000 0.51353  0.09908  0.68836  Biso   1.000  H
  H73      1.0000 0.48213  0.02343  0.66360  Biso   1.000  H
  H74      1.0000 0.51353  0.09913  0.68836  Biso   1.000  H
  O24      1.0000 0.36911  0.95178  0.70898  Biso   1.000  O
  N49      1.0000 0.18981  0.95710  0.81676  Biso   1.000  N
  H75      1.0000 0.32412  0.98109  0.87336  Biso   1.000  H
  H76      1.0000 0.32244  0.92653  0.81375  Biso   1.000  H
  O25      1.0000 0.96585  0.11911  0.75690  Biso   1.000  O
  N50      1.0000 0.96744  0.00659  0.79179  Biso   1.000  N
  C78      1.0000 0.03594  0.96050  0.83660  Biso   1.000  C
  H77      1.0000 0.16514  0.00578  0.90025  Biso   1.000  H
  H78      1.0000 0.16514  0.00583  0.90025  Biso   1.000  H
  C79      1.0000 0.24656  0.23111  0.41947  Biso   1.000  C
  N51      1.0000 0.37914  0.09938  0.48489  Biso   1.000  N
  N52      1.0000 0.37914  0.09943  0.48489  Biso   1.000  N
  H79      1.0000 0.42856  0.19679  0.48779  Biso   1.000  H
  H80      1.0000 0.42856  0.19684  0.48779  Biso   1.000  H
  C80      1.0000 0.40003  0.05623  0.54169  Biso   1.000  C
  C81      1.0000 0.14434  0.89818  0.79267  Biso   1.000  C
  C82      1.0000 0.86366  0.00101  0.78156  Biso   1.000  C
  N53      1.0000 0.05453  0.89910  0.80280  Biso   1.000  N
  H81      1.0000 0.01831  0.95082  0.88078  Biso   1.000  H
  N54      1.0000 0.20294  0.18259  0.36537  Biso   1.000  N
  H82      1.0000 0.29953  0.25520  0.40607  Biso   1.000  H
  H83      1.0000 0.19724  0.26508  0.42279  Biso   1.000  H
  H84      1.0000 0.19724  0.26514  0.42279  Biso   1.000  H
  C83      1.0000 0.38703  0.07722  0.41817  Biso   1.000  C
  O26      1.0000 0.40857  0.99478  0.53987  Biso   1.000  O
  O27      1.0000 0.40857  0.99483  0.53987  Biso   1.000  O
  O28      1.0000 0.17991  0.85149  0.76619  Biso   1.000  O
  N55      1.0000 0.81723  0.95558  0.72647  Biso   1.000  N
  H85      1.0000 0.85102  0.98499  0.82528  Biso   1.000  H
  N56      1.0000 0.81723  0.95563  0.72647  Biso   1.000  N
  H86      1.0000 0.83415  0.04650  0.77138  Biso   1.000  H
  C84      1.0000 0.98932  0.84200  0.78867  Biso   1.000  C
  C85      1.0000 0.25856  0.14218  0.33011  Biso   1.000  C
  C86      1.0000 0.25856  0.14223  0.33011  Biso   1.000  C
  C87      1.0000 0.10726  0.18898  0.32897  Biso   1.000  C
  C88      1.0000 0.10726  0.18903  0.32897  Biso   1.000  C
  N57      1.0000 0.29685  0.08062  0.36396  Biso   1.000  N
  H87      1.0000 0.41074  0.02981  0.42217  Biso   1.000  H
  H88      1.0000 0.43599  0.10562  0.40451  Biso   1.000  H
  C89      1.0000 0.74833  0.97581  0.66998  Biso   1.000  C
  C90      1.0000 0.81835  0.88323  0.73546  Biso   1.000  C
  N58      1.0000 0.90842  0.85138  0.72938  Biso   1.000  N
  H89      1.0000 0.96492  0.83349  0.82990  Biso   1.000  H
  H90      1.0000 0.02584  0.80129  0.78135  Biso   1.000  H
  C91      1.0000 0.18157  0.11682  0.26448  Biso   1.000  C
  H91      1.0000 0.30996  0.16971  0.31739  Biso   1.000  H
  N59      1.0000 0.09145  0.14862  0.27061  Biso   1.000  N
  O29      1.0000 0.04671  0.22386  0.34429  Biso   1.000  O
  O30      1.0000 0.04671  0.22391  0.34429  Biso   1.000  O
  C92      1.0000 0.25161  0.02419  0.33001  Biso   1.000  C
  N60      1.0000 0.70307  0.91938  0.63598  Biso   1.000  N
  N61      1.0000 0.70307  0.91943  0.63598  Biso   1.000  N
  O31      1.0000 0.72708  0.03478  0.65238  Biso   1.000  O
  O32      1.0000 0.72708  0.03483  0.65238  Biso   1.000  O
  C93      1.0000 0.74138  0.85782  0.66988  Biso   1.000  C
  H92      1.0000 0.80211  0.86969  0.77928  Biso   1.000  H
  C94      1.0000 0.89266  0.81102  0.67097  Biso   1.000  C
  N62      1.0000 0.18271  0.04442  0.27352  Biso   1.000  N
  H93      1.0000 0.19776  0.13031  0.22071  Biso   1.000  H
  C95      1.0000 0.01062  0.15800  0.21132  Biso   1.000  C
  O33      1.0000 0.27285  0.96522  0.34761  Biso   1.000  O
  C96      1.0000 0.61282  0.92283  0.58177  Biso   1.000  C
  N63      1.0000 0.79698  0.81741  0.63457  Biso   1.000  N
  H94      1.0000 0.68998  0.83029  0.68260  Biso   1.000  H
  O34      1.0000 0.95323  0.77614  0.65571  Biso   1.000  O
  C97      1.0000 0.13626  0.99899  0.21838  Biso   1.000  C
  H95      1.0000 0.03502  0.16651  0.17009  Biso   1.000  H
  N64      1.0000 0.94541  0.10090  0.19719  Biso   1.000  N
  H96      1.0000 0.97408  0.19871  0.21859  Biso   1.000  H
  N65      1.0000 0.62080  0.90062  0.51510  Biso   1.000  N
  H97      1.0000 0.58918  0.97019  0.57777  Biso   1.000  H
  H98      1.0000 0.56395  0.89438  0.59548  Biso   1.000  H
  H99      1.0000 0.56395  0.89443  0.59548  Biso   1.000  H
  C98      1.0000 0.75336  0.76889  0.58047  Biso   1.000  C
  H100     1.0000 0.14892  0.01501  0.17471  Biso   1.000  H
  N66      1.0000 0.03250  0.99341  0.20820  Biso   1.000  N
  H101     1.0000 0.16578  0.95350  0.22861  Biso   1.000  H
  C99      1.0000 0.85560  0.10182  0.20732  Biso   1.000  C
  C100     1.0000 0.96399  0.03950  0.16339  Biso   1.000  C
  C101     1.0000 0.59984  0.94382  0.45830  Biso   1.000  C
  C102     1.0000 0.61949  0.83029  0.49517  Biso   1.000  C
  N67      1.0000 0.71495  0.79972  0.51360  Biso   1.000  N
  H102     1.0000 0.70032  0.74480  0.59387  Biso   1.000  H
  H103     1.0000 0.80263  0.73492  0.57720  Biso   1.000  H
  C103     1.0000 0.99051  0.93211  0.21469  Biso   1.000  C
  O35      1.0000 0.82001  0.14851  0.23375  Biso   1.000  O
  N68      1.0000 0.81011  0.04290  0.18318  Biso   1.000  N
  H104     1.0000 0.98156  0.04918  0.11921  Biso   1.000  H
  C104     1.0000 0.86660  0.00010  0.15041  Biso   1.000  C
  H105     1.0000 0.98156  0.04923  0.11921  Biso   1.000  H
  N69      1.0000 0.59159  0.90559  0.40000  Biso   1.000  N
  O36      1.0000 0.59135  0.00522  0.46007  Biso   1.000  O
  C105     1.0000 0.59389  0.83333  0.41511  Biso   1.000  C
  H106     1.0000 0.57137  0.80321  0.51220  Biso   1.000  H
  C106     1.0000 0.73614  0.77370  0.45669  Biso   1.000  C
  N70      1.0000 0.89369  0.93652  0.18421  Biso   1.000  N
  O37      1.0000 0.03409  0.88089  0.24309  Biso   1.000  O
  C107     1.0000 0.70750  0.03098  0.17549  Biso   1.000  C
  C108     1.0000 0.70750  0.03103  0.17549  Biso   1.000  C
  H107     1.0000 0.83478  0.99422  0.09969  Biso   1.000  H
  C109     1.0000 0.54270  0.93053  0.33198  Biso   1.000  C
  N71      1.0000 0.67053  0.79652  0.39927  Biso   1.000  N
  H108     1.0000 0.52967  0.81158  0.39371  Biso   1.000  H
  H109     1.0000 0.52967  0.81163  0.39371  Biso   1.000  H
  O38      1.0000 0.80544  0.73522  0.45747  Biso   1.000  O
  C110     1.0000 0.83391  0.87582  0.16911  Biso   1.000  C
  N72      1.0000 0.68981  0.97749  0.22030  Biso   1.000  N
  H110     1.0000 0.67748  0.07352  0.18619  Biso   1.000  H
  H111     1.0000 0.67580  0.01891  0.12658  Biso   1.000  H
  N73      1.0000 0.60379  0.93282  0.28577  Biso   1.000  N
  H112     1.0000 0.51781  0.97663  0.33639  Biso   1.000  H
  H113     1.0000 0.48639  0.90092  0.31158  Biso   1.000  H
  C111     1.0000 0.66957  0.77472  0.33001  Biso   1.000  C
  H114     1.0000 0.87692  0.83562  0.17710  Biso   1.000  H
  N74      1.0000 0.76547  0.86862  0.20929  Biso   1.000  N
  H115     1.0000 0.79811  0.87633  0.11931  Biso   1.000  H
  C112     1.0000 0.64006  0.99148  0.26750  Biso   1.000  C
  C113     1.0000 0.67720  0.90731  0.19719  Biso   1.000  C
  C114     1.0000 0.64006  0.99153  0.26750  Biso   1.000  C
  C115     1.0000 0.62407  0.87613  0.24828  Biso   1.000  C
  N75      1.0000 0.69479  0.82781  0.28780  Biso   1.000  N
  H116     1.0000 0.71585  0.73669  0.33349  Biso   1.000  H
  H117     1.0000 0.60416  0.75738  0.30638  Biso   1.000  H
  H118     1.0000 0.60416  0.75743  0.30638  Biso   1.000  H
  C116     1.0000 0.77340  0.82061  0.26059  Biso   1.000  C
  O39      1.0000 0.63076  0.04822  0.29102  Biso   1.000  O
  H119     1.0000 0.63736  0.90371  0.14782  Biso   1.000  H
  H120     1.0000 0.56306  0.85260  0.22258  Biso   1.000  H
  O40      1.0000 0.83608  0.77751  0.27731  Biso   1.000  O
