data_image0
_cell_length_a       19.133
_cell_length_b       19.133
_cell_length_c       19.133
_cell_angle_alpha    90
_cell_angle_beta     90
_cell_angle_gamma    90

_symmetry_space_group_name_H-M    "P 1"
_symmetry_int_tables_number       1

loop_
  _symmetry_equiv_pos_as_xyz
  'x, y, z'

loop_
  _atom_site_label
  _atom_site_occupancy
  _atom_site_fract_x
  _atom_site_fract_y
  _atom_site_fract_z
  _atom_site_thermal_displace_type
  _atom_site_B_iso_or_equiv
  _atom_site_type_symbol
  P1       1.0000 0.51314  0.51314  0.51314  Biso   1.000  P
  O1       1.0000 0.53081  0.43459  0.51341  Biso   1.000  O
  O2       1.0000 0.55778  0.55778  0.55778  Biso   1.000  O
  O3       1.0000 0.43459  0.51341  0.53081  Biso   1.000  O
  O4       1.0000 0.51341  0.53081  0.43459  Biso   1.000  O
  C1       1.0000 0.60278  0.41138  0.52130  Biso   1.000  C
  C2       1.0000 0.41138  0.52130  0.60278  Biso   1.000  C
  C3       1.0000 0.52130  0.60278  0.41138  Biso   1.000  C
  C4       1.0000 0.62139  0.39157  0.58381  Biso   1.000  C
  C5       1.0000 0.64637  0.41567  0.46788  Biso   1.000  C
  C6       1.0000 0.39157  0.58381  0.62139  Biso   1.000  C
  C7       1.0000 0.41567  0.46788  0.64637  Biso   1.000  C
  C8       1.0000 0.58381  0.62139  0.39157  Biso   1.000  C
  C9       1.0000 0.46788  0.64637  0.41567  Biso   1.000  C
  C10      1.0000 0.69461  0.36811  0.59400  Biso   1.000  C
  H1       1.0000 0.58987  0.39231  0.62081  Biso   1.000  H
  H2       1.0000 0.63069  0.43198  0.42487  Biso   1.000  H
  C11      1.0000 0.71411  0.39638  0.47577  Biso   1.000  C
  C12      1.0000 0.36811  0.59400  0.69461  Biso   1.000  C
  H3       1.0000 0.39231  0.62081  0.58987  Biso   1.000  H
  H4       1.0000 0.43198  0.42487  0.63069  Biso   1.000  H
  C13      1.0000 0.39638  0.47577  0.71411  Biso   1.000  C
  C14      1.0000 0.59400  0.69461  0.36811  Biso   1.000  C
  H5       1.0000 0.62081  0.58987  0.39231  Biso   1.000  H
  H6       1.0000 0.42487  0.63069  0.43198  Biso   1.000  H
  C15      1.0000 0.47577  0.71411  0.39638  Biso   1.000  C
  C16      1.0000 0.73627  0.37187  0.53870  Biso   1.000  C
  H7       1.0000 0.71040  0.35159  0.63681  Biso   1.000  H
  H8       1.0000 0.74510  0.39978  0.43851  Biso   1.000  H
  C17      1.0000 0.37187  0.53870  0.73627  Biso   1.000  C
  H9       1.0000 0.35159  0.63681  0.71040  Biso   1.000  H
  H10      1.0000 0.39978  0.43851  0.74510  Biso   1.000  H
  C18      1.0000 0.53870  0.73627  0.37187  Biso   1.000  C
  H11      1.0000 0.63681  0.71040  0.35159  Biso   1.000  H
  H12      1.0000 0.43851  0.74510  0.39978  Biso   1.000  H
  C19      1.0000 0.81346  0.35238  0.54769  Biso   1.000  C
  C20      1.0000 0.35238  0.54769  0.81346  Biso   1.000  C
  C21      1.0000 0.54769  0.81346  0.35238  Biso   1.000  C
  H13      1.0000 0.84451  0.36628  0.51288  Biso   1.000  H
  N1       1.0000 0.83641  0.32112  0.59557  Biso   1.000  N
  H14      1.0000 0.36628  0.51288  0.84451  Biso   1.000  H
  N2       1.0000 0.32112  0.59557  0.83641  Biso   1.000  N
  H15      1.0000 0.51288  0.84451  0.36628  Biso   1.000  H
  N3       1.0000 0.59557  0.83641  0.32112  Biso   1.000  N
  C22      1.0000 0.90948  0.30800  0.60121  Biso   1.000  C
  C23      1.0000 0.30800  0.60121  0.90948  Biso   1.000  C
  C24      1.0000 0.60121  0.90948  0.30800  Biso   1.000  C
  H16      1.0000 0.93190  0.33461  0.56358  Biso   1.000  H
  C25      1.0000 0.93927  0.33617  0.66947  Biso   1.000  C
  C26      1.0000 0.92730  0.23269  0.58862  Biso   1.000  C
  H17      1.0000 0.33461  0.56358  0.93190  Biso   1.000  H
  C27      1.0000 0.33617  0.66947  0.93927  Biso   1.000  C
  C28      1.0000 0.23269  0.58862  0.92730  Biso   1.000  C
  H18      1.0000 0.56358  0.93190  0.33461  Biso   1.000  H
  C29      1.0000 0.66947  0.93927  0.33617  Biso   1.000  C
  C30      1.0000 0.58862  0.92730  0.23269  Biso   1.000  C
  H19      1.0000 0.91768  0.30952  0.70757  Biso   1.000  H
  N4       1.0000 0.92207  0.40710  0.68019  Biso   1.000  N
  C31      1.0000 0.01709  0.32431  0.67397  Biso   1.000  C
  H20      1.0000 0.91298  0.21952  0.54179  Biso   1.000  H
  H21      1.0000 0.90200  0.20357  0.62149  Biso   1.000  H
  C32      1.0000 0.00559  0.22020  0.59698  Biso   1.000  C
  H22      1.0000 0.30952  0.70757  0.91768  Biso   1.000  H
  N5       1.0000 0.40710  0.68019  0.92207  Biso   1.000  N
  C33      1.0000 0.32431  0.67397  0.01709  Biso   1.000  C
  H23      1.0000 0.21952  0.54179  0.91298  Biso   1.000  H
  H24      1.0000 0.20357  0.62149  0.90200  Biso   1.000  H
  C34      1.0000 0.22020  0.59698  0.00559  Biso   1.000  C
  H25      1.0000 0.70757  0.91768  0.30952  Biso   1.000  H
  N6       1.0000 0.68019  0.92207  0.40710  Biso   1.000  N
  C35      1.0000 0.67397  0.01709  0.32431  Biso   1.000  C
  H26      1.0000 0.54179  0.91298  0.21952  Biso   1.000  H
  H27      1.0000 0.62149  0.90200  0.20357  Biso   1.000  H
  C36      1.0000 0.59698  0.00559  0.22020  Biso   1.000  C
  C37      1.0000 0.87169  0.42022  0.72210  Biso   1.000  C
  H28      1.0000 0.03361  0.33711  0.72017  Biso   1.000  H
  H29      1.0000 0.04066  0.35379  0.64010  Biso   1.000  H
  C38      1.0000 0.03559  0.24518  0.65918  Biso   1.000  C
  H30      1.0000 0.01406  0.17028  0.59410  Biso   1.000  H
  H31      1.0000 0.02937  0.24199  0.55788  Biso   1.000  H
  C39      1.0000 0.42022  0.72210  0.87169  Biso   1.000  C
  H32      1.0000 0.33711  0.72017  0.03361  Biso   1.000  H
  H33      1.0000 0.35379  0.64010  0.04066  Biso   1.000  H
  C40      1.0000 0.24518  0.65918  0.03559  Biso   1.000  C
  H34      1.0000 0.17028  0.59410  0.01406  Biso   1.000  H
  H35      1.0000 0.24199  0.55788  0.02937  Biso   1.000  H
  C41      1.0000 0.72210  0.87169  0.42022  Biso   1.000  C
  H36      1.0000 0.72017  0.03361  0.33711  Biso   1.000  H
  H37      1.0000 0.64010  0.04066  0.35379  Biso   1.000  H
  C42      1.0000 0.65918  0.03559  0.24518  Biso   1.000  C
  H38      1.0000 0.59410  0.01406  0.17028  Biso   1.000  H
  H39      1.0000 0.55788  0.02937  0.24199  Biso   1.000  H
  H40      1.0000 0.84806  0.38279  0.74238  Biso   1.000  H
  C43      1.0000 0.84880  0.49271  0.73998  Biso   1.000  C
  H41      1.0000 0.08587  0.24011  0.65641  Biso   1.000  H
  H42      1.0000 0.01929  0.21680  0.69801  Biso   1.000  H
  H43      1.0000 0.38279  0.74238  0.84806  Biso   1.000  H
  C44      1.0000 0.49271  0.73998  0.84880  Biso   1.000  C
  H44      1.0000 0.24011  0.65641  0.08587  Biso   1.000  H
  H45      1.0000 0.21680  0.69801  0.01929  Biso   1.000  H
  H46      1.0000 0.74238  0.84806  0.38279  Biso   1.000  H
  C45      1.0000 0.73998  0.84880  0.49271  Biso   1.000  C
  H47      1.0000 0.65641  0.08587  0.24011  Biso   1.000  H
  H48      1.0000 0.69801  0.01929  0.21680  Biso   1.000  H
  C46      1.0000 0.78608  0.50139  0.77390  Biso   1.000  C
  C47      1.0000 0.88569  0.54889  0.72268  Biso   1.000  C
  C48      1.0000 0.50139  0.77390  0.78608  Biso   1.000  C
  C49      1.0000 0.54889  0.72268  0.88569  Biso   1.000  C
  C50      1.0000 0.77390  0.78608  0.50139  Biso   1.000  C
  C51      1.0000 0.72268  0.88569  0.54889  Biso   1.000  C
  H49      1.0000 0.75979  0.46260  0.78691  Biso   1.000  H
  C52      1.0000 0.76271  0.56609  0.78806  Biso   1.000  C
  C53      1.0000 0.86050  0.61517  0.73757  Biso   1.000  C
  H50      1.0000 0.92861  0.54377  0.70047  Biso   1.000  H
  H51      1.0000 0.46260  0.78691  0.75979  Biso   1.000  H
  C54      1.0000 0.56609  0.78806  0.76271  Biso   1.000  C
  C55      1.0000 0.61517  0.73757  0.86050  Biso   1.000  C
  H52      1.0000 0.54377  0.70047  0.92861  Biso   1.000  H
  H53      1.0000 0.78691  0.75979  0.46260  Biso   1.000  H
  C56      1.0000 0.78806  0.76271  0.56609  Biso   1.000  C
  C57      1.0000 0.73757  0.86050  0.61517  Biso   1.000  C
  H54      1.0000 0.70047  0.92861  0.54377  Biso   1.000  H
  H55      1.0000 0.72017  0.57200  0.81090  Biso   1.000  H
  C58      1.0000 0.80019  0.62191  0.76977  Biso   1.000  C
  H56      1.0000 0.88601  0.65458  0.72487  Biso   1.000  H
  H57      1.0000 0.57200  0.81090  0.72017  Biso   1.000  H
  C59      1.0000 0.62191  0.76977  0.80019  Biso   1.000  C
  H58      1.0000 0.65458  0.72487  0.88601  Biso   1.000  H
  H59      1.0000 0.81090  0.72017  0.57200  Biso   1.000  H
  C60      1.0000 0.76977  0.80019  0.62191  Biso   1.000  C
  H60      1.0000 0.72487  0.88601  0.65458  Biso   1.000  H
  O5       1.0000 0.77327  0.69001  0.78571  Biso   1.000  O
  O6       1.0000 0.69001  0.78571  0.77327  Biso   1.000  O
  O7       1.0000 0.78571  0.77327  0.69001  Biso   1.000  O
  P2       1.0000 0.72984  0.72984  0.72984  Biso   1.000  P
  O8       1.0000 0.68651  0.68651  0.68651  Biso   1.000  O
  C61      1.0000 0.65118  0.50729  0.24000  Biso   1.000  C
  C62      1.0000 0.61428  0.45111  0.22270  Biso   1.000  C
  C63      1.0000 0.71390  0.49861  0.27387  Biso   1.000  C
  C64      1.0000 0.62829  0.57978  0.22208  Biso   1.000  C
  C65      1.0000 0.63947  0.38478  0.23760  Biso   1.000  C
  H61      1.0000 0.57137  0.45618  0.20049  Biso   1.000  H
  C66      1.0000 0.73731  0.43391  0.28809  Biso   1.000  C
  H62      1.0000 0.74019  0.53740  0.28689  Biso   1.000  H
  H63      1.0000 0.65191  0.61721  0.24241  Biso   1.000  H
  N7       1.0000 0.57790  0.59290  0.18021  Biso   1.000  N
  C67      1.0000 0.69979  0.37809  0.26980  Biso   1.000  C
  H64      1.0000 0.61397  0.34537  0.22490  Biso   1.000  H
  H65      1.0000 0.77980  0.42800  0.31088  Biso   1.000  H
  C68      1.0000 0.56071  0.66377  0.16950  Biso   1.000  C
  O9       1.0000 0.72670  0.30999  0.28568  Biso   1.000  O
  C69      1.0000 0.59050  0.69200  0.10119  Biso   1.000  C
  H66      1.0000 0.58229  0.69048  0.20760  Biso   1.000  H
  C70      1.0000 0.48288  0.67569  0.17399  Biso   1.000  C
  P3       1.0000 0.77014  0.27016  0.22981  Biso   1.000  P
  H67      1.0000 0.56808  0.66539  0.06361  Biso   1.000  H
  C71      1.0000 0.57268  0.76731  0.08859  Biso   1.000  C
  N8       1.0000 0.66357  0.67888  0.09559  Biso   1.000  N
  H68      1.0000 0.46637  0.66289  0.22020  Biso   1.000  H
  H69      1.0000 0.45931  0.64621  0.14007  Biso   1.000  H
  C72      1.0000 0.46438  0.75477  0.15920  Biso   1.000  C
  O10      1.0000 0.80996  0.21429  0.27330  Biso   1.000  O
  O11      1.0000 0.81346  0.31349  0.18648  Biso   1.000  O
  O12      1.0000 0.71426  0.22668  0.18999  Biso   1.000  O
  C73      1.0000 0.49438  0.77980  0.09701  Biso   1.000  C
  H70      1.0000 0.58700  0.78048  0.04181  Biso   1.000  H
  H71      1.0000 0.59797  0.79637  0.12152  Biso   1.000  H
  C74      1.0000 0.68651  0.64757  0.04772  Biso   1.000  C
  H72      1.0000 0.41410  0.75989  0.15638  Biso   1.000  H
  H73      1.0000 0.48069  0.78320  0.19798  Biso   1.000  H
  C75      1.0000 0.87806  0.23018  0.30021  Biso   1.000  C
  C76      1.0000 0.73020  0.19981  0.12188  Biso   1.000  C
  H74      1.0000 0.48591  0.82967  0.09408  Biso   1.000  H
  H75      1.0000 0.47060  0.75801  0.05791  Biso   1.000  H
  H76      1.0000 0.65546  0.63367  0.01291  Biso   1.000  H
  C77      1.0000 0.76371  0.62808  0.03868  Biso   1.000  C
  C78      1.0000 0.93388  0.21189  0.26269  Biso   1.000  C
  C79      1.0000 0.88481  0.26237  0.36048  Biso   1.000  C
  C80      1.0000 0.71191  0.23729  0.06612  Biso   1.000  C
  C81      1.0000 0.76240  0.13950  0.11519  Biso   1.000  C
  C82      1.0000 0.80536  0.63189  0.09397  Biso   1.000  C
  C83      1.0000 0.78587  0.60356  0.97580  Biso   1.000  C
  C84      1.0000 0.99859  0.22610  0.28610  Biso   1.000  C
  H77      1.0000 0.92798  0.18910  0.22020  Biso   1.000  H
  H78      1.0000 0.84540  0.27507  0.38598  Biso   1.000  H
  C85      1.0000 0.95108  0.27727  0.38567  Biso   1.000  C
  C86      1.0000 0.72608  0.21387  0.00141  Biso   1.000  C
  H79      1.0000 0.68907  0.27978  0.07202  Biso   1.000  H
  H80      1.0000 0.77510  0.11399  0.15460  Biso   1.000  H
  C87      1.0000 0.77730  0.11431  0.04892  Biso   1.000  C
  H81      1.0000 0.78958  0.64841  0.13678  Biso   1.000  H
  C88      1.0000 0.87859  0.60837  0.08378  Biso   1.000  C
  C89      1.0000 0.85360  0.58428  0.96791  Biso   1.000  C
  H82      1.0000 0.75487  0.60017  0.93848  Biso   1.000  H
  C90      1.0000 0.00726  0.26002  0.34877  Biso   1.000  C
  H83      1.0000 0.03737  0.21309  0.25981  Biso   1.000  H
  H84      1.0000 0.95620  0.29948  0.42858  Biso   1.000  H
  C91      1.0000 0.76000  0.15120  0.99268  Biso   1.000  C
  H85      1.0000 0.71311  0.24021  0.96258  Biso   1.000  H
  H86      1.0000 0.79951  0.07139  0.04380  Biso   1.000  H
  H87      1.0000 0.91010  0.60769  0.12079  Biso   1.000  H
  C92      1.0000 0.89719  0.58862  0.02132  Biso   1.000  C
  H88      1.0000 0.86928  0.56797  0.92489  Biso   1.000  H
  C93      1.0000 0.07976  0.27790  0.37171  Biso   1.000  C
  C94      1.0000 0.77787  0.12831  0.92019  Biso   1.000  C
  O13      1.0000 0.96916  0.56541  0.01338  Biso   1.000  O
  H89      1.0000 0.11718  0.25762  0.34809  Biso   1.000  H
  N9       1.0000 0.09288  0.31981  0.42210  Biso   1.000  N
  H90      1.0000 0.75759  0.15188  0.88282  Biso   1.000  H
  N10      1.0000 0.81979  0.07788  0.90712  Biso   1.000  N
  P4       1.0000 0.98683  0.48686  0.01312  Biso   1.000  P
  C95      1.0000 0.16380  0.33048  0.43929  Biso   1.000  C
  C96      1.0000 0.83050  0.06068  0.83620  Biso   1.000  C
  O14      1.0000 0.94219  0.44217  0.05781  Biso   1.000  O
  O15      1.0000 0.98657  0.46919  0.93462  Biso   1.000  O
  O16      1.0000 0.06538  0.48659  0.03078  Biso   1.000  O
  C97      1.0000 0.19197  0.39879  0.40950  Biso   1.000  C
  H91      1.0000 0.19046  0.29237  0.41771  Biso   1.000  H
  C98      1.0000 0.17567  0.32598  0.51712  Biso   1.000  C
  C99      1.0000 0.82601  0.98291  0.82428  Biso   1.000  C
  C100     1.0000 0.89876  0.09052  0.80803  Biso   1.000  C
  H92      1.0000 0.79240  0.08232  0.80949  Biso   1.000  H
  C101     1.0000 0.97868  0.39722  0.91141  Biso   1.000  C
  C102     1.0000 0.08859  0.47870  0.10281  Biso   1.000  C
  H93      1.0000 0.16537  0.43642  0.43187  Biso   1.000  H
  C103     1.0000 0.26729  0.41138  0.42727  Biso   1.000  C
  N11      1.0000 0.17891  0.40438  0.33638  Biso   1.000  N
  H94      1.0000 0.16286  0.27978  0.53358  Biso   1.000  H
  H95      1.0000 0.14619  0.35990  0.54069  Biso   1.000  H
  C104     1.0000 0.25480  0.34077  0.53557  Biso   1.000  C
  H96      1.0000 0.77980  0.96639  0.83709  Biso   1.000  H
  H97      1.0000 0.85988  0.95929  0.85381  Biso   1.000  H
  C105     1.0000 0.84080  0.96441  0.74520  Biso   1.000  C
  H98      1.0000 0.93639  0.06810  0.83458  Biso   1.000  H
  C106     1.0000 0.91141  0.07270  0.73271  Biso   1.000  C
  N12      1.0000 0.90441  0.16359  0.82109  Biso   1.000  N
  C107     1.0000 0.91617  0.37861  0.89160  Biso   1.000  C
  C108     1.0000 0.03209  0.35358  0.91570  Biso   1.000  C
  C109     1.0000 0.10840  0.41619  0.12141  Biso   1.000  C
  C110     1.0000 0.08430  0.53212  0.14640  Biso   1.000  C
  C111     1.0000 0.27978  0.40297  0.50557  Biso   1.000  C
  H99      1.0000 0.28046  0.45821  0.41300  Biso   1.000  H
  H100     1.0000 0.29640  0.37851  0.40198  Biso   1.000  H
  C112     1.0000 0.14760  0.45231  0.31349  Biso   1.000  C
  H101     1.0000 0.25987  0.34359  0.58590  Biso   1.000  H
  H102     1.0000 0.28318  0.30199  0.51931  Biso   1.000  H
  H103     1.0000 0.84357  0.91413  0.74008  Biso   1.000  H
  H104     1.0000 0.80197  0.98071  0.71682  Biso   1.000  H
  C113     1.0000 0.90299  0.99441  0.72022  Biso   1.000  C
  H105     1.0000 0.95819  0.08702  0.71949  Biso   1.000  H
  H106     1.0000 0.87848  0.09800  0.70360  Biso   1.000  H
  C114     1.0000 0.95228  0.18648  0.85240  Biso   1.000  C
  C115     1.0000 0.90597  0.30539  0.86808  Biso   1.000  C
  H107     1.0000 0.87916  0.41008  0.89228  Biso   1.000  H
  C116     1.0000 0.02420  0.28589  0.89641  Biso   1.000  C
  H108     1.0000 0.07511  0.36931  0.93200  Biso   1.000  H
  C117     1.0000 0.13187  0.40600  0.19459  Biso   1.000  C
  H109     1.0000 0.10767  0.37919  0.08990  Biso   1.000  H
  C118     1.0000 0.10359  0.52417  0.21408  Biso   1.000  C
  H110     1.0000 0.06800  0.57508  0.13072  Biso   1.000  H
  H111     1.0000 0.32969  0.40590  0.51409  Biso   1.000  H
  H112     1.0000 0.25798  0.44212  0.52940  Biso   1.000  H
  H113     1.0000 0.13370  0.48712  0.34448  Biso   1.000  H
  C119     1.0000 0.12810  0.46130  0.23629  Biso   1.000  C
  H114     1.0000 0.90587  0.98589  0.67031  Biso   1.000  H
  H115     1.0000 0.94209  0.97057  0.74202  Biso   1.000  H
  H116     1.0000 0.98709  0.15549  0.86630  Biso   1.000  H
  C120     1.0000 0.96127  0.26368  0.87190  Biso   1.000  C
  H117     1.0000 0.86317  0.28960  0.85162  Biso   1.000  H
  H118     1.0000 0.06146  0.25490  0.89981  Biso   1.000  H
  H119     1.0000 0.14838  0.36319  0.21042  Biso   1.000  H
  H120     1.0000 0.10019  0.56149  0.24507  Biso   1.000  H
  C121     1.0000 0.50729  0.24000  0.65118  Biso   1.000  C
  C122     1.0000 0.45111  0.22270  0.61428  Biso   1.000  C
  C123     1.0000 0.49861  0.27387  0.71390  Biso   1.000  C
  C124     1.0000 0.57978  0.22208  0.62829  Biso   1.000  C
  C125     1.0000 0.38478  0.23760  0.63947  Biso   1.000  C
  H121     1.0000 0.45618  0.20049  0.57137  Biso   1.000  H
  C126     1.0000 0.43391  0.28809  0.73731  Biso   1.000  C
  H122     1.0000 0.53740  0.28689  0.74019  Biso   1.000  H
  H123     1.0000 0.61721  0.24241  0.65191  Biso   1.000  H
  N13      1.0000 0.59290  0.18021  0.57790  Biso   1.000  N
  C127     1.0000 0.37809  0.26980  0.69979  Biso   1.000  C
  H124     1.0000 0.34537  0.22490  0.61397  Biso   1.000  H
  H125     1.0000 0.42800  0.31088  0.77980  Biso   1.000  H
  C128     1.0000 0.66377  0.16950  0.56071  Biso   1.000  C
  O17      1.0000 0.30999  0.28568  0.72670  Biso   1.000  O
  C129     1.0000 0.69200  0.10119  0.59050  Biso   1.000  C
  H126     1.0000 0.69048  0.20760  0.58229  Biso   1.000  H
  C130     1.0000 0.67569  0.17399  0.48288  Biso   1.000  C
  P5       1.0000 0.27016  0.22981  0.77014  Biso   1.000  P
  H127     1.0000 0.66539  0.06361  0.56808  Biso   1.000  H
  C131     1.0000 0.76731  0.08859  0.57268  Biso   1.000  C
  N14      1.0000 0.67888  0.09559  0.66357  Biso   1.000  N
  H128     1.0000 0.66289  0.22020  0.46637  Biso   1.000  H
  H129     1.0000 0.64621  0.14007  0.45931  Biso   1.000  H
  C132     1.0000 0.75477  0.15920  0.46438  Biso   1.000  C
  O18      1.0000 0.31349  0.18648  0.81346  Biso   1.000  O
  O19      1.0000 0.22668  0.18999  0.71426  Biso   1.000  O
  O20      1.0000 0.21429  0.27330  0.80996  Biso   1.000  O
  C133     1.0000 0.77980  0.09701  0.49438  Biso   1.000  C
  H130     1.0000 0.78048  0.04181  0.58700  Biso   1.000  H
  H131     1.0000 0.79637  0.12152  0.59797  Biso   1.000  H
  C134     1.0000 0.64757  0.04772  0.68651  Biso   1.000  C
  H132     1.0000 0.75989  0.15638  0.41410  Biso   1.000  H
  H133     1.0000 0.78320  0.19798  0.48069  Biso   1.000  H
  C135     1.0000 0.19981  0.12188  0.73020  Biso   1.000  C
  C136     1.0000 0.23018  0.30021  0.87806  Biso   1.000  C
  H134     1.0000 0.82967  0.09408  0.48591  Biso   1.000  H
  H135     1.0000 0.75801  0.05791  0.47060  Biso   1.000  H
  H136     1.0000 0.63367  0.01291  0.65546  Biso   1.000  H
  C137     1.0000 0.62808  0.03868  0.76371  Biso   1.000  C
  C138     1.0000 0.23729  0.06612  0.71191  Biso   1.000  C
  C139     1.0000 0.13950  0.11519  0.76240  Biso   1.000  C
  C140     1.0000 0.21189  0.26269  0.93388  Biso   1.000  C
  C141     1.0000 0.26237  0.36048  0.88481  Biso   1.000  C
  C142     1.0000 0.63189  0.09397  0.80536  Biso   1.000  C
  C143     1.0000 0.60356  0.97580  0.78587  Biso   1.000  C
  C144     1.0000 0.21387  0.00141  0.72608  Biso   1.000  C
  H137     1.0000 0.27978  0.07202  0.68907  Biso   1.000  H
  H138     1.0000 0.11399  0.15460  0.77510  Biso   1.000  H
  C145     1.0000 0.11431  0.04892  0.77730  Biso   1.000  C
  C146     1.0000 0.22610  0.28610  0.99859  Biso   1.000  C
  H139     1.0000 0.18910  0.22020  0.92798  Biso   1.000  H
  H140     1.0000 0.27507  0.38598  0.84540  Biso   1.000  H
  C147     1.0000 0.27727  0.38567  0.95108  Biso   1.000  C
  H141     1.0000 0.64841  0.13678  0.78958  Biso   1.000  H
  C148     1.0000 0.60837  0.08378  0.87859  Biso   1.000  C
  C149     1.0000 0.58428  0.96791  0.85360  Biso   1.000  C
  H142     1.0000 0.60017  0.93848  0.75487  Biso   1.000  H
  C150     1.0000 0.15120  0.99268  0.76000  Biso   1.000  C
  H143     1.0000 0.24021  0.96258  0.71311  Biso   1.000  H
  H144     1.0000 0.07139  0.04380  0.79951  Biso   1.000  H
  C151     1.0000 0.26002  0.34877  0.00726  Biso   1.000  C
  H145     1.0000 0.21309  0.25981  0.03737  Biso   1.000  H
  H146     1.0000 0.29948  0.42858  0.95620  Biso   1.000  H
  H147     1.0000 0.60769  0.12079  0.91010  Biso   1.000  H
  C152     1.0000 0.58862  0.02132  0.89719  Biso   1.000  C
  H148     1.0000 0.56797  0.92489  0.86928  Biso   1.000  H
  C153     1.0000 0.12831  0.92019  0.77787  Biso   1.000  C
  C154     1.0000 0.27790  0.37171  0.07976  Biso   1.000  C
  O21      1.0000 0.56541  0.01338  0.96916  Biso   1.000  O
  H149     1.0000 0.15188  0.88282  0.75759  Biso   1.000  H
  N15      1.0000 0.07788  0.90712  0.81979  Biso   1.000  N
  H150     1.0000 0.25762  0.34809  0.11718  Biso   1.000  H
  N16      1.0000 0.31981  0.42210  0.09288  Biso   1.000  N
  P6       1.0000 0.48686  0.01312  0.98683  Biso   1.000  P
  C155     1.0000 0.06068  0.83620  0.83050  Biso   1.000  C
  C156     1.0000 0.33048  0.43929  0.16380  Biso   1.000  C
  O22      1.0000 0.44217  0.05781  0.94219  Biso   1.000  O
  O23      1.0000 0.46919  0.93462  0.98657  Biso   1.000  O
  O24      1.0000 0.48659  0.03078  0.06538  Biso   1.000  O
  C157     1.0000 0.98291  0.82428  0.82601  Biso   1.000  C
  C158     1.0000 0.09052  0.80803  0.89876  Biso   1.000  C
  H151     1.0000 0.08232  0.80949  0.79240  Biso   1.000  H
  C159     1.0000 0.39879  0.40950  0.19197  Biso   1.000  C
  H152     1.0000 0.29237  0.41771  0.19046  Biso   1.000  H
  C160     1.0000 0.32598  0.51712  0.17567  Biso   1.000  C
  C161     1.0000 0.39722  0.91141  0.97868  Biso   1.000  C
  C162     1.0000 0.47870  0.10281  0.08859  Biso   1.000  C
  H153     1.0000 0.96639  0.83709  0.77980  Biso   1.000  H
  H154     1.0000 0.95929  0.85381  0.85988  Biso   1.000  H
  C163     1.0000 0.96441  0.74520  0.84080  Biso   1.000  C
  H155     1.0000 0.06810  0.83458  0.93639  Biso   1.000  H
  C164     1.0000 0.07270  0.73271  0.91141  Biso   1.000  C
  N17      1.0000 0.16359  0.82109  0.90441  Biso   1.000  N
  H156     1.0000 0.43642  0.43187  0.16537  Biso   1.000  H
  C165     1.0000 0.41138  0.42727  0.26729  Biso   1.000  C
  N18      1.0000 0.40438  0.33638  0.17891  Biso   1.000  N
  H157     1.0000 0.27978  0.53358  0.16286  Biso   1.000  H
  H158     1.0000 0.35990  0.54069  0.14619  Biso   1.000  H
  C166     1.0000 0.34077  0.53557  0.25480  Biso   1.000  C
  C167     1.0000 0.37861  0.89160  0.91617  Biso   1.000  C
  C168     1.0000 0.35358  0.91570  0.03209  Biso   1.000  C
  C169     1.0000 0.41619  0.12141  0.10840  Biso   1.000  C
  C170     1.0000 0.53212  0.14640  0.08430  Biso   1.000  C
  H159     1.0000 0.91413  0.74008  0.84357  Biso   1.000  H
  H160     1.0000 0.98071  0.71682  0.80197  Biso   1.000  H
  C171     1.0000 0.99441  0.72022  0.90299  Biso   1.000  C
  H161     1.0000 0.08702  0.71949  0.95819  Biso   1.000  H
  H162     1.0000 0.09800  0.70360  0.87848  Biso   1.000  H
  C172     1.0000 0.18648  0.85240  0.95228  Biso   1.000  C
  C173     1.0000 0.40297  0.50557  0.27978  Biso   1.000  C
  H163     1.0000 0.45821  0.41300  0.28046  Biso   1.000  H
  H164     1.0000 0.37851  0.40198  0.29640  Biso   1.000  H
  C174     1.0000 0.45231  0.31349  0.14760  Biso   1.000  C
  H165     1.0000 0.34359  0.58590  0.25987  Biso   1.000  H
  H166     1.0000 0.30199  0.51931  0.28318  Biso   1.000  H
  C175     1.0000 0.30539  0.86808  0.90597  Biso   1.000  C
  H167     1.0000 0.41008  0.89228  0.87916  Biso   1.000  H
  C176     1.0000 0.28589  0.89641  0.02420  Biso   1.000  C
  H168     1.0000 0.36931  0.93200  0.07511  Biso   1.000  H
  C177     1.0000 0.40600  0.19459  0.13187  Biso   1.000  C
  H169     1.0000 0.37919  0.08990  0.10767  Biso   1.000  H
  C178     1.0000 0.52417  0.21408  0.10359  Biso   1.000  C
  H170     1.0000 0.57508  0.13072  0.06800  Biso   1.000  H
  H171     1.0000 0.98589  0.67031  0.90587  Biso   1.000  H
  H172     1.0000 0.97057  0.74202  0.94209  Biso   1.000  H
  H173     1.0000 0.15549  0.86630  0.98709  Biso   1.000  H
  C179     1.0000 0.26368  0.87190  0.96127  Biso   1.000  C
  H174     1.0000 0.40590  0.51409  0.32969  Biso   1.000  H
  H175     1.0000 0.44212  0.52940  0.25798  Biso   1.000  H
  H176     1.0000 0.48712  0.34448  0.13370  Biso   1.000  H
  C180     1.0000 0.46130  0.23629  0.12810  Biso   1.000  C
  H177     1.0000 0.28960  0.85162  0.86317  Biso   1.000  H
  H178     1.0000 0.25490  0.89981  0.06146  Biso   1.000  H
  H179     1.0000 0.36319  0.21042  0.14838  Biso   1.000  H
  H180     1.0000 0.56149  0.24507  0.10019  Biso   1.000  H
  C181     1.0000 0.24000  0.65118  0.50729  Biso   1.000  C
  C182     1.0000 0.22270  0.61428  0.45111  Biso   1.000  C
  C183     1.0000 0.27387  0.71390  0.49861  Biso   1.000  C
  C184     1.0000 0.22208  0.62829  0.57978  Biso   1.000  C
  C185     1.0000 0.23760  0.63947  0.38478  Biso   1.000  C
  H181     1.0000 0.20049  0.57137  0.45618  Biso   1.000  H
  C186     1.0000 0.28809  0.73731  0.43391  Biso   1.000  C
  H182     1.0000 0.28689  0.74019  0.53740  Biso   1.000  H
  H183     1.0000 0.24241  0.65191  0.61721  Biso   1.000  H
  N19      1.0000 0.18021  0.57790  0.59290  Biso   1.000  N
  C187     1.0000 0.26980  0.69979  0.37809  Biso   1.000  C
  H184     1.0000 0.22490  0.61397  0.34537  Biso   1.000  H
  H185     1.0000 0.31088  0.77980  0.42800  Biso   1.000  H
  C188     1.0000 0.16950  0.56071  0.66377  Biso   1.000  C
  O25      1.0000 0.28568  0.72670  0.30999  Biso   1.000  O
  C189     1.0000 0.10119  0.59050  0.69200  Biso   1.000  C
  H186     1.0000 0.20760  0.58229  0.69048  Biso   1.000  H
  C190     1.0000 0.17399  0.48288  0.67569  Biso   1.000  C
  P7       1.0000 0.22981  0.77014  0.27016  Biso   1.000  P
  H187     1.0000 0.06361  0.56808  0.66539  Biso   1.000  H
  C191     1.0000 0.08859  0.57268  0.76731  Biso   1.000  C
  N20      1.0000 0.09559  0.66357  0.67888  Biso   1.000  N
  H188     1.0000 0.22020  0.46637  0.66289  Biso   1.000  H
  H189     1.0000 0.14007  0.45931  0.64621  Biso   1.000  H
  C192     1.0000 0.15920  0.46438  0.75477  Biso   1.000  C
  O26      1.0000 0.18999  0.71426  0.22668  Biso   1.000  O
  O27      1.0000 0.18648  0.81346  0.31349  Biso   1.000  O
  O28      1.0000 0.27330  0.80996  0.21429  Biso   1.000  O
  C193     1.0000 0.09701  0.49438  0.77980  Biso   1.000  C
  H190     1.0000 0.04181  0.58700  0.78048  Biso   1.000  H
  H191     1.0000 0.12152  0.59797  0.79637  Biso   1.000  H
  C194     1.0000 0.04772  0.68651  0.64757  Biso   1.000  C
  H192     1.0000 0.15638  0.41410  0.75989  Biso   1.000  H
  H193     1.0000 0.19798  0.48069  0.78320  Biso   1.000  H
  C195     1.0000 0.12188  0.73020  0.19981  Biso   1.000  C
  C196     1.0000 0.30021  0.87806  0.23018  Biso   1.000  C
  H194     1.0000 0.09408  0.48591  0.82967  Biso   1.000  H
  H195     1.0000 0.05791  0.47060  0.75801  Biso   1.000  H
  H196     1.0000 0.01291  0.65546  0.63367  Biso   1.000  H
  C197     1.0000 0.03868  0.76371  0.62808  Biso   1.000  C
  C198     1.0000 0.06612  0.71191  0.23729  Biso   1.000  C
  C199     1.0000 0.11519  0.76240  0.13950  Biso   1.000  C
  C200     1.0000 0.26269  0.93388  0.21189  Biso   1.000  C
  C201     1.0000 0.36048  0.88481  0.26237  Biso   1.000  C
  C202     1.0000 0.09397  0.80536  0.63189  Biso   1.000  C
  C203     1.0000 0.97580  0.78587  0.60356  Biso   1.000  C
  C204     1.0000 0.00141  0.72608  0.21387  Biso   1.000  C
  H197     1.0000 0.07202  0.68907  0.27978  Biso   1.000  H
  H198     1.0000 0.15460  0.77510  0.11399  Biso   1.000  H
  C205     1.0000 0.04892  0.77730  0.11431  Biso   1.000  C
  C206     1.0000 0.28610  0.99859  0.22610  Biso   1.000  C
  H199     1.0000 0.22020  0.92798  0.18910  Biso   1.000  H
  H200     1.0000 0.38598  0.84540  0.27507  Biso   1.000  H
  C207     1.0000 0.38567  0.95108  0.27727  Biso   1.000  C
  H201     1.0000 0.13678  0.78958  0.64841  Biso   1.000  H
  C208     1.0000 0.08378  0.87859  0.60837  Biso   1.000  C
  C209     1.0000 0.96791  0.85360  0.58428  Biso   1.000  C
  H202     1.0000 0.93848  0.75487  0.60017  Biso   1.000  H
  C210     1.0000 0.99268  0.76000  0.15120  Biso   1.000  C
  H203     1.0000 0.96258  0.71311  0.24021  Biso   1.000  H
  H204     1.0000 0.04380  0.79951  0.07139  Biso   1.000  H
  C211     1.0000 0.34877  0.00726  0.26002  Biso   1.000  C
  H205     1.0000 0.25981  0.03737  0.21309  Biso   1.000  H
  H206     1.0000 0.42858  0.95620  0.29948  Biso   1.000  H
  H207     1.0000 0.12079  0.91010  0.60769  Biso   1.000  H
  C212     1.0000 0.02132  0.89719  0.58862  Biso   1.000  C
  H208     1.0000 0.92489  0.86928  0.56797  Biso   1.000  H
  C213     1.0000 0.92019  0.77787  0.12831  Biso   1.000  C
  C214     1.0000 0.37171  0.07976  0.27790  Biso   1.000  C
  O29      1.0000 0.01338  0.96916  0.56541  Biso   1.000  O
  H209     1.0000 0.88282  0.75759  0.15188  Biso   1.000  H
  N21      1.0000 0.90712  0.81979  0.07788  Biso   1.000  N
  H210     1.0000 0.34809  0.11718  0.25762  Biso   1.000  H
  N22      1.0000 0.42210  0.09288  0.31981  Biso   1.000  N
  P8       1.0000 0.01312  0.98683  0.48686  Biso   1.000  P
  C215     1.0000 0.83620  0.83050  0.06068  Biso   1.000  C
  C216     1.0000 0.43929  0.16380  0.33048  Biso   1.000  C
  O30      1.0000 0.05781  0.94219  0.44217  Biso   1.000  O
  O31      1.0000 0.93462  0.98657  0.46919  Biso   1.000  O
  O32      1.0000 0.03078  0.06538  0.48659  Biso   1.000  O
  C217     1.0000 0.82428  0.82601  0.98291  Biso   1.000  C
  C218     1.0000 0.80803  0.89876  0.09052  Biso   1.000  C
  H211     1.0000 0.80949  0.79240  0.08232  Biso   1.000  H
  C219     1.0000 0.40950  0.19197  0.39879  Biso   1.000  C
  H212     1.0000 0.41771  0.19046  0.29237  Biso   1.000  H
  C220     1.0000 0.51712  0.17567  0.32598  Biso   1.000  C
  C221     1.0000 0.91141  0.97868  0.39722  Biso   1.000  C
  C222     1.0000 0.10281  0.08859  0.47870  Biso   1.000  C
  H213     1.0000 0.83709  0.77980  0.96639  Biso   1.000  H
  H214     1.0000 0.85381  0.85988  0.95929  Biso   1.000  H
  C223     1.0000 0.74520  0.84080  0.96441  Biso   1.000  C
  H215     1.0000 0.83458  0.93639  0.06810  Biso   1.000  H
  C224     1.0000 0.73271  0.91141  0.07270  Biso   1.000  C
  N23      1.0000 0.82109  0.90441  0.16359  Biso   1.000  N
  H216     1.0000 0.43187  0.16537  0.43642  Biso   1.000  H
  C225     1.0000 0.42727  0.26729  0.41138  Biso   1.000  C
  N24      1.0000 0.33638  0.17891  0.40438  Biso   1.000  N
  H217     1.0000 0.53358  0.16286  0.27978  Biso   1.000  H
  H218     1.0000 0.54069  0.14619  0.35990  Biso   1.000  H
  C226     1.0000 0.53557  0.25480  0.34077  Biso   1.000  C
  C227     1.0000 0.89160  0.91617  0.37861  Biso   1.000  C
  C228     1.0000 0.91570  0.03209  0.35358  Biso   1.000  C
  C229     1.0000 0.12141  0.10840  0.41619  Biso   1.000  C
  C230     1.0000 0.14640  0.08430  0.53212  Biso   1.000  C
  H219     1.0000 0.74008  0.84357  0.91413  Biso   1.000  H
  H220     1.0000 0.71682  0.80197  0.98071  Biso   1.000  H
  C231     1.0000 0.72022  0.90299  0.99441  Biso   1.000  C
  H221     1.0000 0.71949  0.95819  0.08702  Biso   1.000  H
  H222     1.0000 0.70360  0.87848  0.09800  Biso   1.000  H
  C232     1.0000 0.85240  0.95228  0.18648  Biso   1.000  C
  C233     1.0000 0.50557  0.27978  0.40297  Biso   1.000  C
  H223     1.0000 0.41300  0.28046  0.45821  Biso   1.000  H
  H224     1.0000 0.40198  0.29640  0.37851  Biso   1.000  H
  C234     1.0000 0.31349  0.14760  0.45231  Biso   1.000  C
  H225     1.0000 0.58590  0.25987  0.34359  Biso   1.000  H
  H226     1.0000 0.51931  0.28318  0.30199  Biso   1.000  H
  C235     1.0000 0.86808  0.90597  0.30539  Biso   1.000  C
  H227     1.0000 0.89228  0.87916  0.41008  Biso   1.000  H
  C236     1.0000 0.89641  0.02420  0.28589  Biso   1.000  C
  H228     1.0000 0.93200  0.07511  0.36931  Biso   1.000  H
  C237     1.0000 0.19459  0.13187  0.40600  Biso   1.000  C
  H229     1.0000 0.08990  0.10767  0.37919  Biso   1.000  H
  C238     1.0000 0.21408  0.10359  0.52417  Biso   1.000  C
  H230     1.0000 0.13072  0.06800  0.57508  Biso   1.000  H
  H231     1.0000 0.67031  0.90587  0.98589  Biso   1.000  H
  H232     1.0000 0.74202  0.94209  0.97057  Biso   1.000  H
  H233     1.0000 0.86630  0.98709  0.15549  Biso   1.000  H
  C239     1.0000 0.87190  0.96127  0.26368  Biso   1.000  C
  H234     1.0000 0.51409  0.32969  0.40590  Biso   1.000  H
  H235     1.0000 0.52940  0.25798  0.44212  Biso   1.000  H
  H236     1.0000 0.34448  0.13370  0.48712  Biso   1.000  H
  C240     1.0000 0.23629  0.12810  0.46130  Biso   1.000  C
  H237     1.0000 0.85162  0.86317  0.28960  Biso   1.000  H
  H238     1.0000 0.89981  0.06146  0.25490  Biso   1.000  H
  H239     1.0000 0.21042  0.14838  0.36319  Biso   1.000  H
  H240     1.0000 0.24507  0.10019  0.56149  Biso   1.000  H
