data_image0
_cell_length_a       11.259
_cell_length_b       13.592
_cell_length_c       18.579
_cell_angle_alpha    84.23
_cell_angle_beta     83.3
_cell_angle_gamma    68.64

_symmetry_space_group_name_H-M    "P 1"
_symmetry_int_tables_number       1

loop_
  _symmetry_equiv_pos_as_xyz
  'x, y, z'

loop_
  _atom_site_label
  _atom_site_occupancy
  _atom_site_fract_x
  _atom_site_fract_y
  _atom_site_fract_z
  _atom_site_thermal_displace_type
  _atom_site_B_iso_or_equiv
  _atom_site_type_symbol
  C1       1.0000 0.33141  0.48144  0.29860  Biso   1.000  C
  N1       1.0000 0.24807  0.43474  0.27020  Biso   1.000  N
  C2       1.0000 0.46999  0.42557  0.27200  Biso   1.000  C
  H1       1.0000 0.30489  0.55749  0.28248  Biso   1.000  H
  H2       1.0000 0.32192  0.47566  0.35231  Biso   1.000  H
  C3       1.0000 0.12542  0.45966  0.31478  Biso   1.000  C
  C4       1.0000 0.22861  0.47157  0.19402  Biso   1.000  C
  N2       1.0000 0.52009  0.31797  0.30919  Biso   1.000  N
  H3       1.0000 0.52161  0.46725  0.28188  Biso   1.000  H
  H4       1.0000 0.47732  0.41946  0.21878  Biso   1.000  H
  C5       1.0000 0.13420  0.38399  0.38109  Biso   1.000  C
  H5       1.0000 0.09813  0.53264  0.33042  Biso   1.000  H
  H6       1.0000 0.05957  0.45637  0.28508  Biso   1.000  H
  C6       1.0000 0.25027  0.37891  0.14737  Biso   1.000  C
  H7       1.0000 0.14029  0.52284  0.19060  Biso   1.000  H
  H8       1.0000 0.28858  0.50820  0.17528  Biso   1.000  H
  C7       1.0000 0.65249  0.25277  0.27922  Biso   1.000  C
  H9       1.0000 0.52127  0.32465  0.35790  Biso   1.000  H
  H10      1.0000 0.46537  0.28299  0.30468  Biso   1.000  H
  N3       1.0000 0.16827  0.27206  0.36197  Biso   1.000  N
  H11      1.0000 0.05104  0.40625  0.41068  Biso   1.000  H
  H12      1.0000 0.19975  0.38776  0.41079  Biso   1.000  H
  N4       1.0000 0.22618  0.42026  0.07103  Biso   1.000  N
  H13      1.0000 0.19154  0.34115  0.16632  Biso   1.000  H
  H14      1.0000 0.33925  0.32841  0.14927  Biso   1.000  H
  C8       1.0000 0.72015  0.16511  0.33330  Biso   1.000  C
  H15      1.0000 0.64668  0.22156  0.23442  Biso   1.000  H
  H16      1.0000 0.70303  0.29907  0.26619  Biso   1.000  H
  C9       1.0000 0.07381  0.25545  0.32081  Biso   1.000  C
  H17      1.0000 0.17709  0.22925  0.40422  Biso   1.000  H
  H18      1.0000 0.24627  0.25145  0.33509  Biso   1.000  H
  C10      1.0000 0.27613  0.33982  0.01510  Biso   1.000  C
  H19      1.0000 0.13925  0.45279  0.06858  Biso   1.000  H
  H20      1.0000 0.26239  0.47110  0.05930  Biso   1.000  H
  C11      1.0000 0.77650  0.18525  0.38950  Biso   1.000  C
  N5       1.0000 0.72811  0.06609  0.32250  Biso   1.000  N
  C12      1.0000 0.09601  0.14035  0.31381  Biso   1.000  C
  H21      1.0000 0.07626  0.29060  0.27162  Biso   1.000  H
  H22      1.0000 0.98715  0.28980  0.34508  Biso   1.000  H
  C13      1.0000 0.22366  0.25272  0.02938  Biso   1.000  C
  H23      1.0000 0.37065  0.30910  0.01412  Biso   1.000  H
  H24      1.0000 0.25390  0.37536  0.96682  Biso   1.000  H
  C14      1.0000 0.84273  0.10427  0.43620  Biso   1.000  C
  H25      1.0000 0.76931  0.25577  0.39591  Biso   1.000  H
  C15      1.0000 0.79319  0.98738  0.36767  Biso   1.000  C
  C16      1.0000 0.02514  0.11472  0.26667  Biso   1.000  C
  N6       1.0000 0.18188  0.06748  0.35388  Biso   1.000  N
  N7       1.0000 0.28642  0.17051  0.07570  Biso   1.000  N
  C17      1.0000 0.11484  0.25641  0.99940  Biso   1.000  C
  C18      1.0000 0.85074  0.00346  0.42599  Biso   1.000  C
  H26      1.0000 0.88228  0.11766  0.47470  Biso   1.000  H
  C19      1.0000 0.80507  0.87670  0.35480  Biso   1.000  C
  C20      1.0000 0.03694  0.01157  0.26472  Biso   1.000  C
  H27      1.0000 0.96965  0.16828  0.23648  Biso   1.000  H
  C21      1.0000 0.19712  0.96482  0.35008  Biso   1.000  C
  C22      1.0000 0.23854  0.09398  0.09182  Biso   1.000  C
  C23      1.0000 0.06795  0.17577  0.01558  Biso   1.000  C
  H28      1.0000 0.07249  0.31478  0.96747  Biso   1.000  H
  H29      1.0000 0.89460  0.94572  0.45781  Biso   1.000  H
  N8       1.0000 0.75729  0.86880  0.28563  Biso   1.000  N
  H30      1.0000 0.75681  0.85056  0.39531  Biso   1.000  H
  H31      1.0000 0.89618  0.83024  0.35491  Biso   1.000  H
  H32      1.0000 0.98731  0.99236  0.23469  Biso   1.000  H
  C24      1.0000 0.12327  0.93506  0.30751  Biso   1.000  C
  C25      1.0000 0.29436  0.88268  0.39472  Biso   1.000  C
  C26      1.0000 0.30712  0.01051  0.14770  Biso   1.000  C
  C27      1.0000 0.13193  0.09128  0.06261  Biso   1.000  C
  H33      1.0000 0.99359  0.17763  0.99528  Biso   1.000  H
  C28      1.0000 0.78989  0.75564  0.27047  Biso   1.000  C
  H34      1.0000 0.66991  0.90287  0.28801  Biso   1.000  H
  H35      1.0000 0.79322  0.90160  0.24832  Biso   1.000  H
  H36      1.0000 0.13159  0.86291  0.30778  Biso   1.000  H
  N9       1.0000 0.41785  0.83019  0.35111  Biso   1.000  N
  H37      1.0000 0.25886  0.82829  0.41589  Biso   1.000  H
  H38      1.0000 0.31078  0.91666  0.43528  Biso   1.000  H
  N10      1.0000 0.44434  0.99668  0.14422  Biso   1.000  N
  H39      1.0000 0.26619  0.03098  0.19679  Biso   1.000  H
  H40      1.0000 0.29941  0.94238  0.13939  Biso   1.000  H
  H41      1.0000 0.10327  0.03343  0.07418  Biso   1.000  H
  C29      1.0000 0.73183  0.74612  0.20352  Biso   1.000  C
  H42      1.0000 0.88410  0.72071  0.26369  Biso   1.000  H
  H43      1.0000 0.75789  0.71883  0.31272  Biso   1.000  H
  C30      1.0000 0.41561  0.75647  0.29860  Biso   1.000  C
  H44      1.0000 0.47860  0.79372  0.38272  Biso   1.000  H
  H45      1.0000 0.44341  0.88201  0.32608  Biso   1.000  H
  C31      1.0000 0.53189  0.90579  0.10328  Biso   1.000  C
  H46      1.0000 0.45434  0.05756  0.12299  Biso   1.000  H
  H47      1.0000 0.46820  0.98808  0.19081  Biso   1.000  H
  N11      1.0000 0.59019  0.78142  0.21319  Biso   1.000  N
  H48      1.0000 0.76700  0.67139  0.19060  Biso   1.000  H
  H49      1.0000 0.75722  0.78913  0.16258  Biso   1.000  H
  C32      1.0000 0.54656  0.70448  0.25891  Biso   1.000  C
  H50      1.0000 0.38650  0.70100  0.32461  Biso   1.000  H
  H51      1.0000 0.35355  0.79553  0.26282  Biso   1.000  H
  C33      1.0000 0.53813  0.80020  0.14178  Biso   1.000  C
  H52      1.0000 0.50230  0.91080  0.05452  Biso   1.000  H
  H53      1.0000 0.61889  0.90930  0.09687  Biso   1.000  H
  H54      1.0000 0.54274  0.65050  0.22812  Biso   1.000  H
  H55      1.0000 0.60939  0.66810  0.29480  Biso   1.000  H
  H56      1.0000 0.59183  0.74262  0.11061  Biso   1.000  H
  H57      1.0000 0.45077  0.79737  0.14851  Biso   1.000  H
  C34      1.0000 0.66888  0.51846  0.70141  Biso   1.000  C
  C35      1.0000 0.53030  0.57433  0.72802  Biso   1.000  C
  H58      1.0000 0.69537  0.44249  0.71748  Biso   1.000  H
  H59      1.0000 0.67837  0.52424  0.64771  Biso   1.000  H
  N12      1.0000 0.75213  0.56516  0.72981  Biso   1.000  N
  N13      1.0000 0.48020  0.68193  0.69082  Biso   1.000  N
  H60      1.0000 0.47869  0.53266  0.71808  Biso   1.000  H
  H61      1.0000 0.52297  0.58045  0.78118  Biso   1.000  H
  C36      1.0000 0.77168  0.52833  0.80599  Biso   1.000  C
  C37      1.0000 0.87488  0.54025  0.68517  Biso   1.000  C
  C38      1.0000 0.34780  0.74713  0.72080  Biso   1.000  C
  H62      1.0000 0.47893  0.67525  0.64211  Biso   1.000  H
  H63      1.0000 0.53490  0.71699  0.69527  Biso   1.000  H
  C39      1.0000 0.75000  0.62108  0.85259  Biso   1.000  C
  H64      1.0000 0.85991  0.47706  0.80942  Biso   1.000  H
  H65      1.0000 0.71168  0.49178  0.82467  Biso   1.000  H
  C40      1.0000 0.86606  0.61599  0.61887  Biso   1.000  C
  H66      1.0000 0.90216  0.46726  0.66959  Biso   1.000  H
  H67      1.0000 0.94063  0.54353  0.71488  Biso   1.000  H
  C41      1.0000 0.28011  0.83487  0.66671  Biso   1.000  C
  H68      1.0000 0.35361  0.77834  0.76559  Biso   1.000  H
  H69      1.0000 0.29718  0.70083  0.73377  Biso   1.000  H
  N14      1.0000 0.77411  0.57964  0.92899  Biso   1.000  N
  H70      1.0000 0.80866  0.65875  0.83369  Biso   1.000  H
  H71      1.0000 0.66101  0.67157  0.85068  Biso   1.000  H
  N15      1.0000 0.83194  0.72784  0.63799  Biso   1.000  N
  H72      1.0000 0.94926  0.59365  0.58928  Biso   1.000  H
  H73      1.0000 0.80055  0.61215  0.58917  Biso   1.000  H
  C42      1.0000 0.22379  0.81465  0.61051  Biso   1.000  C
  N16      1.0000 0.27209  0.93381  0.67752  Biso   1.000  N
  C43      1.0000 0.72412  0.66016  0.98492  Biso   1.000  C
  H74      1.0000 0.86093  0.54719  0.93138  Biso   1.000  H
  H75      1.0000 0.73786  0.52888  0.94072  Biso   1.000  H
  C44      1.0000 0.92648  0.74445  0.67920  Biso   1.000  C
  H76      1.0000 0.82320  0.77065  0.59579  Biso   1.000  H
  H77      1.0000 0.75393  0.74845  0.66492  Biso   1.000  H
  C45      1.0000 0.15747  0.89563  0.56381  Biso   1.000  C
  H78      1.0000 0.23098  0.74413  0.60410  Biso   1.000  H
  C46      1.0000 0.20711  0.01252  0.63228  Biso   1.000  C
  C47      1.0000 0.77660  0.74727  0.97058  Biso   1.000  C
  H79      1.0000 0.62960  0.69088  0.98590  Biso   1.000  H
  H80      1.0000 0.74630  0.62454  0.03319  Biso   1.000  H
  C48      1.0000 0.90428  0.85955  0.68621  Biso   1.000  C
  H81      1.0000 0.92400  0.70938  0.72840  Biso   1.000  H
  H82      1.0000 0.01303  0.71018  0.65487  Biso   1.000  H
  C49      1.0000 0.14946  0.99644  0.57402  Biso   1.000  C
  H83      1.0000 0.11801  0.88224  0.52531  Biso   1.000  H
  C50      1.0000 0.19509  0.12328  0.64521  Biso   1.000  C
  N17      1.0000 0.71384  0.82947  0.92432  Biso   1.000  N
  C51      1.0000 0.88542  0.74357  0.00061  Biso   1.000  C
  C52      1.0000 0.97513  0.88526  0.73329  Biso   1.000  C
  N18      1.0000 0.81841  0.93242  0.64608  Biso   1.000  N
  H84      1.0000 0.10556  0.05426  0.54220  Biso   1.000  H
  N19      1.0000 0.24287  0.13117  0.71439  Biso   1.000  N
  H85      1.0000 0.24339  0.14935  0.60470  Biso   1.000  H
  H86      1.0000 0.10398  0.16974  0.64510  Biso   1.000  H
  C53      1.0000 0.76175  0.90592  0.90819  Biso   1.000  C
  C54      1.0000 0.93235  0.82414  0.98437  Biso   1.000  C
  H87      1.0000 0.92772  0.68512  0.03249  Biso   1.000  H
  C55      1.0000 0.96335  0.98833  0.73529  Biso   1.000  C
  H88      1.0000 0.03065  0.83162  0.76348  Biso   1.000  H
  C56      1.0000 0.80315  0.03517  0.64988  Biso   1.000  C
  C57      1.0000 0.21037  0.24434  0.72948  Biso   1.000  C
  H89      1.0000 0.33029  0.09703  0.71200  Biso   1.000  H
  H90      1.0000 0.20704  0.09837  0.75169  Biso   1.000  H
  C58      1.0000 0.69314  0.98947  0.85231  Biso   1.000  C
  C59      1.0000 0.86836  0.90862  0.93740  Biso   1.000  C
  H91      1.0000 0.00667  0.82236  0.00468  Biso   1.000  H
  C60      1.0000 0.87702  0.06484  0.69250  Biso   1.000  C
  H92      1.0000 0.01290  0.00755  0.76527  Biso   1.000  H
  C61      1.0000 0.70593  0.11722  0.60530  Biso   1.000  C
  C62      1.0000 0.26834  0.25386  0.79649  Biso   1.000  C
  H93      1.0000 0.11617  0.27927  0.73627  Biso   1.000  H
  H94      1.0000 0.24237  0.28114  0.68729  Biso   1.000  H
  N20      1.0000 0.55595  0.00322  0.85579  Biso   1.000  N
  H95      1.0000 0.73402  0.96893  0.80317  Biso   1.000  H
  H96      1.0000 0.70088  0.05753  0.86057  Biso   1.000  H
  H97      1.0000 0.89690  0.96656  0.92578  Biso   1.000  H
  H98      1.0000 0.86859  0.13708  0.69218  Biso   1.000  H
  N21      1.0000 0.58244  0.16971  0.64890  Biso   1.000  N
  H99      1.0000 0.74143  0.17161  0.58412  Biso   1.000  H
  H100     1.0000 0.68952  0.08325  0.56468  Biso   1.000  H
  N22      1.0000 0.41007  0.21856  0.78677  Biso   1.000  N
  H101     1.0000 0.23329  0.32851  0.80942  Biso   1.000  H
  H102     1.0000 0.24305  0.21085  0.83738  Biso   1.000  H
  C63      1.0000 0.46832  0.09412  0.89668  Biso   1.000  C
  H103     1.0000 0.54596  0.94235  0.87697  Biso   1.000  H
  H104     1.0000 0.53201  0.01182  0.80920  Biso   1.000  H
  C64      1.0000 0.58468  0.24343  0.70141  Biso   1.000  C
  H105     1.0000 0.52165  0.20626  0.61730  Biso   1.000  H
  H106     1.0000 0.55677  0.11797  0.67388  Biso   1.000  H
  C65      1.0000 0.46217  0.19971  0.85818  Biso   1.000  C
  C66      1.0000 0.45364  0.29542  0.74110  Biso   1.000  C
  H107     1.0000 0.49795  0.08918  0.94549  Biso   1.000  H
  H108     1.0000 0.38132  0.09061  0.90309  Biso   1.000  H
  H109     1.0000 0.61379  0.29890  0.67540  Biso   1.000  H
  H110     1.0000 0.64662  0.20445  0.73719  Biso   1.000  H
  H111     1.0000 0.40833  0.25736  0.88940  Biso   1.000  H
  H112     1.0000 0.54943  0.20253  0.85150  Biso   1.000  H
  H113     1.0000 0.45746  0.34940  0.77189  Biso   1.000  H
  H114     1.0000 0.39090  0.33180  0.70521  Biso   1.000  H
