data_image0
_cell_length_a       17.945
_cell_length_b       15.449
_cell_length_c       15.232
_cell_angle_alpha    103.21
_cell_angle_beta     113.26
_cell_angle_gamma    99.68

_symmetry_space_group_name_H-M    "P 1"
_symmetry_int_tables_number       1

loop_
  _symmetry_equiv_pos_as_xyz
  'x, y, z'

loop_
  _atom_site_label
  _atom_site_occupancy
  _atom_site_fract_x
  _atom_site_fract_y
  _atom_site_fract_z
  _atom_site_thermal_displace_type
  _atom_site_B_iso_or_equiv
  _atom_site_type_symbol
  C1       1.0000 0.34832  0.64425  0.20898  Biso   1.000  C
  C2       1.0000 0.31998  0.60204  0.09644  Biso   1.000  C
  H1       1.0000 0.36043  0.59645  0.24299  Biso   1.000  H
  C3       1.0000 0.27622  0.67732  0.22182  Biso   1.000  C
  O1       1.0000 0.42198  0.72225  0.25372  Biso   1.000  O
  C4       1.0000 0.23681  0.52331  0.04709  Biso   1.000  C
  H2       1.0000 0.31001  0.65150  0.06447  Biso   1.000  H
  O2       1.0000 0.38243  0.56695  0.07747  Biso   1.000  O
  C5       1.0000 0.19712  0.59502  0.17217  Biso   1.000  C
  H3       1.0000 0.26514  0.72652  0.18963  Biso   1.000  H
  O3       1.0000 0.30168  0.71437  0.32832  Biso   1.000  O
  H4       1.0000 0.44780  0.71784  0.21812  Biso   1.000  H
  O4       1.0000 0.25160  0.44907  0.08336  Biso   1.000  O
  O5       1.0000 0.17444  0.55673  0.06636  Biso   1.000  O
  H5       1.0000 0.21702  0.50158  0.97249  Biso   1.000  H
  H6       1.0000 0.37309  0.51061  0.07308  Biso   1.000  H
  H7       1.0000 0.20803  0.54662  0.20550  Biso   1.000  H
  C6       1.0000 0.12211  0.62306  0.17701  Biso   1.000  C
  C7       1.0000 0.30052  0.80595  0.36512  Biso   1.000  C
  C8       1.0000 0.23179  0.36102  0.01141  Biso   1.000  C
  H8       1.0000 0.07132  0.56834  0.14073  Biso   1.000  H
  H9       1.0000 0.13282  0.64562  0.24843  Biso   1.000  H
  O6       1.0000 0.10692  0.69323  0.13347  Biso   1.000  O
  H10      1.0000 0.29544  0.83596  0.31222  Biso   1.000  H
  C9       1.0000 0.38461  0.85815  0.45793  Biso   1.000  C
  O7       1.0000 0.23301  0.81157  0.38938  Biso   1.000  O
  C10      1.0000 0.30636  0.32167  0.05086  Biso   1.000  C
  C11      1.0000 0.14936  0.29671  0.99509  Biso   1.000  C
  H11      1.0000 0.22465  0.36991  0.94589  Biso   1.000  H
  H12      1.0000 0.08412  0.72604  0.16083  Biso   1.000  H
  H13      1.0000 0.38351  0.92295  0.48552  Biso   1.000  H
  C12      1.0000 0.39386  0.81079  0.53775  Biso   1.000  C
  O8       1.0000 0.45306  0.86257  0.43231  Biso   1.000  O
  C13      1.0000 0.23343  0.77065  0.46481  Biso   1.000  C
  C14      1.0000 0.28312  0.22440  0.97816  Biso   1.000  C
  H14      1.0000 0.31792  0.31870  0.11972  Biso   1.000  H
  O9       1.0000 0.37901  0.38023  0.05563  Biso   1.000  O
  O10      1.0000 0.13533  0.20282  0.93478  Biso   1.000  O
  H15      1.0000 0.15312  0.29624  0.06220  Biso   1.000  H
  C15      1.0000 0.07195  0.32559  0.93954  Biso   1.000  C
  H16      1.0000 0.39672  0.74616  0.51333  Biso   1.000  H
  C16      1.0000 0.31840  0.80935  0.56080  Biso   1.000  C
  O11      1.0000 0.46841  0.86425  0.62950  Biso   1.000  O
  H17      1.0000 0.44961  0.80909  0.39974  Biso   1.000  H
  H18      1.0000 0.22254  0.70217  0.43632  Biso   1.000  H
  C17      1.0000 0.16065  0.78765  0.48673  Biso   1.000  C
  C18      1.0000 0.20327  0.16368  0.97098  Biso   1.000  C
  O12      1.0000 0.35073  0.18272  0.00718  Biso   1.000  O
  H19      1.0000 0.27062  0.22926  0.90968  Biso   1.000  H
  H20      1.0000 0.41404  0.35042  0.05563  Biso   1.000  H
  H21      1.0000 0.02022  0.28018  0.92820  Biso   1.000  H
  H22      1.0000 0.07556  0.38708  0.98111  Biso   1.000  H
  O13      1.0000 0.06684  0.33009  0.84506  Biso   1.000  O
  H23      1.0000 0.32363  0.87387  0.59889  Biso   1.000  H
  O14      1.0000 0.32305  0.75184  0.62360  Biso   1.000  O
  H24      1.0000 0.47715  0.83488  0.67092  Biso   1.000  H
  H25      1.0000 0.10705  0.76228  0.42324  Biso   1.000  H
  H26      1.0000 0.15535  0.75496  0.53374  Biso   1.000  H
  O15      1.0000 0.17442  0.88547  0.53079  Biso   1.000  O
  O16      1.0000 0.22321  0.16276  0.07059  Biso   1.000  O
  H27      1.0000 0.18844  0.09930  0.92480  Biso   1.000  H
  H28      1.0000 0.35848  0.17261  0.06160  Biso   1.000  H
  H29      1.0000 0.04036  0.36796  0.82768  Biso   1.000  H
  C19      1.0000 0.31856  0.78672  0.71536  Biso   1.000  C
  H30      1.0000 0.14089  0.90443  0.48839  Biso   1.000  H
  C20      1.0000 0.20720  0.07525  0.08624  Biso   1.000  C
  H31      1.0000 0.31775  0.85280  0.72662  Biso   1.000  H
  C21      1.0000 0.39621  0.78137  0.80084  Biso   1.000  C
  O17      1.0000 0.24442  0.73310  0.71150  Biso   1.000  O
  C22      1.0000 0.28861  0.07311  0.16862  Biso   1.000  C
  C23      1.0000 0.13701  0.06818  0.12078  Biso   1.000  C
  C24      1.0000 0.39810  0.68145  0.78731  Biso   1.000  C
  H32      1.0000 0.39352  0.80690  0.86576  Biso   1.000  H
  O18      1.0000 0.47109  0.83619  0.80673  Biso   1.000  O
  C25      1.0000 0.23910  0.63676  0.69435  Biso   1.000  C
  H33      1.0000 0.30969  0.13020  0.22863  Biso   1.000  H
  O19      1.0000 0.35072  0.07242  0.13143  Biso   1.000  O
  C26      1.0000 0.27198  0.98770  0.19960  Biso   1.000  C
  C27      1.0000 0.05189  0.05658  0.03809  Biso   1.000  C
  O20      1.0000 0.12785  0.98894  0.15327  Biso   1.000  O
  C28      1.0000 0.31595  0.62546  0.78035  Biso   1.000  C
  H34      1.0000 0.40301  0.65510  0.72405  Biso   1.000  H
  O21      1.0000 0.46693  0.67561  0.87180  Biso   1.000  O
  H35      1.0000 0.49064  0.80229  0.77529  Biso   1.000  H
  H36      1.0000 0.23804  0.60878  0.62761  Biso   1.000  H
  C29      1.0000 0.15701  0.59127  0.69351  Biso   1.000  C
  H37      1.0000 0.39234  0.06000  0.17134  Biso   1.000  H
  C30      1.0000 0.20235  0.98763  0.23361  Biso   1.000  C
  H38      1.0000 0.25078  0.93169  0.13861  Biso   1.000  H
  O22      1.0000 0.34706  0.98129  0.27541  Biso   1.000  O
  H39      1.0000 0.05550  0.10700  0.00846  Biso   1.000  H
  O23      1.0000 0.99179  0.05900  0.07603  Biso   1.000  O
  H40      1.0000 0.03364  0.99674  0.98405  Biso   1.000  H
  O24      1.0000 0.31500  0.53075  0.75791  Biso   1.000  O
  H41      1.0000 0.31372  0.64757  0.84611  Biso   1.000  H
  H42      1.0000 0.50962  0.67952  0.86115  Biso   1.000  H
  O25      1.0000 0.08460  0.59617  0.60720  Biso   1.000  O
  O26      1.0000 0.16202  0.61570  0.78701  Biso   1.000  O
  O27      1.0000 0.22996  0.06802  0.31902  Biso   1.000  O
  H43      1.0000 0.19059  0.93053  0.25213  Biso   1.000  H
  H44      1.0000 0.38961  0.01265  0.27443  Biso   1.000  H
  H45      1.0000 0.96547  0.09687  0.05797  Biso   1.000  H
  C31      1.0000 0.30533  0.48402  0.82555  Biso   1.000  C
  H46      1.0000 0.04193  0.55228  0.59065  Biso   1.000  H
  H47      1.0000 0.11584  0.58837  0.78391  Biso   1.000  H
  C32      1.0000 0.23317  0.05600  0.41009  Biso   1.000  C
  C33      1.0000 0.37722  0.44049  0.85782  Biso   1.000  C
  O28      1.0000 0.22551  0.41630  0.77809  Biso   1.000  O
  H48      1.0000 0.30982  0.53046  0.88639  Biso   1.000  H
  C34      1.0000 0.32083  0.10966  0.49550  Biso   1.000  C
  C35      1.0000 0.16641  0.09196  0.43261  Biso   1.000  C
  H49      1.0000 0.22265  0.98865  0.40314  Biso   1.000  H
  C36      1.0000 0.37046  0.36916  0.76539  Biso   1.000  C
  H50      1.0000 0.36955  0.40637  0.90355  Biso   1.000  H
  O29      1.0000 0.45774  0.50767  0.91292  Biso   1.000  O
  C37      1.0000 0.21183  0.34439  0.68921  Biso   1.000  C
  C38      1.0000 0.32363  0.10107  0.59451  Biso   1.000  C
  H51      1.0000 0.33220  0.17653  0.50018  Biso   1.000  H
  O30      1.0000 0.38131  0.07336  0.47381  Biso   1.000  O
  H52      1.0000 0.17162  0.15666  0.43005  Biso   1.000  H
  C39      1.0000 0.07698  0.03043  0.35998  Biso   1.000  C
  O31      1.0000 0.17503  0.09032  0.53072  Biso   1.000  O
  C40      1.0000 0.28315  0.29778  0.71513  Biso   1.000  C
  H53      1.0000 0.37663  0.40059  0.71702  Biso   1.000  H
  O32      1.0000 0.43609  0.32666  0.79781  Biso   1.000  O
  H54      1.0000 0.46143  0.54519  0.88163  Biso   1.000  H
  H55      1.0000 0.21099  0.37247  0.63600  Biso   1.000  H
  C41      1.0000 0.12513  0.27728  0.65255  Biso   1.000  C
  C42      1.0000 0.25549  0.14013  0.61159  Biso   1.000  C
  H56      1.0000 0.31223  0.03428  0.59050  Biso   1.000  H
  O33      1.0000 0.40411  0.15308  0.67681  Biso   1.000  O
  H57      1.0000 0.43004  0.10146  0.52142  Biso   1.000  H
  H58      1.0000 0.03581  0.05972  0.37313  Biso   1.000  H
  H59      1.0000 0.06680  0.02391  0.28969  Biso   1.000  H
  O34      1.0000 0.06477  0.94046  0.37155  Biso   1.000  O
  O35      1.0000 0.27456  0.23500  0.62383  Biso   1.000  O
  H60      1.0000 0.27936  0.26246  0.76146  Biso   1.000  H
  H61      1.0000 0.42651  0.27908  0.75073  Biso   1.000  H
  H62      1.0000 0.08244  0.31196  0.64204  Biso   1.000  H
  H63      1.0000 0.10954  0.23097  0.58664  Biso   1.000  H
  O36      1.0000 0.12327  0.23028  0.72216  Biso   1.000  O
  H64      1.0000 0.25581  0.13216  0.67515  Biso   1.000  H
  H65      1.0000 0.43411  0.18147  0.65580  Biso   1.000  H
  H66      1.0000 0.02103  0.92714  0.37948  Biso   1.000  H
  H67      1.0000 0.07292  0.20118  0.70455  Biso   1.000  H
  C43      1.0000 0.64670  0.71644  0.34993  Biso   1.000  C
  C44      1.0000 0.71941  0.68901  0.33398  Biso   1.000  C
  C45      1.0000 0.67423  0.82108  0.39702  Biso   1.000  C
  H68      1.0000 0.63521  0.68684  0.39694  Biso   1.000  H
  O37      1.0000 0.57180  0.68937  0.25704  Biso   1.000  O
  O38      1.0000 0.69483  0.59022  0.29219  Biso   1.000  O
  H69      1.0000 0.73122  0.71806  0.28667  Biso   1.000  H
  C46      1.0000 0.79850  0.72092  0.43579  Biso   1.000  C
  C47      1.0000 0.75653  0.85343  0.49459  Biso   1.000  C
  H70      1.0000 0.68503  0.84883  0.34842  Biso   1.000  H
  O39      1.0000 0.61084  0.85418  0.41523  Biso   1.000  O
  H71      1.0000 0.55624  0.63126  0.23074  Biso   1.000  H
  C48      1.0000 0.69357  0.55276  0.19771  Biso   1.000  C
  H72      1.0000 0.78613  0.69196  0.48272  Biso   1.000  H
  C49      1.0000 0.87593  0.69936  0.42823  Biso   1.000  C
  O40      1.0000 0.82048  0.82098  0.47743  Biso   1.000  O
  H73      1.0000 0.77562  0.92300  0.52082  Biso   1.000  H
  O41      1.0000 0.74069  0.82001  0.56548  Biso   1.000  O
  H74      1.0000 0.63190  0.88849  0.47569  Biso   1.000  H
  C50      1.0000 0.60812  0.47975  0.12841  Biso   1.000  C
  O42      1.0000 0.76046  0.51265  0.20762  Biso   1.000  O
  H75      1.0000 0.69922  0.60334  0.16794  Biso   1.000  H
  H76      1.0000 0.92569  0.72684  0.49550  Biso   1.000  H
  H77      1.0000 0.86620  0.63123  0.40684  Biso   1.000  H
  O43      1.0000 0.89233  0.73465  0.35900  Biso   1.000  O
  C51      1.0000 0.76105  0.88637  0.66041  Biso   1.000  C
  C52      1.0000 0.60008  0.40309  0.17527  Biso   1.000  C
  H78      1.0000 0.60561  0.45242  0.06077  Biso   1.000  H
  O44      1.0000 0.54110  0.52182  0.11647  Biso   1.000  O
  C53      1.0000 0.75963  0.44001  0.25213  Biso   1.000  C
  H79      1.0000 0.84696  0.73738  0.31524  Biso   1.000  H
  C54      1.0000 0.68533  0.86358  0.68210  Biso   1.000  C
  H80      1.0000 0.77112  0.95050  0.65595  Biso   1.000  H
  C55      1.0000 0.84142  0.87819  0.74279  Biso   1.000  C
  C56      1.0000 0.67453  0.36406  0.19031  Biso   1.000  C
  H81      1.0000 0.60021  0.42921  0.24170  Biso   1.000  H
  O45      1.0000 0.52351  0.32978  0.10868  Biso   1.000  O
  H82      1.0000 0.51653  0.52084  0.05638  Biso   1.000  H
  H83      1.0000 0.76829  0.46650  0.32287  Biso   1.000  H
  C57      1.0000 0.83303  0.40304  0.25364  Biso   1.000  C
  C58      1.0000 0.70817  0.92448  0.78776  Biso   1.000  C
  H84      1.0000 0.66980  0.79657  0.67651  Biso   1.000  H
  O46      1.0000 0.61594  0.88320  0.61075  Biso   1.000  O
  H85      1.0000 0.83442  0.81141  0.73795  Biso   1.000  H
  C59      1.0000 0.92051  0.91538  0.73342  Biso   1.000  C
  O47      1.0000 0.85570  0.93096  0.84256  Biso   1.000  O
  O48      1.0000 0.66856  0.29883  0.24223  Biso   1.000  O
  H86      1.0000 0.66988  0.33101  0.12289  Biso   1.000  H
  H87      1.0000 0.50288  0.33689  0.05170  Biso   1.000  H
  H88      1.0000 0.88593  0.45525  0.28901  Biso   1.000  H
  H89      1.0000 0.83932  0.35873  0.29189  Biso   1.000  H
  O49      1.0000 0.82121  0.35711  0.15327  Biso   1.000  O
  C60      1.0000 0.78574  0.90659  0.86251  Biso   1.000  C
  O50      1.0000 0.63883  0.90312  0.81074  Biso   1.000  O
  H90      1.0000 0.57373  0.87099  0.62194  Biso   1.000  H
  H91      1.0000 0.97091  0.91456  0.79169  Biso   1.000  H
  H92      1.0000 0.91803  0.87496  0.67099  Biso   1.000  H
  O51      1.0000 0.92821  0.00736  0.73032  Biso   1.000  O
  C61      1.0000 0.67943  0.21146  0.20633  Biso   1.000  C
  H93      1.0000 0.79499  0.38350  0.11352  Biso   1.000  H
  O52      1.0000 0.76389  0.81142  0.85253  Biso   1.000  O
  H94      1.0000 0.80031  0.94457  0.93280  Biso   1.000  H
  H95      1.0000 0.63566  0.95224  0.84475  Biso   1.000  H
  H96      1.0000 0.97165  0.02656  0.72359  Biso   1.000  H
  C62      1.0000 0.60169  0.13770  0.18630  Biso   1.000  C
  H97      1.0000 0.68322  0.20575  0.14164  Biso   1.000  H
  O53      1.0000 0.75397  0.20240  0.27768  Biso   1.000  O
  C63      1.0000 0.77631  0.78551  0.93952  Biso   1.000  C
  C64      1.0000 0.59712  0.14403  0.28448  Biso   1.000  C
  H98      1.0000 0.60830  0.07539  0.15977  Biso   1.000  H
  O54      1.0000 0.52769  0.14663  0.11148  Biso   1.000  O
  C65      1.0000 0.75572  0.21182  0.37608  Biso   1.000  C
  C66      1.0000 0.69276  0.72023  0.91844  Biso   1.000  C
  C67      1.0000 0.84574  0.73588  0.95910  Biso   1.000  C
  H99      1.0000 0.79405  0.84192  0.99900  Biso   1.000  H
  O55      1.0000 0.52603  0.06939  0.26438  Biso   1.000  O
  H100     1.0000 0.58827  0.20491  0.31108  Biso   1.000  H
  C68      1.0000 0.67903  0.13684  0.36119  Biso   1.000  C
  H101     1.0000 0.53137  0.20307  0.12017  Biso   1.000  H
  H102     1.0000 0.75048  0.27445  0.40389  Biso   1.000  H
  C69      1.0000 0.84053  0.20534  0.44418  Biso   1.000  C
  C70      1.0000 0.70752  0.68253  0.00618  Biso   1.000  C
  H103     1.0000 0.67221  0.66748  0.85450  Biso   1.000  H
  O56      1.0000 0.63065  0.76923  0.90884  Biso   1.000  O
  O57      1.0000 0.85384  0.69750  0.03974  Biso   1.000  O
  H104     1.0000 0.83153  0.68500  0.89614  Biso   1.000  H
  C71      1.0000 0.93141  0.80300  0.99402  Biso   1.000  C
  H105     1.0000 0.53169  0.06044  0.31872  Biso   1.000  H
  H106     1.0000 0.68554  0.07363  0.33844  Biso   1.000  H
  O58      1.0000 0.67585  0.15226  0.45529  Biso   1.000  O
  H107     1.0000 0.84062  0.19974  0.50774  Biso   1.000  H
  H108     1.0000 0.85113  0.14908  0.41085  Biso   1.000  H
  O59      1.0000 0.90740  0.28675  0.46738  Biso   1.000  O
  C72      1.0000 0.77740  0.63479  0.02198  Biso   1.000  C
  O60      1.0000 0.63342  0.62370  0.99523  Biso   1.000  O
  H109     1.0000 0.72789  0.73704  0.06854  Biso   1.000  H
  H110     1.0000 0.63934  0.81102  0.88412  Biso   1.000  H
  H111     1.0000 0.93071  0.82903  0.94013  Biso   1.000  H
  H112     1.0000 0.97529  0.76984  0.00807  Biso   1.000  H
  O61      1.0000 0.95078  0.87511  0.08184  Biso   1.000  O
  C73      1.0000 0.68083  0.08084  0.49814  Biso   1.000  C
  H113     1.0000 0.91170  0.32946  0.51598  Biso   1.000  H
  O62      1.0000 0.75028  0.55704  0.93461  Biso   1.000  O
  H114     1.0000 0.78792  0.61313  0.08169  Biso   1.000  H
  H115     1.0000 0.61936  0.57320  0.94935  Biso   1.000  H
  H116     1.0000 0.90672  0.88975  0.07723  Biso   1.000  H
  H117     1.0000 0.67554  0.02288  0.44773  Biso   1.000  H
  C74      1.0000 0.60752  0.06446  0.52459  Biso   1.000  C
  O63      1.0000 0.75875  0.10567  0.58574  Biso   1.000  O
  C75      1.0000 0.74973  0.46939  0.94935  Biso   1.000  C
  H118     1.0000 0.61053  0.01385  0.55558  Biso   1.000  H
  C76      1.0000 0.61465  0.15189  0.60085  Biso   1.000  C
  O64      1.0000 0.52936  0.03545  0.43511  Biso   1.000  O
  C77      1.0000 0.77281  0.18888  0.66389  Biso   1.000  C
  C78      1.0000 0.66194  0.40179  0.87642  Biso   1.000  C
  C79      1.0000 0.81751  0.43339  0.92539  Biso   1.000  C
  H119     1.0000 0.76160  0.47513  0.02054  Biso   1.000  H
  H120     1.0000 0.61080  0.20284  0.57055  Biso   1.000  H
  C80      1.0000 0.69972  0.17906  0.69230  Biso   1.000  C
  O65      1.0000 0.54584  0.13216  0.62489  Biso   1.000  O
  H121     1.0000 0.49816  0.98672  0.43224  Biso   1.000  H
  H122     1.0000 0.77509  0.24216  0.63721  Biso   1.000  H
  C81      1.0000 0.85824  0.20568  0.75141  Biso   1.000  C
  C82      1.0000 0.66282  0.30580  0.88609  Biso   1.000  C
  H123     1.0000 0.64879  0.39945  0.80560  Biso   1.000  H
  O66      1.0000 0.60222  0.43409  0.90226  Biso   1.000  O
  O67      1.0000 0.81109  0.33949  0.92736  Biso   1.000  O
  H124     1.0000 0.81022  0.43587  0.85752  Biso   1.000  H
  C83      1.0000 0.90620  0.49000  0.00528  Biso   1.000  C
  H125     1.0000 0.70102  0.13124  0.72715  Biso   1.000  H
  O68      1.0000 0.70926  0.26709  0.75957  Biso   1.000  O
  H126     1.0000 0.56169  0.11647  0.67711  Biso   1.000  H
  H127     1.0000 0.90175  0.20739  0.72684  Biso   1.000  H
  H128     1.0000 0.87331  0.26684  0.80220  Biso   1.000  H
  O69      1.0000 0.85843  0.13558  0.79804  Biso   1.000  O
  C84      1.0000 0.73100  0.27529  0.86160  Biso   1.000  C
  H129     1.0000 0.67583  0.30872  0.95706  Biso   1.000  H
  O70      1.0000 0.58360  0.23870  0.81920  Biso   1.000  O
  H130     1.0000 0.55323  0.39987  0.86032  Biso   1.000  H
  H131     1.0000 0.94814  0.46858  0.98570  Biso   1.000  H
  H132     1.0000 0.91423  0.55614  0.00996  Biso   1.000  H
  O71      1.0000 0.92038  0.48071  0.10262  Biso   1.000  O
  H133     1.0000 0.87954  0.09637  0.77605  Biso   1.000  H
  H134     1.0000 0.73211  0.21315  0.87029  Biso   1.000  H
  H135     1.0000 0.55404  0.23269  0.84981  Biso   1.000  H
  H136     1.0000 0.94680  0.44124  0.11336  Biso   1.000  H
  Ne1      1.0000 0.26173  0.41831  0.40243  Biso   1.000  Ne
  He1      1.0000 0.31931  0.42379  0.42750  Biso   1.000  He
  He2      1.0000 0.19196  0.39470  0.37612  Biso   1.000  He
  Ar1      1.0000 0.29377  0.41474  0.42325  Biso   1.000  Ar
  Ne2      1.0000 0.72595  0.50334  0.59135  Biso   1.000  Ne
  He3      1.0000 0.79869  0.50361  0.61960  Biso   1.000  He
  He4      1.0000 0.67363  0.48004  0.56668  Biso   1.000  He
  Ar2      1.0000 0.68627  0.48195  0.57598  Biso   1.000  Ar
