data_image0
_cell_length_a       12.401
_cell_length_b       12.726
_cell_length_c       34.039
_cell_angle_alpha    83.66
_cell_angle_beta     83.95
_cell_angle_gamma    82.86

_symmetry_space_group_name_H-M    "P 1"
_symmetry_int_tables_number       1

loop_
  _symmetry_equiv_pos_as_xyz
  'x, y, z'

loop_
  _atom_site_label
  _atom_site_occupancy
  _atom_site_fract_x
  _atom_site_fract_y
  _atom_site_fract_z
  _atom_site_thermal_displace_type
  _atom_site_B_iso_or_equiv
  _atom_site_type_symbol
  C1       1.0000 0.74573  0.85448  0.90998  Biso   1.000  C
  C2       1.0000 0.74564  0.85447  0.91001  Biso   1.000  C
  N1       1.0000 0.77649  0.77451  0.93925  Biso   1.000  N
  N2       1.0000 0.81511  0.93098  0.90846  Biso   1.000  N
  O1       1.0000 0.67071  0.85344  0.88905  Biso   1.000  O
  C3       1.0000 0.72760  0.67492  0.94450  Biso   1.000  C
  C4       1.0000 0.87141  0.79558  0.95780  Biso   1.000  C
  C5       1.0000 0.87148  0.79557  0.95783  Biso   1.000  C
  C6       1.0000 0.87149  0.79558  0.95780  Biso   1.000  C
  C7       1.0000 0.89791  0.90298  0.93649  Biso   1.000  C
  C8       1.0000 0.80619  0.01936  0.87999  Biso   1.000  C
  N3       1.0000 0.64850  0.66612  0.97930  Biso   1.000  N
  H1       1.0000 0.69123  0.66868  0.92078  Biso   1.000  H
  H2       1.0000 0.78564  0.61548  0.94679  Biso   1.000  H
  H3       1.0000 0.69114  0.66867  0.92081  Biso   1.000  H
  N4       1.0000 0.84450  0.81600  0.99919  Biso   1.000  N
  N5       1.0000 0.84442  0.81600  0.99919  Biso   1.000  N
  C9       1.0000 0.96376  0.69796  0.95590  Biso   1.000  C
  N6       1.0000 0.88139  0.97307  0.96852  Biso   1.000  N
  N7       1.0000 0.88131  0.97307  0.96852  Biso   1.000  N
  C10      1.0000 0.01311  0.90238  0.91511  Biso   1.000  C
  C11      1.0000 0.01303  0.90238  0.91511  Biso   1.000  C
  H4       1.0000 0.76572  0.00251  0.85868  Biso   1.000  H
  H5       1.0000 0.87962  0.03220  0.86830  Biso   1.000  H
  N8       1.0000 0.75216  0.11731  0.89534  Biso   1.000  N
  H6       1.0000 0.76571  0.00250  0.85871  Biso   1.000  H
  N9       1.0000 0.75207  0.11730  0.89537  Biso   1.000  N
  N10      1.0000 0.75208  0.11731  0.89534  Biso   1.000  N
  H7       1.0000 0.76563  0.00250  0.85871  Biso   1.000  H
  H8       1.0000 0.87954  0.03220  0.86830  Biso   1.000  H
  C12      1.0000 0.53879  0.67218  0.97704  Biso   1.000  C
  C13      1.0000 0.53880  0.67219  0.97701  Biso   1.000  C
  C14      1.0000 0.67664  0.62880  0.01890  Biso   1.000  C
  C15      1.0000 0.82847  0.73432  0.03374  Biso   1.000  C
  C16      1.0000 0.84947  0.91949  0.00465  Biso   1.000  C
  H9       1.0000 0.98249  0.68343  0.92850  Biso   1.000  H
  H10      1.0000 0.93743  0.63579  0.97119  Biso   1.000  H
  H11      1.0000 0.98258  0.68335  0.92850  Biso   1.000  H
  H12      1.0000 0.93751  0.63579  0.97119  Biso   1.000  H
  H13      1.0000 0.98257  0.68343  0.92850  Biso   1.000  H
  H14      1.0000 0.02795  0.71496  0.96680  Biso   1.000  H
  H15      1.0000 0.02802  0.71504  0.96680  Biso   1.000  H
  C17      1.0000 0.91139  0.07838  0.96558  Biso   1.000  C
  H16      1.0000 0.06663  0.88376  0.93429  Biso   1.000  H
  H17      1.0000 0.02363  0.85047  0.89579  Biso   1.000  H
  H18      1.0000 0.06655  0.88376  0.93429  Biso   1.000  H
  H19      1.0000 0.02217  0.97245  0.90169  Biso   1.000  H
  H20      1.0000 0.02355  0.85047  0.89579  Biso   1.000  H
  H21      1.0000 0.02216  0.97253  0.90169  Biso   1.000  H
  C18      1.0000 0.80911  0.19500  0.91149  Biso   1.000  C
  C19      1.0000 0.64763  0.15937  0.88691  Biso   1.000  C
  C20      1.0000 0.64762  0.15936  0.88694  Biso   1.000  C
  C21      1.0000 0.64754  0.15936  0.88694  Biso   1.000  C
  O2       1.0000 0.49231  0.69247  0.94703  Biso   1.000  O
  O3       1.0000 0.49223  0.69247  0.94703  Biso   1.000  O
  N11      1.0000 0.48923  0.64624  0.01344  Biso   1.000  N
  N12      1.0000 0.48916  0.64615  0.01347  Biso   1.000  N
  C22      1.0000 0.56488  0.61232  0.04259  Biso   1.000  C
  N13      1.0000 0.71649  0.70860  0.03998  Biso   1.000  N
  O4       1.0000 0.75416  0.53269  0.01908  Biso   1.000  O
  H22      1.0000 0.87761  0.66943  0.02908  Biso   1.000  H
  H23      1.0000 0.84749  0.76101  0.05770  Biso   1.000  H
  H24      1.0000 0.87761  0.66934  0.02911  Biso   1.000  H
  H25      1.0000 0.87752  0.66942  0.02911  Biso   1.000  H
  O5       1.0000 0.83485  0.95829  0.03642  Biso   1.000  O
  H26      1.0000 0.93180  0.09157  0.99150  Biso   1.000  H
  N14      1.0000 0.82814  0.16200  0.95335  Biso   1.000  N
  H27      1.0000 0.97617  0.08261  0.94661  Biso   1.000  H
  N15      1.0000 0.82806  0.16200  0.95335  Biso   1.000  N
  C23      1.0000 0.91004  0.22330  0.88712  Biso   1.000  C
  C24      1.0000 0.71397  0.29209  0.91630  Biso   1.000  C
  C25      1.0000 0.90995  0.22330  0.88715  Biso   1.000  C
  N16      1.0000 0.62390  0.25678  0.89950  Biso   1.000  N
  O6       1.0000 0.58500  0.11458  0.87061  Biso   1.000  O
  O7       1.0000 0.58499  0.11457  0.87064  Biso   1.000  O
  C26      1.0000 0.37626  0.62386  0.02080  Biso   1.000  C
  C27      1.0000 0.37617  0.62385  0.02083  Biso   1.000  C
  C28      1.0000 0.37625  0.62394  0.02080  Biso   1.000  C
  H28      1.0000 0.56141  0.53668  0.05280  Biso   1.000  H
  N17      1.0000 0.55944  0.67763  0.07412  Biso   1.000  N
  N18      1.0000 0.55937  0.67755  0.07412  Biso   1.000  N
  C29      1.0000 0.65120  0.73147  0.07326  Biso   1.000  C
  C30      1.0000 0.76440  0.22140  0.97998  Biso   1.000  C
  N19      1.0000 0.69375  0.29499  0.95926  Biso   1.000  N
  C31      1.0000 0.74444  0.40371  0.89638  Biso   1.000  C
  C32      1.0000 0.74435  0.40371  0.89641  Biso   1.000  C
  H29      1.0000 0.89367  0.24505  0.85998  Biso   1.000  H
  H30      1.0000 0.96490  0.16196  0.88759  Biso   1.000  H
  H31      1.0000 0.93719  0.28128  0.89789  Biso   1.000  H
  H32      1.0000 0.89358  0.24504  0.86001  Biso   1.000  H
  H33      1.0000 0.89358  0.24513  0.85998  Biso   1.000  H
  C33      1.0000 0.52115  0.32496  0.89291  Biso   1.000  C
  C34      1.0000 0.52107  0.32496  0.89291  Biso   1.000  C
  H34      1.0000 0.34832  0.61728  0.99539  Biso   1.000  H
  H35      1.0000 0.34824  0.61728  0.99539  Biso   1.000  H
  H36      1.0000 0.37342  0.55559  0.03701  Biso   1.000  H
  N20      1.0000 0.30620  0.70500  0.04072  Biso   1.000  N
  H37      1.0000 0.37334  0.55559  0.03701  Biso   1.000  H
  C35      1.0000 0.47888  0.67502  0.10707  Biso   1.000  C
  O8       1.0000 0.66985  0.78422  0.09870  Biso   1.000  O
  O9       1.0000 0.77364  0.21393  0.01572  Biso   1.000  O
  C36      1.0000 0.62378  0.37604  0.97918  Biso   1.000  C
  C37      1.0000 0.62377  0.37612  0.97918  Biso   1.000  C
  H38      1.0000 0.68246  0.45716  0.90060  Biso   1.000  H
  H39      1.0000 0.76286  0.39995  0.86809  Biso   1.000  H
  H40      1.0000 0.76293  0.40003  0.86809  Biso   1.000  H
  H41      1.0000 0.80623  0.42247  0.90811  Biso   1.000  H
  H42      1.0000 0.53745  0.39860  0.88608  Biso   1.000  H
  H43      1.0000 0.49073  0.30296  0.87008  Biso   1.000  H
  H44      1.0000 0.53736  0.39859  0.88611  Biso   1.000  H
  H45      1.0000 0.49072  0.30296  0.87011  Biso   1.000  H
  N21      1.0000 0.44058  0.32243  0.92586  Biso   1.000  N
  H46      1.0000 0.49064  0.30296  0.87011  Biso   1.000  H
  C38      1.0000 0.23563  0.77857  0.02003  Biso   1.000  C
  C39      1.0000 0.28606  0.70789  0.08368  Biso   1.000  C
  C40      1.0000 0.28598  0.70788  0.08371  Biso   1.000  C
  N22      1.0000 0.37612  0.74320  0.10051  Biso   1.000  N
  H47      1.0000 0.46267  0.60138  0.11390  Biso   1.000  H
  H48      1.0000 0.50930  0.69702  0.12990  Biso   1.000  H
  H49      1.0000 0.46259  0.60138  0.11390  Biso   1.000  H
  H50      1.0000 0.62660  0.44438  0.96300  Biso   1.000  H
  N23      1.0000 0.51079  0.35382  0.98654  Biso   1.000  N
  H51      1.0000 0.65171  0.38270  0.00459  Biso   1.000  H
  C41      1.0000 0.43507  0.38766  0.95739  Biso   1.000  C
  C42      1.0000 0.34875  0.26851  0.92672  Biso   1.000  C
  O10      1.0000 0.22623  0.78613  0.98426  Biso   1.000  O
  O11      1.0000 0.22631  0.78613  0.98426  Biso   1.000  O
  N24      1.0000 0.17197  0.83798  0.04663  Biso   1.000  N
  N25      1.0000 0.17189  0.83798  0.04663  Biso   1.000  N
  C43      1.0000 0.19093  0.80498  0.08849  Biso   1.000  C
  C44      1.0000 0.25567  0.59627  0.10360  Biso   1.000  C
  C45      1.0000 0.25559  0.59627  0.10360  Biso   1.000  C
  C46      1.0000 0.35240  0.84061  0.11307  Biso   1.000  C
  C47      1.0000 0.46115  0.32779  0.02297  Biso   1.000  C
  C48      1.0000 0.32331  0.37117  0.98111  Biso   1.000  C
  H52      1.0000 0.43861  0.46329  0.94721  Biso   1.000  H
  N26      1.0000 0.28346  0.29138  0.96000  Biso   1.000  N
  O12      1.0000 0.33010  0.21576  0.90128  Biso   1.000  O
  C49      1.0000 0.08855  0.92159  0.03443  Biso   1.000  C
  C50      1.0000 0.09007  0.77668  0.11286  Biso   1.000  C
  C51      1.0000 0.08999  0.77668  0.11286  Biso   1.000  C
  N27      1.0000 0.24787  0.88267  0.10464  Biso   1.000  N
  H53      1.0000 0.19371  0.57750  0.09190  Biso   1.000  H
  H54      1.0000 0.31749  0.54281  0.09941  Biso   1.000  H
  H55      1.0000 0.31750  0.54282  0.09938  Biso   1.000  H
  H56      1.0000 0.23709  0.60003  0.13189  Biso   1.000  H
  O13      1.0000 0.41495  0.88540  0.12937  Biso   1.000  O
  N28      1.0000 0.35145  0.33386  0.02068  Biso   1.000  N
  O14      1.0000 0.50764  0.30751  0.05295  Biso   1.000  O
  O15      1.0000 0.24578  0.46728  0.98093  Biso   1.000  O
  O16      1.0000 0.24579  0.46729  0.98090  Biso   1.000  O
  C52      1.0000 0.17156  0.26565  0.96626  Biso   1.000  C
  C53      1.0000 0.17155  0.26573  0.96626  Biso   1.000  C
  C54      1.0000 0.17148  0.26565  0.96626  Biso   1.000  C
  H57      1.0000 0.06822  0.90841  0.00851  Biso   1.000  H
  H58      1.0000 0.02377  0.91737  0.05340  Biso   1.000  H
  N29      1.0000 0.11855  0.02690  0.03149  Biso   1.000  N
  N30      1.0000 0.11863  0.02690  0.03149  Biso   1.000  N
  H59      1.0000 0.10645  0.75493  0.14000  Biso   1.000  H
  H60      1.0000 0.03513  0.83802  0.11239  Biso   1.000  H
  H61      1.0000 0.06285  0.71871  0.10208  Biso   1.000  H
  H62      1.0000 0.10646  0.75485  0.14000  Biso   1.000  H
  H63      1.0000 0.06284  0.71870  0.10211  Biso   1.000  H
  H64      1.0000 0.10638  0.75485  0.14000  Biso   1.000  H
  H65      1.0000 0.06276  0.71870  0.10211  Biso   1.000  H
  C55      1.0000 0.19376  0.98062  0.11999  Biso   1.000  C
  C56      1.0000 0.27235  0.32506  0.05548  Biso   1.000  C
  C57      1.0000 0.27243  0.32505  0.05551  Biso   1.000  C
  N31      1.0000 0.15545  0.18398  0.00079  Biso   1.000  N
  N32      1.0000 0.15554  0.18398  0.00079  Biso   1.000  N
  H66      1.0000 0.12243  0.33055  0.97090  Biso   1.000  H
  H67      1.0000 0.15255  0.23897  0.94228  Biso   1.000  H
  H68      1.0000 0.15254  0.23896  0.94231  Biso   1.000  H
  H69      1.0000 0.15246  0.23896  0.94231  Biso   1.000  H
  C58      1.0000 0.15056  0.08050  0.99533  Biso   1.000  C
  C59      1.0000 0.15048  0.08050  0.99533  Biso   1.000  C
  C60      1.0000 0.10204  0.09700  0.06349  Biso   1.000  C
  C61      1.0000 0.10212  0.09700  0.06349  Biso   1.000  C
  H70      1.0000 0.23431  0.99747  0.14130  Biso   1.000  H
  H71      1.0000 0.12049  0.96778  0.13168  Biso   1.000  H
  H72      1.0000 0.12040  0.96777  0.13171  Biso   1.000  H
  H73      1.0000 0.12041  0.96778  0.13168  Biso   1.000  H
  N33      1.0000 0.18483  0.06899  0.09155  Biso   1.000  N
  N34      1.0000 0.18491  0.06899  0.09155  Biso   1.000  N
  N35      1.0000 0.22346  0.22547  0.06073  Biso   1.000  N
  H74      1.0000 0.30872  0.33130  0.07920  Biso   1.000  H
  H75      1.0000 0.21439  0.38450  0.05319  Biso   1.000  H
  H76      1.0000 0.21431  0.38450  0.05319  Biso   1.000  H
  H77      1.0000 0.30880  0.33130  0.07920  Biso   1.000  H
  C62      1.0000 0.12846  0.20440  0.04218  Biso   1.000  C
  O17      1.0000 0.16510  0.04170  0.96356  Biso   1.000  O
  C63      1.0000 0.98683  0.09760  0.08490  Biso   1.000  C
  C64      1.0000 0.25430  0.14551  0.09000  Biso   1.000  C
  C65      1.0000 0.03610  0.30201  0.04411  Biso   1.000  C
  H78      1.0000 0.93340  0.11622  0.06569  Biso   1.000  H
  H79      1.0000 0.97779  0.02746  0.09828  Biso   1.000  H
  H80      1.0000 0.97640  0.14951  0.10419  Biso   1.000  H
  H81      1.0000 0.97771  0.02745  0.09831  Biso   1.000  H
  H82      1.0000 0.97632  0.14951  0.10419  Biso   1.000  H
  H83      1.0000 0.93332  0.11622  0.06569  Biso   1.000  H
  H84      1.0000 0.97778  0.02753  0.09828  Biso   1.000  H
  O18      1.0000 0.32923  0.14662  0.11093  Biso   1.000  O
  O19      1.0000 0.32923  0.14654  0.11096  Biso   1.000  O
  O20      1.0000 0.32930  0.14662  0.11096  Biso   1.000  O
  H85      1.0000 0.97200  0.28502  0.03318  Biso   1.000  H
  H86      1.0000 0.97191  0.28501  0.03321  Biso   1.000  H
  H87      1.0000 0.01737  0.31654  0.07151  Biso   1.000  H
  H88      1.0000 0.01737  0.31663  0.07148  Biso   1.000  H
  H89      1.0000 0.06252  0.36419  0.02879  Biso   1.000  H
  O21      1.0000 0.53107  0.62501  0.75890  Biso   1.000  O
  C66      1.0000 0.62118  0.59711  0.74459  Biso   1.000  C
  N36      1.0000 0.68364  0.65131  0.71692  Biso   1.000  N
  N37      1.0000 0.68110  0.49941  0.75560  Biso   1.000  N
  C67      1.0000 0.64203  0.75799  0.70163  Biso   1.000  C
  C68      1.0000 0.79448  0.59767  0.70834  Biso   1.000  C
  C69      1.0000 0.79270  0.49229  0.73729  Biso   1.000  C
  C70      1.0000 0.64450  0.43439  0.79034  Biso   1.000  C
  N38      1.0000 0.59277  0.76321  0.66420  Biso   1.000  N
  H90      1.0000 0.58747  0.78798  0.72149  Biso   1.000  H
  H91      1.0000 0.70215  0.80240  0.69780  Biso   1.000  H
  N39      1.0000 0.80998  0.55741  0.66862  Biso   1.000  N
  C71      1.0000 0.88347  0.66779  0.71211  Biso   1.000  C
  N40      1.0000 0.81460  0.40907  0.70968  Biso   1.000  N
  C72      1.0000 0.87736  0.47747  0.76697  Biso   1.000  C
  N41      1.0000 0.61157  0.33392  0.78096  Biso   1.000  N
  H92      1.0000 0.70323  0.41879  0.80800  Biso   1.000  H
  H93      1.0000 0.58237  0.47386  0.80459  Biso   1.000  H
  C73      1.0000 0.48154  0.76598  0.66333  Biso   1.000  C
  C74      1.0000 0.65047  0.76537  0.62489  Biso   1.000  C
  C75      1.0000 0.81836  0.62190  0.63047  Biso   1.000  C
  C76      1.0000 0.82460  0.44849  0.67111  Biso   1.000  C
  H94      1.0000 0.87274  0.69452  0.73800  Biso   1.000  H
  H95      1.0000 0.95446  0.62637  0.70911  Biso   1.000  H
  H96      1.0000 0.87978  0.72728  0.69169  Biso   1.000  H
  C77      1.0000 0.84053  0.29676  0.72143  Biso   1.000  C
  H97      1.0000 0.86356  0.53461  0.78419  Biso   1.000  H
  H98      1.0000 0.87328  0.40970  0.78280  Biso   1.000  H
  H99      1.0000 0.94948  0.47882  0.75290  Biso   1.000  H
  C78      1.0000 0.50801  0.31028  0.78951  Biso   1.000  C
  C79      1.0000 0.69011  0.23952  0.77437  Biso   1.000  C
  N42      1.0000 0.45971  0.76616  0.62611  Biso   1.000  N
  O22      1.0000 0.41520  0.76931  0.69385  Biso   1.000  O
  C80      1.0000 0.55456  0.77538  0.59663  Biso   1.000  C
  N43      1.0000 0.71170  0.66398  0.61628  Biso   1.000  N
  C81      1.0000 0.72767  0.85818  0.61622  Biso   1.000  C
  H100     1.0000 0.85923  0.68160  0.63291  Biso   1.000  H
  H101     1.0000 0.85984  0.57858  0.61070  Biso   1.000  H
  O23      1.0000 0.84920  0.39570  0.64255  Biso   1.000  O
  N44      1.0000 0.74547  0.24158  0.73482  Biso   1.000  N
  H102     1.0000 0.88056  0.26306  0.69881  Biso   1.000  H
  H103     1.0000 0.88879  0.28841  0.74281  Biso   1.000  H
  N45      1.0000 0.50525  0.20361  0.78529  Biso   1.000  N
  O24      1.0000 0.42906  0.36686  0.80135  Biso   1.000  O
  C82      1.0000 0.61411  0.15069  0.77546  Biso   1.000  C
  O25      1.0000 0.76068  0.22806  0.80364  Biso   1.000  O
  C83      1.0000 0.34705  0.78619  0.61592  Biso   1.000  C
  N46      1.0000 0.58437  0.68205  0.57430  Biso   1.000  N
  C84      1.0000 0.53737  0.87867  0.56869  Biso   1.000  C
  C85      1.0000 0.67350  0.61862  0.58659  Biso   1.000  C
  H104     1.0000 0.68567  0.92550  0.62159  Biso   1.000  H
  H105     1.0000 0.78696  0.84348  0.63320  Biso   1.000  H
  H106     1.0000 0.75726  0.86200  0.58861  Biso   1.000  H
  C86      1.0000 0.71327  0.16673  0.71273  Biso   1.000  C
  C87      1.0000 0.41206  0.14711  0.79951  Biso   1.000  C
  N47      1.0000 0.63026  0.11866  0.73518  Biso   1.000  N
  O26      1.0000 0.63710  0.05600  0.79963  Biso   1.000  O
  N48      1.0000 0.30487  0.69368  0.60432  Biso   1.000  N
  H107     1.0000 0.34239  0.84312  0.59410  Biso   1.000  H
  H108     1.0000 0.30058  0.81158  0.63881  Biso   1.000  H
  C88      1.0000 0.52995  0.65312  0.54325  Biso   1.000  C
  H109     1.0000 0.51834  0.93869  0.58431  Biso   1.000  H
  H110     1.0000 0.60408  0.88836  0.55180  Biso   1.000  H
  H111     1.0000 0.47880  0.87411  0.55239  Biso   1.000  H
  O27      1.0000 0.71806  0.54029  0.57163  Biso   1.000  O
  O28      1.0000 0.75458  0.14584  0.68061  Biso   1.000  O
  N49      1.0000 0.35167  0.12449  0.76822  Biso   1.000  N
  H112     1.0000 0.36321  0.18981  0.81771  Biso   1.000  H
  H113     1.0000 0.43741  0.08003  0.81450  Biso   1.000  H
  C89      1.0000 0.58920  0.02677  0.72390  Biso   1.000  C
  C90      1.0000 0.32475  0.65719  0.56590  Biso   1.000  C
  C91      1.0000 0.22196  0.64592  0.62738  Biso   1.000  C
  N50      1.0000 0.42898  0.60217  0.55655  Biso   1.000  N
  H114     1.0000 0.51107  0.71708  0.52541  Biso   1.000  H
  H115     1.0000 0.58055  0.60402  0.52799  Biso   1.000  H
  C92      1.0000 0.26208  0.18971  0.75730  Biso   1.000  C
  C93      1.0000 0.38168  0.03328  0.74509  Biso   1.000  C
  N51      1.0000 0.47529  0.04599  0.71529  Biso   1.000  N
  H116     1.0000 0.63389  0.00300  0.70030  Biso   1.000  H
  H117     1.0000 0.59669  0.96921  0.74539  Biso   1.000  H
  C94      1.0000 0.24511  0.57105  0.56670  Biso   1.000  C
  O29      1.0000 0.29726  0.74798  0.54090  Biso   1.000  O
  N52      1.0000 0.19027  0.57022  0.60639  Biso   1.000  N
  O30      1.0000 0.17892  0.66923  0.66025  Biso   1.000  O
  C95      1.0000 0.42517  0.49646  0.55138  Biso   1.000  C
  N53      1.0000 0.22456  0.15123  0.72583  Biso   1.000  N
  O31      1.0000 0.21995  0.26852  0.77312  Biso   1.000  O
  C96      1.0000 0.28234  0.04571  0.71757  Biso   1.000  C
  C97      1.0000 0.39255  0.92891  0.77083  Biso   1.000  C
  C98      1.0000 0.44892  0.04821  0.67726  Biso   1.000  C
  N54      1.0000 0.31798  0.47517  0.55976  Biso   1.000  N
  O32      1.0000 0.16941  0.59452  0.53844  Biso   1.000  O
  C99      1.0000 0.09552  0.51645  0.61895  Biso   1.000  C
  O33      1.0000 0.50218  0.43017  0.54242  Biso   1.000  O
  C100     1.0000 0.12083  0.19580  0.71271  Biso   1.000  C
  N55      1.0000 0.33831  0.04762  0.67770  Biso   1.000  N
  C101     1.0000 0.20951  0.96011  0.72470  Biso   1.000  C
  H118     1.0000 0.41099  0.87101  0.75409  Biso   1.000  H
  H119     1.0000 0.44981  0.92867  0.78820  Biso   1.000  H
  H120     1.0000 0.32412  0.91989  0.78669  Biso   1.000  H
  O34      1.0000 0.51555  0.04322  0.64760  Biso   1.000  O
  C102     1.0000 0.28228  0.37828  0.54969  Biso   1.000  C
  N56      1.0000 0.12050  0.40337  0.63151  Biso   1.000  N
  H121     1.0000 0.05392  0.55109  0.64101  Biso   1.000  H
  H122     1.0000 0.04901  0.52431  0.59701  Biso   1.000  H
  N57      1.0000 0.12864  0.25748  0.67441  Biso   1.000  N
  H123     1.0000 0.07662  0.13780  0.71131  Biso   1.000  H
  H124     1.0000 0.08286  0.24143  0.73239  Biso   1.000  H
  C103     1.0000 0.28648  0.05279  0.64107  Biso   1.000  C
  H125     1.0000 0.17301  0.96029  0.75130  Biso   1.000  H
  H126     1.0000 0.15551  0.97221  0.70561  Biso   1.000  H
  H127     1.0000 0.25237  0.89183  0.72179  Biso   1.000  H
  H128     1.0000 0.22170  0.39671  0.53301  Biso   1.000  H
  H129     1.0000 0.34238  0.33930  0.53419  Biso   1.000  H
  N58      1.0000 0.24698  0.30939  0.58502  Biso   1.000  N
  C104     1.0000 0.13621  0.32109  0.60515  Biso   1.000  C
  C105     1.0000 0.11203  0.36731  0.67085  Biso   1.000  C
  C106     1.0000 0.13901  0.21591  0.63513  Biso   1.000  C
  N59      1.0000 0.24683  0.15956  0.62513  Biso   1.000  N
  H130     1.0000 0.33906  0.02048  0.62100  Biso   1.000  H
  H131     1.0000 0.22500  0.01012  0.64579  Biso   1.000  H
  C107     1.0000 0.30471  0.21337  0.59532  Biso   1.000  C
  C108     1.0000 0.05173  0.33060  0.57549  Biso   1.000  C
  O35      1.0000 0.09258  0.42070  0.69866  Biso   1.000  O
  C109     1.0000 0.04992  0.14689  0.63261  Biso   1.000  C
  O36      1.0000 0.39377  0.17862  0.57849  Biso   1.000  O
  H132     1.0000 0.06800  0.27271  0.55869  Biso   1.000  H
  H133     1.0000 0.05308  0.39802  0.55919  Biso   1.000  H
  H134     1.0000 0.97978  0.32718  0.58959  Biso   1.000  H
  H135     1.0000 0.05236  0.12747  0.60571  Biso   1.000  H
  H136     1.0000 0.06039  0.08300  0.65081  Biso   1.000  H
  H137     1.0000 0.97944  0.18588  0.63970  Biso   1.000  H
  C110     1.0000 0.71769  0.62170  0.45033  Biso   1.000  C
  N60      1.0000 0.68200  0.52482  0.44023  Biso   1.000  N
  H138     1.0000 0.77827  0.60327  0.46701  Biso   1.000  H
  H139     1.0000 0.65760  0.66069  0.46580  Biso   1.000  H
  N61      1.0000 0.75299  0.69060  0.41500  Biso   1.000  N
  C111     1.0000 0.75487  0.42886  0.43329  Biso   1.000  C
  C112     1.0000 0.57480  0.50353  0.44861  Biso   1.000  C
  C113     1.0000 0.86376  0.67889  0.39487  Biso   1.000  C
  C114     1.0000 0.69526  0.78662  0.40467  Biso   1.000  C
  C115     1.0000 0.67514  0.34280  0.43409  Biso   1.000  C
  N62      1.0000 0.80970  0.42977  0.39360  Biso   1.000  N
  O37      1.0000 0.83055  0.40546  0.46158  Biso   1.000  O
  N63      1.0000 0.57099  0.39782  0.44344  Biso   1.000  N
  O38      1.0000 0.49779  0.56982  0.45757  Biso   1.000  O
  N64      1.0000 0.87946  0.59661  0.36851  Biso   1.000  N
  C116     1.0000 0.86096  0.78407  0.36489  Biso   1.000  C
  C117     1.0000 0.94824  0.66939  0.42453  Biso   1.000  C
  N65      1.0000 0.75316  0.84035  0.37486  Biso   1.000  N
  O39      1.0000 0.60620  0.82136  0.42153  Biso   1.000  O
  N66      1.0000 0.69510  0.30631  0.39570  Biso   1.000  N
  O40      1.0000 0.70263  0.25201  0.45909  Biso   1.000  O
  C118     1.0000 0.77794  0.35407  0.37261  Biso   1.000  C
  C119     1.0000 0.90445  0.48353  0.38107  Biso   1.000  C
  C120     1.0000 0.47002  0.34687  0.45674  Biso   1.000  C
  C121     1.0000 0.88795  0.63268  0.32914  Biso   1.000  C
  N67      1.0000 0.87134  0.74251  0.32558  Biso   1.000  N
  C122     1.0000 0.95005  0.85310  0.36738  Biso   1.000  C
  H140     1.0000 0.93197  0.72728  0.44130  Biso   1.000  H
  H141     1.0000 0.94689  0.60197  0.44080  Biso   1.000  H
  H142     1.0000 0.02028  0.67281  0.41040  Biso   1.000  H
  C123     1.0000 0.71350  0.94720  0.35892  Biso   1.000  C
  C124     1.0000 0.65285  0.21380  0.38407  Biso   1.000  C
  O41      1.0000 0.82106  0.33076  0.33974  Biso   1.000  O
  H143     1.0000 0.94605  0.44889  0.35901  Biso   1.000  H
  H144     1.0000 0.95095  0.47567  0.40301  Biso   1.000  H
  N68      1.0000 0.41560  0.31794  0.42569  Biso   1.000  N
  H145     1.0000 0.48890  0.28291  0.47461  Biso   1.000  H
  H146     1.0000 0.41935  0.39597  0.47200  Biso   1.000  H
  O42      1.0000 0.90740  0.57929  0.30133  Biso   1.000  O
  C125     1.0000 0.87914  0.80419  0.28731  Biso   1.000  C
  H147     1.0000 0.94753  0.87251  0.39431  Biso   1.000  H
  H148     1.0000 0.93958  0.91698  0.34921  Biso   1.000  H
  H149     1.0000 0.02062  0.81411  0.36029  Biso   1.000  H
  N69      1.0000 0.66167  0.95237  0.32229  Biso   1.000  N
  H150     1.0000 0.66091  0.97951  0.37899  Biso   1.000  H
  H151     1.0000 0.77498  0.98987  0.35420  Biso   1.000  H
  N70      1.0000 0.54026  0.23383  0.37388  Biso   1.000  N
  H152     1.0000 0.65759  0.15687  0.40589  Biso   1.000  H
  H153     1.0000 0.69939  0.18840  0.36121  Biso   1.000  H
  C126     1.0000 0.44542  0.22461  0.40336  Biso   1.000  C
  C127     1.0000 0.32648  0.38137  0.41340  Biso   1.000  C
  N71      1.0000 0.77541  0.84876  0.27416  Biso   1.000  N
  H154     1.0000 0.92335  0.86218  0.28871  Biso   1.000  H
  H155     1.0000 0.91703  0.75856  0.26760  Biso   1.000  H
  C128     1.0000 0.71754  0.95428  0.28245  Biso   1.000  C
  C129     1.0000 0.55106  0.95178  0.32273  Biso   1.000  C
  C130     1.0000 0.51834  0.23401  0.33668  Biso   1.000  C
  C131     1.0000 0.34950  0.23462  0.37510  Biso   1.000  C
  C132     1.0000 0.46261  0.12132  0.43130  Biso   1.000  C
  N72      1.0000 0.28828  0.33601  0.38371  Biso   1.000  N
  O43      1.0000 0.28192  0.45970  0.42836  Biso   1.000  O
  C133     1.0000 0.73789  0.81027  0.24272  Biso   1.000  C
  C134     1.0000 0.61828  0.96670  0.25493  Biso   1.000  C
  C135     1.0000 0.79045  0.03987  0.27532  Biso   1.000  C
  N73      1.0000 0.52468  0.95400  0.28470  Biso   1.000  N
  O44      1.0000 0.48442  0.95676  0.35242  Biso   1.000  O
  N74      1.0000 0.40720  0.23677  0.33582  Biso   1.000  N
  O45      1.0000 0.58478  0.23068  0.30614  Biso   1.000  O
  C136     1.0000 0.27231  0.14181  0.38377  Biso   1.000  C
  H156     1.0000 0.48155  0.06130  0.41571  Biso   1.000  H
  H157     1.0000 0.39590  0.11163  0.44819  Biso   1.000  H
  H158     1.0000 0.52118  0.12588  0.44760  Biso   1.000  H
  C137     1.0000 0.18162  0.37809  0.36952  Biso   1.000  C
  N75      1.0000 0.64830  0.87549  0.23180  Biso   1.000  N
  O46      1.0000 0.77994  0.73147  0.22687  Biso   1.000  O
  C138     1.0000 0.60734  0.07107  0.22919  Biso   1.000  C
  H159     1.0000 0.82697  0.03970  0.24869  Biso   1.000  H
  H160     1.0000 0.84445  0.02777  0.29441  Biso   1.000  H
  H161     1.0000 0.74761  0.10816  0.27820  Biso   1.000  H
  C139     1.0000 0.41077  0.97321  0.27612  Biso   1.000  C
  C140     1.0000 0.35786  0.24200  0.29836  Biso   1.000  C
  H162     1.0000 0.31430  0.07449  0.37840  Biso   1.000  H
  H163     1.0000 0.21301  0.15651  0.36679  Biso   1.000  H
  H164     1.0000 0.24270  0.13798  0.41141  Biso   1.000  H
  N76      1.0000 0.18999  0.44257  0.33140  Biso   1.000  N
  H165     1.0000 0.14066  0.31838  0.36711  Biso   1.000  H
  H166     1.0000 0.14014  0.42141  0.38929  Biso   1.000  H
  C141     1.0000 0.58791  0.85288  0.20048  Biso   1.000  C
  H167     1.0000 0.58899  0.12898  0.24590  Biso   1.000  H
  H168     1.0000 0.55017  0.07132  0.21179  Biso   1.000  H
  H169     1.0000 0.67586  0.08010  0.21330  Biso   1.000  H
  N77      1.0000 0.36973  0.88125  0.26481  Biso   1.000  N
  H170     1.0000 0.36608  0.99699  0.29969  Biso   1.000  H
  H171     1.0000 0.40329  0.03078  0.25460  Biso   1.000  H
  N78      1.0000 0.31626  0.34868  0.28307  Biso   1.000  N
  H172     1.0000 0.41251  0.21201  0.27850  Biso   1.000  H
  H173     1.0000 0.29783  0.19759  0.30219  Biso   1.000  H
  C142     1.0000 0.20548  0.40231  0.29168  Biso   1.000  C
  C143     1.0000 0.17537  0.55150  0.32888  Biso   1.000  C
  N79      1.0000 0.49472  0.79638  0.21470  Biso   1.000  N
  H174     1.0000 0.63676  0.81017  0.18231  Biso   1.000  H
  H175     1.0000 0.56257  0.91997  0.18549  Biso   1.000  H
  C144     1.0000 0.38586  0.84930  0.22453  Biso   1.000  C
  C145     1.0000 0.28670  0.83327  0.28726  Biso   1.000  C
  C146     1.0000 0.37880  0.40288  0.25540  Biso   1.000  C
  C147     1.0000 0.20728  0.50770  0.26270  Biso   1.000  C
  C148     1.0000 0.11650  0.33220  0.28788  Biso   1.000  C
  N80      1.0000 0.18536  0.59091  0.29034  Biso   1.000  N
  O47      1.0000 0.15078  0.60429  0.35744  Biso   1.000  O
  C149     1.0000 0.49196  0.68971  0.21051  Biso   1.000  C
  C150     1.0000 0.30987  0.76047  0.22562  Biso   1.000  C
  O48      1.0000 0.36288  0.94399  0.20036  Biso   1.000  O
  N81      1.0000 0.25449  0.75840  0.26520  Biso   1.000  N
  O49      1.0000 0.24539  0.85415  0.31938  Biso   1.000  O
  N82      1.0000 0.31888  0.50058  0.24439  Biso   1.000  N
  O50      1.0000 0.46890  0.37498  0.24112  Biso   1.000  O
  C151     1.0000 0.12261  0.52252  0.23302  Biso   1.000  C
  H176     1.0000 0.12724  0.30547  0.26199  Biso   1.000  H
  H177     1.0000 0.04551  0.37361  0.29091  Biso   1.000  H
  H178     1.0000 0.12020  0.27271  0.30830  Biso   1.000  H
  C152     1.0000 0.15936  0.70323  0.27859  Biso   1.000  C
  N83      1.0000 0.38840  0.66606  0.21906  Biso   1.000  N
  O51      1.0000 0.57092  0.63305  0.19864  Biso   1.000  O
  O52      1.0000 0.23931  0.77185  0.19635  Biso   1.000  O
  C153     1.0000 0.35547  0.56560  0.20965  Biso   1.000  C
  H179     1.0000 0.13642  0.46538  0.21580  Biso   1.000  H
  H180     1.0000 0.12669  0.59029  0.21719  Biso   1.000  H
  H181     1.0000 0.05049  0.52117  0.24709  Biso   1.000  H
  H182     1.0000 0.11941  0.73692  0.30121  Biso   1.000  H
  H183     1.0000 0.11118  0.71157  0.25721  Biso   1.000  H
  H184     1.0000 0.29666  0.58120  0.19199  Biso   1.000  H
  H185     1.0000 0.41761  0.52613  0.19540  Biso   1.000  H
