data_image0
_cell_length_a       15.136
_cell_length_b       16.032
_cell_length_c       16.839
_cell_angle_alpha    90
_cell_angle_beta     111.5
_cell_angle_gamma    90

_symmetry_space_group_name_H-M    "P 1"
_symmetry_int_tables_number       1

loop_
  _symmetry_equiv_pos_as_xyz
  'x, y, z'

loop_
  _atom_site_label
  _atom_site_occupancy
  _atom_site_fract_x
  _atom_site_fract_y
  _atom_site_fract_z
  _atom_site_thermal_displace_type
  _atom_site_B_iso_or_equiv
  _atom_site_type_symbol
  C1       1.0000 0.45914  0.48540  0.36822  Biso   1.000  C
  O1       1.0000 0.48159  0.42259  0.31958  Biso   1.000  O
  C2       1.0000 0.53298  0.54971  0.39069  Biso   1.000  C
  C3       1.0000 0.41572  0.35679  0.29788  Biso   1.000  C
  O2       1.0000 0.61908  0.52283  0.45279  Biso   1.000  O
  C4       1.0000 0.44469  0.29173  0.24950  Biso   1.000  C
  C5       1.0000 0.69113  0.51229  0.42841  Biso   1.000  C
  O3       1.0000 0.51331  0.23540  0.30292  Biso   1.000  O
  C6       1.0000 0.77779  0.47929  0.50079  Biso   1.000  C
  C7       1.0000 0.60872  0.26809  0.34052  Biso   1.000  C
  C8       1.0000 0.79449  0.49501  0.58632  Biso   1.000  C
  C9       1.0000 0.83757  0.42758  0.48100  Biso   1.000  C
  C10      1.0000 0.65182  0.22362  0.42451  Biso   1.000  C
  C11      1.0000 0.87020  0.45939  0.65193  Biso   1.000  C
  C12      1.0000 0.91392  0.38878  0.54559  Biso   1.000  C
  O4       1.0000 0.82102  0.40912  0.39681  Biso   1.000  O
  C13      1.0000 0.64492  0.25792  0.49638  Biso   1.000  C
  C14      1.0000 0.69060  0.14409  0.42988  Biso   1.000  C
  C15      1.0000 0.92921  0.40569  0.62927  Biso   1.000  C
  C16      1.0000 0.88109  0.47698  0.74020  Biso   1.000  C
  C17      1.0000 0.97770  0.32990  0.51987  Biso   1.000  C
  C18      1.0000 0.87580  0.45871  0.36152  Biso   1.000  C
  C19      1.0000 0.67088  0.21457  0.57368  Biso   1.000  C
  C20      1.0000 0.71480  0.09681  0.50558  Biso   1.000  C
  O5       1.0000 0.70040  0.11040  0.35928  Biso   1.000  O
  O6       1.0000 0.83482  0.53449  0.75699  Biso   1.000  O
  N1       1.0000 0.93967  0.42970  0.80237  Biso   1.000  N
  O7       1.0000 0.03100  0.28612  0.57559  Biso   1.000  O
  C21      1.0000 0.85988  0.43058  0.27452  Biso   1.000  C
  C22      1.0000 0.70361  0.13292  0.57470  Biso   1.000  C
  C23      1.0000 0.66033  0.25798  0.64631  Biso   1.000  C
  C24      1.0000 0.74762  0.00767  0.50781  Biso   1.000  C
  C25      1.0000 0.79381  0.11122  0.35877  Biso   1.000  C
  C26      1.0000 0.94181  0.43083  0.88911  Biso   1.000  C
  C27      1.0000 0.08359  0.22468  0.54949  Biso   1.000  C
  O8       1.0000 0.91660  0.35697  0.29469  Biso   1.000  O
  N2       1.0000 0.66472  0.21189  0.71493  Biso   1.000  N
  O9       1.0000 0.64841  0.33321  0.64561  Biso   1.000  O
  O10      1.0000 0.84583  0.00069  0.52070  Biso   1.000  O
  C28      1.0000 0.79231  0.14883  0.27829  Biso   1.000  C
  C29      1.0000 0.88383  0.36321  0.90571  Biso   1.000  C
  C30      1.0000 0.09061  0.14608  0.59832  Biso   1.000  C
  C31      1.0000 0.90031  0.30851  0.22282  Biso   1.000  C
  C32      1.0000 0.65232  0.24838  0.78967  Biso   1.000  C
  C33      1.0000 0.90550  0.01123  0.60757  Biso   1.000  C
  O11      1.0000 0.88780  0.17191  0.29437  Biso   1.000  O
  C34      1.0000 0.79931  0.33857  0.84392  Biso   1.000  C
  C35      1.0000 0.91487  0.32373  0.98428  Biso   1.000  C
  O12      1.0000 0.99952  0.11090  0.57649  Biso   1.000  O
  C36      1.0000 0.87831  0.21981  0.22167  Biso   1.000  C
  C37      1.0000 0.74490  0.27483  0.85892  Biso   1.000  C
  C38      1.0000 0.00300  0.03119  0.61402  Biso   1.000  C
  C39      1.0000 0.86087  0.25979  0.99928  Biso   1.000  C
  C40      1.0000 0.77302  0.23590  0.93532  Biso   1.000  C
  C41      1.0000 0.54092  0.51460  0.63183  Biso   1.000  C
  C42      1.0000 0.46698  0.45029  0.60929  Biso   1.000  C
  O13      1.0000 0.51837  0.57741  0.68040  Biso   1.000  O
  O14      1.0000 0.38088  0.47717  0.54719  Biso   1.000  O
  C43      1.0000 0.58430  0.64321  0.70210  Biso   1.000  C
  C44      1.0000 0.30890  0.48771  0.57157  Biso   1.000  C
  C45      1.0000 0.55527  0.70827  0.75048  Biso   1.000  C
  C46      1.0000 0.22217  0.52071  0.49919  Biso   1.000  C
  O15      1.0000 0.48674  0.76460  0.69712  Biso   1.000  O
  C47      1.0000 0.20549  0.50499  0.41373  Biso   1.000  C
  C48      1.0000 0.16239  0.57242  0.51898  Biso   1.000  C
  C49      1.0000 0.39134  0.73191  0.65953  Biso   1.000  C
  C50      1.0000 0.12978  0.54061  0.34811  Biso   1.000  C
  C51      1.0000 0.08610  0.61122  0.45439  Biso   1.000  C
  O16      1.0000 0.17903  0.59088  0.60323  Biso   1.000  O
  C52      1.0000 0.34824  0.77638  0.57553  Biso   1.000  C
  C53      1.0000 0.11887  0.52302  0.25978  Biso   1.000  C
  C54      1.0000 0.07081  0.59431  0.37071  Biso   1.000  C
  C55      1.0000 0.02233  0.67010  0.48011  Biso   1.000  C
  C56      1.0000 0.12419  0.54129  0.63853  Biso   1.000  C
  C57      1.0000 0.35511  0.74208  0.50360  Biso   1.000  C
  C58      1.0000 0.30942  0.85591  0.57010  Biso   1.000  C
  O17      1.0000 0.16521  0.46551  0.24299  Biso   1.000  O
  N3       1.0000 0.06029  0.57030  0.19761  Biso   1.000  N
  O18      1.0000 0.96902  0.71388  0.42439  Biso   1.000  O
  C59      1.0000 0.14010  0.56942  0.72552  Biso   1.000  C
  C60      1.0000 0.32908  0.78543  0.42630  Biso   1.000  C
  C61      1.0000 0.28523  0.90319  0.49441  Biso   1.000  C
  O19      1.0000 0.29962  0.88960  0.64070  Biso   1.000  O
  C62      1.0000 0.05818  0.56917  0.11093  Biso   1.000  C
  C63      1.0000 0.91637  0.77532  0.45049  Biso   1.000  C
  O20      1.0000 0.08342  0.64303  0.70529  Biso   1.000  O
  C64      1.0000 0.33972  0.74202  0.35373  Biso   1.000  C
  C65      1.0000 0.29642  0.86708  0.42528  Biso   1.000  C
  C66      1.0000 0.25241  0.99233  0.49217  Biso   1.000  C
  C67      1.0000 0.20621  0.88878  0.64121  Biso   1.000  C
  C68      1.0000 0.11620  0.63679  0.09427  Biso   1.000  C
  C69      1.0000 0.90944  0.85392  0.40173  Biso   1.000  C
  C70      1.0000 0.09974  0.69149  0.77722  Biso   1.000  C
  N4       1.0000 0.33533  0.78811  0.28512  Biso   1.000  N
  O21      1.0000 0.35161  0.66679  0.35437  Biso   1.000  O
  O22      1.0000 0.15419  0.99931  0.47928  Biso   1.000  O
  C71      1.0000 0.20771  0.85117  0.72169  Biso   1.000  C
  C72      1.0000 0.08509  0.67627  0.01570  Biso   1.000  C
  C73      1.0000 0.20068  0.66143  0.15612  Biso   1.000  C
  O23      1.0000 0.00050  0.88910  0.42349  Biso   1.000  O
  C74      1.0000 0.12172  0.78019  0.77831  Biso   1.000  C
  C75      1.0000 0.34771  0.75162  0.21031  Biso   1.000  C
  C76      1.0000 0.09453  0.98877  0.39241  Biso   1.000  C
  O24      1.0000 0.11223  0.82809  0.70561  Biso   1.000  O
  C77      1.0000 0.13909  0.74021  0.00070  Biso   1.000  C
  C78      1.0000 0.25508  0.72517  0.14112  Biso   1.000  C
  C79      1.0000 0.99699  0.96881  0.38603  Biso   1.000  C
  C80      1.0000 0.22704  0.76410  0.06472  Biso   1.000  C
  C81      1.0000 0.63909  0.75979  0.50072  Biso   1.000  C
  C82      1.0000 0.58508  0.82373  0.51572  Biso   1.000  C
  C83      1.0000 0.72700  0.73590  0.56468  Biso   1.000  C
  C84      1.0000 0.61619  0.86321  0.59430  Biso   1.000  C
  C85      1.0000 0.75512  0.77483  0.64108  Biso   1.000  C
  C86      1.0000 0.55821  0.93083  0.61089  Biso   1.000  C
  C87      1.0000 0.70071  0.83857  0.65608  Biso   1.000  C
  C88      1.0000 0.84768  0.74838  0.71027  Biso   1.000  C
  N5       1.0000 0.56028  0.92970  0.69763  Biso   1.000  N
  N6       1.0000 0.83530  0.71189  0.78507  Biso   1.000  N
  C89      1.0000 0.61893  0.97698  0.75980  Biso   1.000  C
  C90      1.0000 0.83969  0.75798  0.85369  Biso   1.000  C
  C91      1.0000 0.62982  0.95939  0.84807  Biso   1.000  C
  O25      1.0000 0.66520  0.03449  0.74301  Biso   1.000  O
  C92      1.0000 0.82914  0.71457  0.92632  Biso   1.000  C
  O26      1.0000 0.85160  0.83321  0.85439  Biso   1.000  O
  C93      1.0000 0.70553  0.99501  0.91369  Biso   1.000  C
  C94      1.0000 0.57081  0.90569  0.87073  Biso   1.000  C
  C95      1.0000 0.79641  0.63292  0.92530  Biso   1.000  C
  C96      1.0000 0.85510  0.75792  0.00362  Biso   1.000  C
  C97      1.0000 0.72223  0.97929  0.99921  Biso   1.000  C
  C98      1.0000 0.58610  0.88878  0.95441  Biso   1.000  C
  C99      1.0000 0.78522  0.59681  0.99443  Biso   1.000  C
  C100     1.0000 0.84820  0.72362  0.07549  Biso   1.000  C
  C101     1.0000 0.66238  0.92758  0.01900  Biso   1.000  C
  C102     1.0000 0.80889  0.01229  0.07159  Biso   1.000  C
  C103     1.0000 0.52232  0.82990  0.98013  Biso   1.000  C
  C104     1.0000 0.75240  0.50767  0.99219  Biso   1.000  C
  C105     1.0000 0.80941  0.64409  0.07013  Biso   1.000  C
  C106     1.0000 0.89130  0.76809  0.15948  Biso   1.000  C
  O27      1.0000 0.67900  0.90912  0.10319  Biso   1.000  O
  O28      1.0000 0.88087  0.02283  0.04721  Biso   1.000  O
  O29      1.0000 0.46901  0.78612  0.92441  Biso   1.000  O
  O30      1.0000 0.65419  0.50069  0.97930  Biso   1.000  O
  O31      1.0000 0.79961  0.61040  0.14072  Biso   1.000  O
  O32      1.0000 0.98671  0.73540  0.19708  Biso   1.000  O
  C107     1.0000 0.62422  0.95871  0.13849  Biso   1.000  C
  C108     1.0000 0.96698  0.04971  0.10932  Biso   1.000  C
  C109     1.0000 0.41643  0.72468  0.95051  Biso   1.000  C
  C110     1.0000 0.59449  0.51123  0.89237  Biso   1.000  C
  C111     1.0000 0.70621  0.61122  0.14123  Biso   1.000  C
  C112     1.0000 0.05533  0.79173  0.25050  Biso   1.000  C
  C113     1.0000 0.64007  0.93058  0.22548  Biso   1.000  C
  C114     1.0000 0.04088  0.98540  0.13178  Biso   1.000  C
  C115     1.0000 0.40941  0.64608  0.90169  Biso   1.000  C
  C116     1.0000 0.49702  0.53119  0.88599  Biso   1.000  C
  C117     1.0000 0.70771  0.64883  0.22172  Biso   1.000  C
  C118     1.0000 0.08430  0.85679  0.20212  Biso   1.000  C
  O33      1.0000 0.58342  0.85697  0.20531  Biso   1.000  O
  O34      1.0000 0.01843  0.92259  0.18042  Biso   1.000  O
  O35      1.0000 0.50049  0.61090  0.92352  Biso   1.000  O
  O36      1.0000 0.61219  0.67191  0.20557  Biso   1.000  O
  C119     1.0000 0.59971  0.80851  0.27718  Biso   1.000  C
  C120     1.0000 0.62171  0.71981  0.27833  Biso   1.000  C
  C121     1.0000 0.36090  0.24021  0.49932  Biso   1.000  C
  C122     1.0000 0.27302  0.26410  0.43530  Biso   1.000  C
  C123     1.0000 0.41490  0.17627  0.48432  Biso   1.000  C
  C124     1.0000 0.24491  0.22517  0.35890  Biso   1.000  C
  C125     1.0000 0.38377  0.13679  0.40569  Biso   1.000  C
  C126     1.0000 0.15228  0.25162  0.28971  Biso   1.000  C
  C127     1.0000 0.29931  0.16143  0.34390  Biso   1.000  C
  C128     1.0000 0.44181  0.06917  0.38909  Biso   1.000  C
  N7       1.0000 0.16473  0.28811  0.21491  Biso   1.000  N
  N8       1.0000 0.43970  0.07030  0.30241  Biso   1.000  N
  C129     1.0000 0.16027  0.24202  0.14629  Biso   1.000  C
  C130     1.0000 0.38110  0.02302  0.24018  Biso   1.000  C
  C131     1.0000 0.17091  0.28543  0.07372  Biso   1.000  C
  O37      1.0000 0.14842  0.16679  0.14559  Biso   1.000  O
  C132     1.0000 0.37021  0.04061  0.15191  Biso   1.000  C
  O38      1.0000 0.33476  0.96551  0.25697  Biso   1.000  O
  C133     1.0000 0.20361  0.36708  0.07468  Biso   1.000  C
  C134     1.0000 0.14488  0.24208  0.99643  Biso   1.000  C
  C135     1.0000 0.29450  0.00499  0.08629  Biso   1.000  C
  C136     1.0000 0.42918  0.09431  0.12931  Biso   1.000  C
  C137     1.0000 0.21483  0.40319  0.00562  Biso   1.000  C
  C138     1.0000 0.15182  0.27638  0.92449  Biso   1.000  C
  C139     1.0000 0.27782  0.02071  0.00083  Biso   1.000  C
  C140     1.0000 0.41386  0.11122  0.04557  Biso   1.000  C
  C141     1.0000 0.24763  0.49233  0.00779  Biso   1.000  C
  C142     1.0000 0.19064  0.35591  0.92992  Biso   1.000  C
  C143     1.0000 0.10872  0.23191  0.84050  Biso   1.000  C
  C144     1.0000 0.19107  0.98771  0.92839  Biso   1.000  C
  C145     1.0000 0.33758  0.07242  0.98098  Biso   1.000  C
  C146     1.0000 0.47773  0.17010  0.01991  Biso   1.000  C
  O39      1.0000 0.34577  0.49931  0.02068  Biso   1.000  O
  O40      1.0000 0.20044  0.38960  0.85932  Biso   1.000  O
  O41      1.0000 0.01332  0.26460  0.80290  Biso   1.000  O
  O42      1.0000 0.11911  0.97717  0.95283  Biso   1.000  O
  O43      1.0000 0.32103  0.09088  0.89679  Biso   1.000  O
  O44      1.0000 0.53101  0.21388  0.07557  Biso   1.000  O
  C147     1.0000 0.40553  0.48877  0.10761  Biso   1.000  C
  C148     1.0000 0.29378  0.38878  0.85881  Biso   1.000  C
  C149     1.0000 0.94469  0.20827  0.74948  Biso   1.000  C
  C150     1.0000 0.03301  0.95029  0.89073  Biso   1.000  C
  C151     1.0000 0.37581  0.04129  0.86149  Biso   1.000  C
  C152     1.0000 0.58362  0.27532  0.04953  Biso   1.000  C
  C153     1.0000 0.50301  0.46881  0.11400  Biso   1.000  C
  C154     1.0000 0.29228  0.35117  0.77833  Biso   1.000  C
  C155     1.0000 0.91569  0.14321  0.79792  Biso   1.000  C
  C156     1.0000 0.95908  0.01460  0.86820  Biso   1.000  C
  C157     1.0000 0.35989  0.06942  0.77450  Biso   1.000  C
  C158     1.0000 0.59062  0.35392  0.09829  Biso   1.000  C
  O45      1.0000 0.49949  0.38910  0.07653  Biso   1.000  O
  O46      1.0000 0.38783  0.32809  0.79441  Biso   1.000  O
  O47      1.0000 0.98162  0.07741  0.81962  Biso   1.000  O
  O48      1.0000 0.41663  0.14303  0.79473  Biso   1.000  O
  C159     1.0000 0.37827  0.28019  0.72171  Biso   1.000  C
  C160     1.0000 0.40032  0.19149  0.72280  Biso   1.000  C
