data_image0
_cell_length_a       11.172
_cell_length_b       21.4
_cell_length_c       24.786
_cell_angle_alpha    90
_cell_angle_beta     96.29
_cell_angle_gamma    90

_symmetry_space_group_name_H-M    "P 1"
_symmetry_int_tables_number       1

loop_
  _symmetry_equiv_pos_as_xyz
  'x, y, z'

loop_
  _atom_site_label
  _atom_site_occupancy
  _atom_site_fract_x
  _atom_site_fract_y
  _atom_site_fract_z
  _atom_site_thermal_displace_type
  _atom_site_B_iso_or_equiv
  _atom_site_type_symbol
  C1       1.0000 0.78562  0.35220  0.30929  Biso   1.000  C
  O1       1.0000 0.73475  0.31780  0.34968  Biso   1.000  O
  C2       1.0000 0.90814  0.36780  0.32691  Biso   1.000  C
  H1       1.0000 0.78178  0.32780  0.27621  Biso   1.000  H
  H2       1.0000 0.73959  0.39019  0.30150  Biso   1.000  H
  C3       1.0000 0.62034  0.33519  0.35808  Biso   1.000  C
  O2       1.0000 0.97912  0.31481  0.33868  Biso   1.000  O
  H3       1.0000 0.91104  0.39379  0.35910  Biso   1.000  H
  H4       1.0000 0.94105  0.39168  0.29878  Biso   1.000  H
  C4       1.0000 0.58127  0.29752  0.40431  Biso   1.000  C
  H5       1.0000 0.61870  0.37939  0.36681  Biso   1.000  H
  H6       1.0000 0.56578  0.32799  0.32549  Biso   1.000  H
  C5       1.0000 0.09405  0.32963  0.36409  Biso   1.000  C
  O3       1.0000 0.57084  0.23402  0.38719  Biso   1.000  O
  H7       1.0000 0.50445  0.31262  0.41381  Biso   1.000  H
  H8       1.0000 0.64014  0.30121  0.43589  Biso   1.000  H
  C6       1.0000 0.17098  0.27290  0.37091  Biso   1.000  C
  H9       1.0000 0.13159  0.36019  0.34250  Biso   1.000  H
  H10      1.0000 0.08679  0.34799  0.39940  Biso   1.000  H
  C7       1.0000 0.54310  0.18949  0.42441  Biso   1.000  C
  O4       1.0000 0.12781  0.23168  0.41020  Biso   1.000  O
  H11      1.0000 0.25336  0.28491  0.38280  Biso   1.000  H
  H12      1.0000 0.17012  0.25150  0.33641  Biso   1.000  H
  C8       1.0000 0.53307  0.20131  0.47778  Biso   1.000  C
  C9       1.0000 0.52286  0.13042  0.40302  Biso   1.000  C
  C10      1.0000 0.21166  0.18640  0.43001  Biso   1.000  C
  H13      1.0000 0.54444  0.24140  0.49178  Biso   1.000  H
  C11      1.0000 0.50637  0.15341  0.51009  Biso   1.000  C
  H14      1.0000 0.52784  0.12322  0.36640  Biso   1.000  H
  C12      1.0000 0.49577  0.08290  0.43589  Biso   1.000  C
  C13      1.0000 0.16673  0.14762  0.47271  Biso   1.000  C
  H15      1.0000 0.22997  0.15972  0.40038  Biso   1.000  H
  H16      1.0000 0.28568  0.20692  0.44470  Biso   1.000  H
  O5       1.0000 0.49555  0.17070  0.56387  Biso   1.000  O
  C14      1.0000 0.49081  0.09500  0.49138  Biso   1.000  C
  C15      1.0000 0.46488  0.01790  0.41231  Biso   1.000  C
  O6       1.0000 0.15228  0.18631  0.51711  Biso   1.000  O
  H17      1.0000 0.22377  0.11449  0.48350  Biso   1.000  H
  H18      1.0000 0.09040  0.12869  0.45919  Biso   1.000  H
  C16      1.0000 0.48322  0.12439  0.60560  Biso   1.000  C
  H19      1.0000 0.47686  0.06271  0.51500  Biso   1.000  H
  H20      1.0000 0.49817  0.01360  0.37801  Biso   1.000  H
  H21      1.0000 0.37805  0.01388  0.40529  Biso   1.000  H
  N1       1.0000 0.51112  0.96790  0.44860  Biso   1.000  N
  C17      1.0000 0.13513  0.16061  0.56550  Biso   1.000  C
  H22      1.0000 0.42472  0.09290  0.59249  Biso   1.000  H
  H23      1.0000 0.55980  0.10402  0.61611  Biso   1.000  H
  C18      1.0000 0.44208  0.15832  0.65289  Biso   1.000  C
  H24      1.0000 0.46272  0.94650  0.46601  Biso   1.000  H
  C19      1.0000 0.62833  0.95528  0.45469  Biso   1.000  C
  C20      1.0000 0.14355  0.09481  0.57621  Biso   1.000  C
  C21      1.0000 0.11057  0.20280  0.60661  Biso   1.000  C
  O7       1.0000 0.52130  0.20659  0.66981  Biso   1.000  O
  H25      1.0000 0.43713  0.12930  0.68260  Biso   1.000  H
  H26      1.0000 0.36245  0.17542  0.64270  Biso   1.000  H
  N2       1.0000 0.66028  0.91112  0.49369  Biso   1.000  N
  O8       1.0000 0.70159  0.98079  0.42761  Biso   1.000  O
  C22      1.0000 0.13022  0.07402  0.62780  Biso   1.000  C
  H27      1.0000 0.15768  0.06682  0.54889  Biso   1.000  H
  C23      1.0000 0.09474  0.17949  0.65747  Biso   1.000  C
  H28      1.0000 0.10502  0.24551  0.59959  Biso   1.000  H
  C24      1.0000 0.47565  0.24762  0.70849  Biso   1.000  C
  H29      1.0000 0.60248  0.89262  0.50741  Biso   1.000  H
  C25      1.0000 0.78259  0.89229  0.51411  Biso   1.000  C
  C26      1.0000 0.10396  0.11500  0.66851  Biso   1.000  C
  C27      1.0000 0.13588  0.00509  0.63819  Biso   1.000  C
  O9       1.0000 0.06367  0.21631  0.69867  Biso   1.000  O
  H30      1.0000 0.48159  0.22710  0.74360  Biso   1.000  H
  H31      1.0000 0.39114  0.25589  0.69737  Biso   1.000  H
  C28      1.0000 0.53937  0.30542  0.71361  Biso   1.000  C
  C29      1.0000 0.79135  0.83621  0.54240  Biso   1.000  C
  C30      1.0000 0.88075  0.92360  0.50550  Biso   1.000  C
  H32      1.0000 0.09242  0.09981  0.70281  Biso   1.000  H
  N3       1.0000 0.25264  0.97790  0.63137  Biso   1.000  N
  H33      1.0000 0.07467  0.98458  0.61359  Biso   1.000  H
  H34      1.0000 0.11741  0.99729  0.67488  Biso   1.000  H
  C31      1.0000 0.08022  0.28262  0.69461  Biso   1.000  C
  O10      1.0000 0.65930  0.29860  0.73820  Biso   1.000  O
  H35      1.0000 0.49679  0.33411  0.73508  Biso   1.000  H
  H36      1.0000 0.54078  0.32369  0.67781  Biso   1.000  H
  H37      1.0000 0.72217  0.81332  0.54650  Biso   1.000  H
  C32      1.0000 0.89547  0.81561  0.56310  Biso   1.000  C
  C33      1.0000 0.98799  0.90089  0.52689  Biso   1.000  C
  H38      1.0000 0.87600  0.96019  0.48521  Biso   1.000  H
  C34      1.0000 0.35162  0.98701  0.66701  Biso   1.000  C
  H39      1.0000 0.25992  0.96201  0.60130  Biso   1.000  H
  C35      1.0000 0.03396  0.31238  0.74178  Biso   1.000  C
  H40      1.0000 0.16500  0.29220  0.69429  Biso   1.000  H
  H41      1.0000 0.03702  0.29822  0.66121  Biso   1.000  H
  C36      1.0000 0.71649  0.35659  0.74628  Biso   1.000  C
  H42      1.0000 0.89871  0.77921  0.58380  Biso   1.000  H
  C37      1.0000 0.99490  0.84379  0.55608  Biso   1.000  C
  H43      1.0000 0.05808  0.92280  0.52251  Biso   1.000  H
  N4       1.0000 0.45664  0.96430  0.64980  Biso   1.000  N
  O11      1.0000 0.34612  0.01182  0.71028  Biso   1.000  O
  O12      1.0000 0.90382  0.31561  0.72968  Biso   1.000  O
  H44      1.0000 0.06739  0.35402  0.74750  Biso   1.000  H
  H45      1.0000 0.05540  0.28790  0.77441  Biso   1.000  H
  H46      1.0000 0.71292  0.37902  0.71211  Biso   1.000  H
  H47      1.0000 0.67598  0.38140  0.77149  Biso   1.000  H
  C38      1.0000 0.84262  0.34640  0.76808  Biso   1.000  C
  H48      1.0000 0.06895  0.82720  0.56980  Biso   1.000  H
  C39      1.0000 0.57284  0.96350  0.67858  Biso   1.000  C
  H49      1.0000 0.45797  0.93598  0.62800  Biso   1.000  H
  H50      1.0000 0.84594  0.32150  0.80088  Biso   1.000  H
  H51      1.0000 0.88099  0.38631  0.77717  Biso   1.000  H
  C40      1.0000 0.66474  0.93762  0.65159  Biso   1.000  C
  C41      1.0000 0.60180  0.98841  0.73110  Biso   1.000  C
  H52      1.0000 0.64618  0.92238  0.61648  Biso   1.000  H
  C42      1.0000 0.78028  0.93411  0.67509  Biso   1.000  C
  C43      1.0000 0.72138  0.98290  0.75168  Biso   1.000  C
  H53      1.0000 0.54473  0.00720  0.75038  Biso   1.000  H
  H54      1.0000 0.83887  0.91500  0.65690  Biso   1.000  H
  C44      1.0000 0.80978  0.95879  0.72538  Biso   1.000  C
  H55      1.0000 0.74253  0.99720  0.78679  Biso   1.000  H
  H56      1.0000 0.88919  0.95888  0.74129  Biso   1.000  H
  O13      1.0000 0.84623  0.48822  0.21030  Biso   1.000  O
  C45      1.0000 0.85172  0.51299  0.16699  Biso   1.000  C
  N5       1.0000 0.75267  0.52210  0.13139  Biso   1.000  N
  N6       1.0000 0.95675  0.53570  0.14982  Biso   1.000  N
  C46      1.0000 0.63590  0.49491  0.13821  Biso   1.000  C
  H57      1.0000 0.76004  0.53799  0.10131  Biso   1.000  H
  H58      1.0000 0.95798  0.56402  0.12798  Biso   1.000  H
  C47      1.0000 0.07295  0.53650  0.17859  Biso   1.000  C
  C48      1.0000 0.63033  0.42598  0.12782  Biso   1.000  C
  H59      1.0000 0.57470  0.51542  0.11361  Biso   1.000  H
  H60      1.0000 0.61752  0.50271  0.17490  Biso   1.000  H
  C49      1.0000 0.16485  0.56238  0.15160  Biso   1.000  C
  C50      1.0000 0.10191  0.51159  0.23108  Biso   1.000  C
  C51      1.0000 0.60397  0.38500  0.16849  Biso   1.000  C
  C52      1.0000 0.64356  0.40519  0.07619  Biso   1.000  C
  H61      1.0000 0.14620  0.57762  0.11649  Biso   1.000  H
  C53      1.0000 0.28030  0.56589  0.17510  Biso   1.000  C
  C54      1.0000 0.22140  0.51710  0.25170  Biso   1.000  C
  H62      1.0000 0.04484  0.49280  0.25040  Biso   1.000  H
  C55      1.0000 0.59476  0.32051  0.15749  Biso   1.000  C
  H63      1.0000 0.59252  0.40019  0.20279  Biso   1.000  H
  C56      1.0000 0.63524  0.33939  0.06551  Biso   1.000  C
  H64      1.0000 0.65770  0.43322  0.04891  Biso   1.000  H
  H65      1.0000 0.33888  0.58500  0.15688  Biso   1.000  H
  C57      1.0000 0.30980  0.54121  0.22539  Biso   1.000  C
  H66      1.0000 0.24265  0.50280  0.28681  Biso   1.000  H
  O14      1.0000 0.56369  0.28369  0.19869  Biso   1.000  O
  C58      1.0000 0.61058  0.29720  0.10659  Biso   1.000  C
  O15      1.0000 0.65229  0.31369  0.01709  Biso   1.000  O
  H67      1.0000 0.38921  0.54112  0.24131  Biso   1.000  H
  C59      1.0000 0.58033  0.21738  0.19459  Biso   1.000  C
  H68      1.0000 0.60513  0.25449  0.09961  Biso   1.000  H
  C60      1.0000 0.66674  0.35238  0.97268  Biso   1.000  C
  C61      1.0000 0.53398  0.18762  0.24179  Biso   1.000  C
  H69      1.0000 0.66511  0.20780  0.19430  Biso   1.000  H
  H70      1.0000 0.53712  0.20182  0.16118  Biso   1.000  H
  H71      1.0000 0.72370  0.38551  0.98348  Biso   1.000  H
  H72      1.0000 0.59034  0.37131  0.95921  Biso   1.000  H
  C62      1.0000 0.71168  0.31360  0.92998  Biso   1.000  C
  O16      1.0000 0.40385  0.18439  0.22970  Biso   1.000  O
  H73      1.0000 0.56750  0.14598  0.24752  Biso   1.000  H
  H74      1.0000 0.55551  0.21210  0.27439  Biso   1.000  H
  O17      1.0000 0.62774  0.26832  0.91017  Biso   1.000  O
  H75      1.0000 0.72991  0.34028  0.90039  Biso   1.000  H
  H76      1.0000 0.78561  0.29308  0.94472  Biso   1.000  H
  C63      1.0000 0.34265  0.15360  0.26809  Biso   1.000  C
  C64      1.0000 0.67091  0.22710  0.87088  Biso   1.000  C
  C65      1.0000 0.21660  0.14341  0.24630  Biso   1.000  C
  H77      1.0000 0.34596  0.17850  0.30089  Biso   1.000  H
  H78      1.0000 0.38111  0.11369  0.27719  Biso   1.000  H
  H79      1.0000 0.75338  0.21509  0.88282  Biso   1.000  H
  H80      1.0000 0.67004  0.24850  0.83638  Biso   1.000  H
  C66      1.0000 0.59407  0.17042  0.86411  Biso   1.000  C
  O18      1.0000 0.15941  0.20140  0.23822  Biso   1.000  O
  H81      1.0000 0.21294  0.12098  0.21208  Biso   1.000  H
  H82      1.0000 0.17609  0.11860  0.27150  Biso   1.000  H
  O19      1.0000 0.47905  0.18519  0.83870  Biso   1.000  O
  H83      1.0000 0.63152  0.13981  0.84251  Biso   1.000  H
  H84      1.0000 0.58672  0.15201  0.89942  Biso   1.000  H
  C67      1.0000 0.03947  0.19458  0.21358  Biso   1.000  C
  C68      1.0000 0.40815  0.13220  0.82688  Biso   1.000  C
  H85      1.0000 0.04089  0.17631  0.17778  Biso   1.000  H
  C69      1.0000 0.97567  0.25238  0.20851  Biso   1.000  C
  H86      1.0000 0.99690  0.16589  0.23510  Biso   1.000  H
  C70      1.0000 0.28555  0.14780  0.80931  Biso   1.000  C
  H87      1.0000 0.41106  0.10621  0.85911  Biso   1.000  H
  H88      1.0000 0.44107  0.10832  0.79880  Biso   1.000  H
  O20      1.0000 0.02141  0.29341  0.16983  Biso   1.000  O
  H89      1.0000 0.98169  0.27290  0.24358  Biso   1.000  H
  H90      1.0000 0.89116  0.24411  0.19739  Biso   1.000  H
  O21      1.0000 0.23477  0.18220  0.84970  Biso   1.000  O
  H91      1.0000 0.28180  0.17220  0.77619  Biso   1.000  H
  H92      1.0000 0.23953  0.10981  0.80152  Biso   1.000  H
  C71      1.0000 0.94220  0.34168  0.15290  Biso   1.000  C
  C72      1.0000 0.12036  0.16481  0.85810  Biso   1.000  C
  C73      1.0000 0.98324  0.37561  0.10561  Biso   1.000  C
  H93      1.0000 0.93716  0.37070  0.18261  Biso   1.000  H
  H94      1.0000 0.86247  0.32463  0.14271  Biso   1.000  H
  C74      1.0000 0.08119  0.20252  0.90429  Biso   1.000  C
  H95      1.0000 0.11862  0.12061  0.86678  Biso   1.000  H
  H96      1.0000 0.06571  0.17201  0.82550  Biso   1.000  H
  H97      1.0000 0.05990  0.39598  0.11609  Biso   1.000  H
  O22      1.0000 0.99556  0.32930  0.06385  Biso   1.000  O
  H98      1.0000 0.92474  0.40710  0.09250  Biso   1.000  H
  O23      1.0000 0.07086  0.26598  0.88720  Biso   1.000  O
  H99      1.0000 0.00447  0.18738  0.91379  Biso   1.000  H
  H100     1.0000 0.14017  0.19879  0.93591  Biso   1.000  H
  C75      1.0000 0.00640  0.34659  0.01011  Biso   1.000  C
  C76      1.0000 0.04302  0.31051  0.92438  Biso   1.000  C
  C77      1.0000 0.99084  0.40500  0.99139  Biso   1.000  C
  C78      1.0000 0.03300  0.29869  0.97780  Biso   1.000  C
  C79      1.0000 0.02279  0.36963  0.90299  Biso   1.000  C
  C80      1.0000 0.99570  0.41710  0.93591  Biso   1.000  C
  H101     1.0000 0.97689  0.43729  0.01502  Biso   1.000  H
  H102     1.0000 0.04437  0.25860  0.99180  Biso   1.000  H
  H103     1.0000 0.02786  0.37682  0.86642  Biso   1.000  H
  C81      1.0000 0.96481  0.48210  0.91229  Biso   1.000  C
  H104     1.0000 0.99809  0.48640  0.87799  Biso   1.000  H
  H105     1.0000 0.87798  0.48612  0.90530  Biso   1.000  H
  N7       1.0000 0.01114  0.53210  0.94861  Biso   1.000  N
  H106     1.0000 0.96273  0.55350  0.96599  Biso   1.000  H
  C82      1.0000 0.12836  0.54472  0.95470  Biso   1.000  C
  N8       1.0000 0.16021  0.58893  0.99371  Biso   1.000  N
  O24      1.0000 0.20152  0.51921  0.92759  Biso   1.000  O
  H107     1.0000 0.10249  0.60738  0.00739  Biso   1.000  H
  C83      1.0000 0.28260  0.60771  0.01408  Biso   1.000  C
  C84      1.0000 0.29137  0.66379  0.04242  Biso   1.000  C
  C85      1.0000 0.38086  0.57640  0.00552  Biso   1.000  C
  H108     1.0000 0.22219  0.68673  0.04652  Biso   1.000  H
  C86      1.0000 0.39549  0.68439  0.06312  Biso   1.000  C
  C87      1.0000 0.48801  0.59911  0.02691  Biso   1.000  C
  H109     1.0000 0.37592  0.53981  0.98518  Biso   1.000  H
  H110     1.0000 0.39882  0.72079  0.08382  Biso   1.000  H
  C88      1.0000 0.49502  0.65621  0.05609  Biso   1.000  C
  H111     1.0000 0.55810  0.57720  0.02249  Biso   1.000  H
  H112     1.0000 0.56897  0.67280  0.06981  Biso   1.000  H
  C89      1.0000 0.71660  0.64341  0.24630  Biso   1.000  C
  O25      1.0000 0.65941  0.70140  0.23822  Biso   1.000  O
  H113     1.0000 0.71303  0.62103  0.21208  Biso   1.000  H
  H114     1.0000 0.67609  0.61860  0.27150  Biso   1.000  H
  C90      1.0000 0.84265  0.65360  0.26809  Biso   1.000  C
  C91      1.0000 0.53947  0.69463  0.21358  Biso   1.000  C
  O26      1.0000 0.90393  0.68439  0.22970  Biso   1.000  O
  H115     1.0000 0.84596  0.67850  0.30089  Biso   1.000  H
  H116     1.0000 0.88111  0.61369  0.27719  Biso   1.000  H
  C92      1.0000 0.47567  0.75243  0.20851  Biso   1.000  C
  H117     1.0000 0.49690  0.66589  0.23510  Biso   1.000  H
  H118     1.0000 0.54089  0.67631  0.17778  Biso   1.000  H
  C93      1.0000 0.03398  0.68762  0.24179  Biso   1.000  C
  O27      1.0000 0.52141  0.79341  0.16983  Biso   1.000  O
  H119     1.0000 0.48169  0.77290  0.24358  Biso   1.000  H
  H120     1.0000 0.39116  0.74411  0.19739  Biso   1.000  H
  H121     1.0000 0.06750  0.64603  0.24752  Biso   1.000  H
  H122     1.0000 0.05551  0.71210  0.27439  Biso   1.000  H
  C94      1.0000 0.08033  0.71743  0.19459  Biso   1.000  C
  C95      1.0000 0.44220  0.84173  0.15290  Biso   1.000  C
  O28      1.0000 0.06369  0.78369  0.19869  Biso   1.000  O
  H123     1.0000 0.16511  0.70780  0.19430  Biso   1.000  H
  H124     1.0000 0.03712  0.70182  0.16118  Biso   1.000  H
  C96      1.0000 0.48333  0.87561  0.10561  Biso   1.000  C
  H125     1.0000 0.43716  0.87070  0.18261  Biso   1.000  H
  H126     1.0000 0.36247  0.82463  0.14271  Biso   1.000  H
  C97      1.0000 0.09485  0.82051  0.15749  Biso   1.000  C
  O29      1.0000 0.49565  0.82930  0.06385  Biso   1.000  O
  H127     1.0000 0.42483  0.90710  0.09250  Biso   1.000  H
  H128     1.0000 0.55990  0.89603  0.11609  Biso   1.000  H
  C98      1.0000 0.10397  0.88500  0.16849  Biso   1.000  C
  C99      1.0000 0.11058  0.79720  0.10659  Biso   1.000  C
  C100     1.0000 0.50640  0.84659  0.01011  Biso   1.000  C
  H129     1.0000 0.09252  0.90019  0.20279  Biso   1.000  H
  C101     1.0000 0.13033  0.92603  0.12782  Biso   1.000  C
  C102     1.0000 0.13524  0.83939  0.06551  Biso   1.000  C
  H130     1.0000 0.10513  0.75449  0.09961  Biso   1.000  H
  C103     1.0000 0.53300  0.79869  0.97780  Biso   1.000  C
  C104     1.0000 0.49084  0.90500  0.99139  Biso   1.000  C
  C105     1.0000 0.14365  0.90519  0.07619  Biso   1.000  C
  C106     1.0000 0.13590  0.99491  0.13821  Biso   1.000  C
  O30      1.0000 0.15229  0.81369  0.01709  Biso   1.000  O
  H131     1.0000 0.54446  0.75860  0.99180  Biso   1.000  H
  C107     1.0000 0.54302  0.81051  0.92438  Biso   1.000  C
  H132     1.0000 0.47689  0.93729  0.01502  Biso   1.000  H
  C108     1.0000 0.49570  0.91710  0.93591  Biso   1.000  C
  H133     1.0000 0.15770  0.93322  0.04891  Biso   1.000  H
  N9       1.0000 0.25276  0.02210  0.13139  Biso   1.000  N
  H134     1.0000 0.07470  0.01542  0.11361  Biso   1.000  H
  H135     1.0000 0.11752  0.00271  0.17490  Biso   1.000  H
  C109     1.0000 0.16665  0.85243  0.97268  Biso   1.000  C
  O31      1.0000 0.57086  0.76603  0.88720  Biso   1.000  O
  C110     1.0000 0.52288  0.86963  0.90299  Biso   1.000  C
  C111     1.0000 0.46481  0.98210  0.91229  Biso   1.000  C
  C112     1.0000 0.35172  0.01299  0.16699  Biso   1.000  C
  H136     1.0000 0.26004  0.03799  0.10131  Biso   1.000  H
  H137     1.0000 0.22370  0.88551  0.98348  Biso   1.000  H
  H138     1.0000 0.09025  0.87131  0.95921  Biso   1.000  H
  C113     1.0000 0.21159  0.81360  0.92998  Biso   1.000  C
  C114     1.0000 0.58128  0.70252  0.90429  Biso   1.000  C
  H139     1.0000 0.52786  0.87682  0.86642  Biso   1.000  H
  H140     1.0000 0.49818  0.98640  0.87799  Biso   1.000  H
  H141     1.0000 0.37807  0.98612  0.90530  Biso   1.000  H
  N10      1.0000 0.51114  0.03210  0.94861  Biso   1.000  N
  O32      1.0000 0.34623  0.98822  0.21030  Biso   1.000  O
  N11      1.0000 0.45675  0.03570  0.14982  Biso   1.000  N
  O33      1.0000 0.12765  0.76832  0.91017  Biso   1.000  O
  H142     1.0000 0.22991  0.84033  0.90039  Biso   1.000  H
  H143     1.0000 0.28561  0.79308  0.94472  Biso   1.000  H
  C115     1.0000 0.62036  0.66481  0.85810  Biso   1.000  C
  H144     1.0000 0.50447  0.68738  0.91379  Biso   1.000  H
  H145     1.0000 0.64017  0.69879  0.93591  Biso   1.000  H
  H146     1.0000 0.46273  0.05350  0.96599  Biso   1.000  H
  C116     1.0000 0.62836  0.04472  0.95470  Biso   1.000  C
  C117     1.0000 0.57295  0.03650  0.17859  Biso   1.000  C
  H147     1.0000 0.45807  0.06402  0.12798  Biso   1.000  H
  C118     1.0000 0.17091  0.72710  0.87088  Biso   1.000  C
  O34      1.0000 0.73477  0.68220  0.84970  Biso   1.000  O
  H148     1.0000 0.61862  0.62061  0.86678  Biso   1.000  H
  H149     1.0000 0.56580  0.67201  0.82550  Biso   1.000  H
  N12      1.0000 0.66021  0.08893  0.99371  Biso   1.000  N
  O35      1.0000 0.70152  0.01921  0.92759  Biso   1.000  O
  C119     1.0000 0.66485  0.06243  0.15160  Biso   1.000  C
  C120     1.0000 0.60191  0.01159  0.23108  Biso   1.000  C
  H150     1.0000 0.25329  0.71509  0.88282  Biso   1.000  H
  H151     1.0000 0.16995  0.74850  0.83638  Biso   1.000  H
  C121     1.0000 0.09398  0.67042  0.86411  Biso   1.000  C
  C122     1.0000 0.78555  0.64780  0.80931  Biso   1.000  C
  H152     1.0000 0.60249  0.10743  0.00739  Biso   1.000  H
  C123     1.0000 0.78260  0.10771  0.01408  Biso   1.000  C
  H153     1.0000 0.64620  0.07762  0.11649  Biso   1.000  H
  C124     1.0000 0.78030  0.06589  0.17510  Biso   1.000  C
  H154     1.0000 0.54484  0.99280  0.25040  Biso   1.000  H
  C125     1.0000 0.72140  0.01710  0.25170  Biso   1.000  C
  O36      1.0000 0.97905  0.68519  0.83870  Biso   1.000  O
  H155     1.0000 0.13152  0.63981  0.84251  Biso   1.000  H
  H156     1.0000 0.08672  0.65201  0.89942  Biso   1.000  H
  C126     1.0000 0.90815  0.63220  0.82688  Biso   1.000  C
  H157     1.0000 0.78180  0.67220  0.77619  Biso   1.000  H
  H158     1.0000 0.73953  0.60981  0.80152  Biso   1.000  H
  C127     1.0000 0.79146  0.16383  0.04242  Biso   1.000  C
  C128     1.0000 0.88086  0.07640  0.00552  Biso   1.000  C
  H159     1.0000 0.83897  0.08500  0.15688  Biso   1.000  H
  C129     1.0000 0.80980  0.04121  0.22539  Biso   1.000  C
  H160     1.0000 0.74265  0.00280  0.28681  Biso   1.000  H
  H161     1.0000 0.91106  0.60621  0.85911  Biso   1.000  H
  H162     1.0000 0.94107  0.60832  0.79880  Biso   1.000  H
  H163     1.0000 0.72219  0.18673  0.04652  Biso   1.000  H
  C130     1.0000 0.89549  0.18439  0.06312  Biso   1.000  C
  H164     1.0000 0.87592  0.03981  0.98518  Biso   1.000  H
  C131     1.0000 0.98801  0.09911  0.02691  Biso   1.000  C
  H165     1.0000 0.88921  0.04112  0.24131  Biso   1.000  H
  H166     1.0000 0.89882  0.22079  0.08382  Biso   1.000  H
  C132     1.0000 0.99502  0.15621  0.05609  Biso   1.000  C
  H167     1.0000 0.05810  0.07720  0.02249  Biso   1.000  H
  H168     1.0000 0.06906  0.17280  0.06981  Biso   1.000  H
  C133     1.0000 0.71166  0.68640  0.43001  Biso   1.000  C
  O37      1.0000 0.62772  0.73173  0.41020  Biso   1.000  O
  C134     1.0000 0.66673  0.64762  0.47271  Biso   1.000  C
  H169     1.0000 0.72997  0.65972  0.40038  Biso   1.000  H
  H170     1.0000 0.78568  0.70692  0.44470  Biso   1.000  H
  C135     1.0000 0.67098  0.77290  0.37091  Biso   1.000  C
  O38      1.0000 0.65228  0.68631  0.51711  Biso   1.000  O
  H171     1.0000 0.72377  0.61449  0.48350  Biso   1.000  H
  H172     1.0000 0.59031  0.62869  0.45919  Biso   1.000  H
  C136     1.0000 0.59405  0.82963  0.36409  Biso   1.000  C
  H173     1.0000 0.75336  0.78491  0.38280  Biso   1.000  H
  H174     1.0000 0.67012  0.75150  0.33641  Biso   1.000  H
  C137     1.0000 0.63513  0.66061  0.56550  Biso   1.000  C
  O39      1.0000 0.47903  0.81481  0.33868  Biso   1.000  O
  H175     1.0000 0.63159  0.86019  0.34250  Biso   1.000  H
  H176     1.0000 0.58679  0.84799  0.39940  Biso   1.000  H
  C138     1.0000 0.64355  0.59481  0.57621  Biso   1.000  C
  C139     1.0000 0.61057  0.70280  0.60661  Biso   1.000  C
  C140     1.0000 0.40814  0.86780  0.32691  Biso   1.000  C
  C141     1.0000 0.63022  0.57402  0.62780  Biso   1.000  C
  H177     1.0000 0.65768  0.56682  0.54889  Biso   1.000  H
  C142     1.0000 0.59474  0.67949  0.65747  Biso   1.000  C
  H178     1.0000 0.60502  0.74551  0.59959  Biso   1.000  H
  C143     1.0000 0.28553  0.85220  0.30929  Biso   1.000  C
  H179     1.0000 0.41104  0.89379  0.35910  Biso   1.000  H
  H180     1.0000 0.44105  0.89173  0.29878  Biso   1.000  H
  C144     1.0000 0.60396  0.61500  0.66851  Biso   1.000  C
  C145     1.0000 0.63579  0.50509  0.63819  Biso   1.000  C
  O40      1.0000 0.56358  0.71631  0.69867  Biso   1.000  O
  O41      1.0000 0.23475  0.81780  0.34968  Biso   1.000  O
  H181     1.0000 0.28178  0.82780  0.27621  Biso   1.000  H
  H182     1.0000 0.23959  0.89019  0.30150  Biso   1.000  H
  H183     1.0000 0.59242  0.59981  0.70281  Biso   1.000  H
  N13      1.0000 0.75264  0.47790  0.63137  Biso   1.000  N
  H184     1.0000 0.57458  0.48463  0.61359  Biso   1.000  H
  H185     1.0000 0.61741  0.49729  0.67488  Biso   1.000  H
  C146     1.0000 0.58022  0.78262  0.69461  Biso   1.000  C
  C147     1.0000 0.12034  0.83519  0.35808  Biso   1.000  C
  C148     1.0000 0.85162  0.48701  0.66701  Biso   1.000  C
  H186     1.0000 0.75992  0.46201  0.60130  Biso   1.000  H
  C149     1.0000 0.53387  0.81243  0.74178  Biso   1.000  C
  H187     1.0000 0.66500  0.79220  0.69429  Biso   1.000  H
  H188     1.0000 0.53702  0.79822  0.66121  Biso   1.000  H
  C150     1.0000 0.08127  0.79752  0.40431  Biso   1.000  C
  H189     1.0000 0.11861  0.87939  0.36681  Biso   1.000  H
  H190     1.0000 0.06578  0.82799  0.32549  Biso   1.000  H
  N14      1.0000 0.95664  0.46430  0.64980  Biso   1.000  N
  O42      1.0000 0.84612  0.51182  0.71028  Biso   1.000  O
  O43      1.0000 0.40382  0.81561  0.72968  Biso   1.000  O
  H191     1.0000 0.56739  0.85402  0.74750  Biso   1.000  H
  H192     1.0000 0.55540  0.78790  0.77441  Biso   1.000  H
  O44      1.0000 0.07084  0.73402  0.38719  Biso   1.000  O
  H193     1.0000 0.00445  0.81262  0.41381  Biso   1.000  H
  H194     1.0000 0.14014  0.80121  0.43589  Biso   1.000  H
  H195     1.0000 0.95797  0.43598  0.62800  Biso   1.000  H
  C151     1.0000 0.07284  0.46350  0.67858  Biso   1.000  C
  C152     1.0000 0.34262  0.84640  0.76808  Biso   1.000  C
  C153     1.0000 0.04301  0.68949  0.42441  Biso   1.000  C
  C154     1.0000 0.16474  0.43762  0.65159  Biso   1.000  C
  C155     1.0000 0.10180  0.48841  0.73110  Biso   1.000  C
  C156     1.0000 0.21649  0.85659  0.74628  Biso   1.000  C
  H196     1.0000 0.34585  0.82150  0.80088  Biso   1.000  H
  H197     1.0000 0.38099  0.88631  0.77717  Biso   1.000  H
  C157     1.0000 0.02286  0.63042  0.40302  Biso   1.000  C
  C158     1.0000 0.03298  0.70131  0.47778  Biso   1.000  C
  H198     1.0000 0.14618  0.42238  0.61648  Biso   1.000  H
  C159     1.0000 0.28028  0.43411  0.67509  Biso   1.000  C
  C160     1.0000 0.22129  0.48290  0.75168  Biso   1.000  C
  H199     1.0000 0.04473  0.50720  0.75038  Biso   1.000  H
  O45      1.0000 0.15930  0.79860  0.73820  Biso   1.000  O
  H200     1.0000 0.21292  0.87902  0.71211  Biso   1.000  H
  H201     1.0000 0.17598  0.88140  0.77149  Biso   1.000  H
  C161     1.0000 0.99577  0.58290  0.43589  Biso   1.000  C
  H202     1.0000 0.02784  0.62322  0.36640  Biso   1.000  H
  C162     1.0000 0.00628  0.65341  0.51009  Biso   1.000  C
  H203     1.0000 0.04444  0.74140  0.49178  Biso   1.000  H
  H204     1.0000 0.33887  0.41500  0.65690  Biso   1.000  H
  C163     1.0000 0.30969  0.45879  0.72538  Biso   1.000  C
  H205     1.0000 0.24253  0.49720  0.78679  Biso   1.000  H
  C164     1.0000 0.03937  0.80542  0.71361  Biso   1.000  C
  C165     1.0000 0.96488  0.51790  0.41231  Biso   1.000  C
  C166     1.0000 0.99081  0.59500  0.49138  Biso   1.000  C
  O46      1.0000 0.99555  0.67070  0.56387  Biso   1.000  O
  H206     1.0000 0.38910  0.45893  0.74129  Biso   1.000  H
  C167     1.0000 0.97556  0.74762  0.70849  Biso   1.000  C
  H207     1.0000 0.04078  0.82369  0.67781  Biso   1.000  H
  H208     1.0000 0.99679  0.83411  0.73508  Biso   1.000  H
  N15      1.0000 0.01112  0.46790  0.44860  Biso   1.000  N
  H209     1.0000 0.99817  0.51360  0.37801  Biso   1.000  H
  H210     1.0000 0.87805  0.51393  0.40529  Biso   1.000  H
  H211     1.0000 0.97686  0.56271  0.51500  Biso   1.000  H
  C168     1.0000 0.98322  0.62439  0.60560  Biso   1.000  C
  O47      1.0000 0.02130  0.70659  0.66981  Biso   1.000  O
  H212     1.0000 0.98159  0.72710  0.74360  Biso   1.000  H
  H213     1.0000 0.89105  0.75589  0.69737  Biso   1.000  H
  C169     1.0000 0.12833  0.45533  0.45469  Biso   1.000  C
  H214     1.0000 0.96272  0.44650  0.46601  Biso   1.000  H
  H215     1.0000 0.05980  0.60402  0.61611  Biso   1.000  H
  H216     1.0000 0.92472  0.59290  0.59249  Biso   1.000  H
  C170     1.0000 0.94208  0.65832  0.65289  Biso   1.000  C
  O48      1.0000 0.20150  0.48079  0.42761  Biso   1.000  O
  N16      1.0000 0.16019  0.41112  0.49369  Biso   1.000  N
  H217     1.0000 0.93713  0.62930  0.68260  Biso   1.000  H
  H218     1.0000 0.86236  0.67542  0.64270  Biso   1.000  H
  H219     1.0000 0.10239  0.39262  0.50741  Biso   1.000  H
  C171     1.0000 0.28250  0.39229  0.51411  Biso   1.000  C
  C172     1.0000 0.29135  0.33621  0.54240  Biso   1.000  C
  C173     1.0000 0.38075  0.42360  0.50550  Biso   1.000  C
  H220     1.0000 0.22217  0.31332  0.54650  Biso   1.000  H
  C174     1.0000 0.39547  0.31561  0.56310  Biso   1.000  C
  C175     1.0000 0.48790  0.40089  0.52689  Biso   1.000  C
  H221     1.0000 0.37591  0.46019  0.48521  Biso   1.000  H
  H222     1.0000 0.39871  0.27921  0.58380  Biso   1.000  H
  C176     1.0000 0.49490  0.34379  0.55608  Biso   1.000  C
  H223     1.0000 0.55808  0.42280  0.52251  Biso   1.000  H
  H224     1.0000 0.56895  0.32720  0.56980  Biso   1.000  H
  Ne1      1.0000 0.43045  0.37198  0.05694  Biso   1.000  Ne
  He1      1.0000 0.29441  0.48231  0.12552  Biso   1.000  He
  He2      1.0000 0.31038  0.39493  0.07236  Biso   1.000  He
  He3      1.0000 0.32081  0.40764  0.02496  Biso   1.000  He
  Ar1      1.0000 0.36297  0.38753  0.02938  Biso   1.000  Ar
  Ne2      1.0000 0.93042  0.12802  0.55694  Biso   1.000  Ne
  He4      1.0000 0.79270  0.01517  0.62744  Biso   1.000  He
  He5      1.0000 0.81042  0.10540  0.57252  Biso   1.000  He
  He6      1.0000 0.82063  0.09215  0.52536  Biso   1.000  He
  Ar2      1.0000 0.86304  0.11235  0.52941  Biso   1.000  Ar
  Ne3      1.0000 0.43040  0.62802  0.55694  Biso   1.000  Ne
  He7      1.0000 0.29264  0.51514  0.62743  Biso   1.000  He
  He8      1.0000 0.31039  0.60542  0.57248  Biso   1.000  He
  He9      1.0000 0.32026  0.59646  0.52628  Biso   1.000  He
  Ar3      1.0000 0.36299  0.61235  0.52940  Biso   1.000  Ar
  Ne4      1.0000 0.93046  0.87199  0.05694  Biso   1.000  Ne
  He10     1.0000 0.79443  0.98232  0.12553  Biso   1.000  He
  He11     1.0000 0.81043  0.89492  0.07237  Biso   1.000  He
  He12     1.0000 0.82084  0.90762  0.02499  Biso   1.000  He
  Ar4      1.0000 0.86298  0.88763  0.02938  Biso   1.000  Ar
