data_image0
_cell_length_a       10.859
_cell_length_b       30.507
_cell_length_c       11.081
_cell_angle_alpha    90
_cell_angle_beta     94.22
_cell_angle_gamma    90

_symmetry_space_group_name_H-M    "P 1"
_symmetry_int_tables_number       1

loop_
  _symmetry_equiv_pos_as_xyz
  'x, y, z'

loop_
  _atom_site_label
  _atom_site_occupancy
  _atom_site_fract_x
  _atom_site_fract_y
  _atom_site_fract_z
  _atom_site_thermal_displace_type
  _atom_site_B_iso_or_equiv
  _atom_site_type_symbol
  C1       1.0000 0.58127  0.46901  0.61081  Biso   1.000  C
  C2       1.0000 0.50167  0.43318  0.58212  Biso   1.000  C
  C3       1.0000 0.68514  0.47628  0.54810  Biso   1.000  C
  H1       1.0000 0.56319  0.48841  0.67406  Biso   1.000  H
  C4       1.0000 0.52732  0.40522  0.48702  Biso   1.000  C
  C5       1.0000 0.39261  0.42659  0.65895  Biso   1.000  C
  C6       1.0000 0.70700  0.44855  0.45290  Biso   1.000  C
  O1       1.0000 0.77381  0.50815  0.57253  Biso   1.000  O
  C7       1.0000 0.45526  0.36333  0.45335  Biso   1.000  C
  C8       1.0000 0.62947  0.41413  0.42232  Biso   1.000  C
  C9       1.0000 0.42310  0.40273  0.77812  Biso   1.000  C
  H2       1.0000 0.32805  0.40981  0.61108  Biso   1.000  H
  H3       1.0000 0.35775  0.45560  0.67677  Biso   1.000  H
  Br1      1.0000 0.84613  0.45927  0.36314  Biso   1.000  Br
  C10      1.0000 0.75972  0.54076  0.65958  Biso   1.000  C
  C11      1.0000 0.51930  0.32497  0.51887  Biso   1.000  C
  H4       1.0000 0.45229  0.35861  0.36476  Biso   1.000  H
  H5       1.0000 0.36958  0.36601  0.47733  Biso   1.000  H
  H6       1.0000 0.64582  0.39601  0.35563  Biso   1.000  H
  C12      1.0000 0.41262  0.35700  0.79305  Biso   1.000  C
  C13      1.0000 0.46194  0.42803  0.87839  Biso   1.000  C
  O2       1.0000 0.73750  0.52588  0.77441  Biso   1.000  O
  H7       1.0000 0.69067  0.56010  0.63035  Biso   1.000  H
  H8       1.0000 0.83565  0.55889  0.66628  Biso   1.000  H
  C14      1.0000 0.62470  0.30819  0.47046  Biso   1.000  C
  C15      1.0000 0.48355  0.30819  0.62890  Biso   1.000  C
  C16      1.0000 0.37348  0.32566  0.69116  Biso   1.000  C
  C17      1.0000 0.44292  0.33868  0.90716  Biso   1.000  C
  C18      1.0000 0.49421  0.40915  0.99050  Biso   1.000  C
  H9       1.0000 0.46665  0.45901  0.86997  Biso   1.000  H
  C19      1.0000 0.81911  0.49749  0.83730  Biso   1.000  C
  Br2      1.0000 0.70311  0.53191  0.96897  Biso   1.000  Br
  C20      1.0000 0.69890  0.27689  0.53027  Biso   1.000  C
  H10      1.0000 0.64622  0.31862  0.39399  Biso   1.000  H
  C21      1.0000 0.55498  0.27459  0.68501  Biso   1.000  C
  H11      1.0000 0.32788  0.30082  0.72410  Biso   1.000  H
  H12      1.0000 0.31693  0.34100  0.63099  Biso   1.000  H
  H13      1.0000 0.43297  0.30799  0.91811  Biso   1.000  H
  C22      1.0000 0.48737  0.36395  0.00489  Biso   1.000  C
  Br3      1.0000 0.54424  0.44393  0.12569  Biso   1.000  Br
  C23      1.0000 0.92409  0.47910  0.79550  Biso   1.000  C
  C24      1.0000 0.78344  0.48753  0.95096  Biso   1.000  C
  O3       1.0000 0.80645  0.26142  0.48720  Biso   1.000  O
  C25      1.0000 0.66034  0.25922  0.63723  Biso   1.000  C
  H14      1.0000 0.52996  0.26210  0.75776  Biso   1.000  H
  O4       1.0000 0.51865  0.34697  0.11846  Biso   1.000  O
  C26      1.0000 0.99675  0.44967  0.86916  Biso   1.000  C
  H15      1.0000 0.94766  0.48622  0.71695  Biso   1.000  H
  H16      1.0000 0.71136  0.50031  0.97946  Biso   1.000  H
  C27      1.0000 0.85306  0.45904  0.02199  Biso   1.000  C
  C28      1.0000 0.87906  0.29079  0.42404  Biso   1.000  C
  Br4      1.0000 0.75122  0.21320  0.71677  Biso   1.000  Br
  C29      1.0000 0.57213  0.30527  0.12913  Biso   1.000  C
  C30      1.0000 0.11100  0.42997  0.81848  Biso   1.000  C
  C31      1.0000 0.95994  0.43915  0.98353  Biso   1.000  C
  H17      1.0000 0.82818  0.45239  0.10036  Biso   1.000  H
  O5       1.0000 0.99928  0.29151  0.47978  Biso   1.000  O
  H18      1.0000 0.84274  0.32052  0.42476  Biso   1.000  H
  H19      1.0000 0.88104  0.28131  0.33870  Biso   1.000  H
  O6       1.0000 0.69448  0.30901  0.18388  Biso   1.000  O
  H20      1.0000 0.52229  0.28629  0.17917  Biso   1.000  H
  H21      1.0000 0.57396  0.29170  0.04805  Biso   1.000  H
  C32      1.0000 0.08266  0.39175  0.73288  Biso   1.000  C
  H22      1.0000 0.16797  0.41981  0.88662  Biso   1.000  H
  H23      1.0000 0.15377  0.45311  0.77486  Biso   1.000  H
  C33      1.0000 0.02407  0.40584  0.06860  Biso   1.000  C
  C34      1.0000 0.02261  0.32534  0.56348  Biso   1.000  C
  C35      1.0000 0.78892  0.31626  0.10606  Biso   1.000  C
  C36      1.0000 0.07907  0.34785  0.77088  Biso   1.000  C
  C37      1.0000 0.05718  0.40109  0.60945  Biso   1.000  C
  C38      1.0000 0.95985  0.36169  0.05475  Biso   1.000  C
  H24      1.0000 0.11144  0.40279  0.04995  Biso   1.000  H
  H25      1.0000 0.02241  0.41610  0.15320  Biso   1.000  H
  C39      1.0000 0.04900  0.31544  0.68438  Biso   1.000  C
  C40      1.0000 0.02756  0.36831  0.52520  Biso   1.000  C
  C41      1.0000 0.85751  0.35412  0.12171  Biso   1.000  C
  C42      1.0000 0.81926  0.28482  0.02444  Biso   1.000  C
  C43      1.0000 0.10774  0.33363  0.90137  Biso   1.000  C
  H26      1.0000 0.06015  0.43059  0.58275  Biso   1.000  H
  C44      1.0000 0.99389  0.32937  0.97331  Biso   1.000  C
  H27      1.0000 0.04656  0.28570  0.70962  Biso   1.000  H
  H28      1.0000 0.01082  0.37539  0.44213  Biso   1.000  H
  Br5      1.0000 0.06300  0.36821  0.36196  Biso   1.000  Br
  H29      1.0000 0.83488  0.37539  0.17854  Biso   1.000  H
  C45      1.0000 0.92222  0.29187  0.95946  Biso   1.000  C
  H30      1.0000 0.77115  0.25889  0.01285  Biso   1.000  H
  Br6      1.0000 0.72912  0.23611  0.00996  Biso   1.000  Br
  H31      1.0000 0.15099  0.30501  0.90209  Biso   1.000  H
  H32      1.0000 0.16477  0.35520  0.94218  Biso   1.000  H
  H33      1.0000 0.94416  0.27020  0.90336  Biso   1.000  H
  C46      1.0000 0.41886  0.53099  0.38920  Biso   1.000  C
  C47      1.0000 0.31490  0.52372  0.45191  Biso   1.000  C
  H34      1.0000 0.43694  0.51159  0.32585  Biso   1.000  H
  C48      1.0000 0.49846  0.56682  0.41788  Biso   1.000  C
  O7       1.0000 0.22622  0.49185  0.42747  Biso   1.000  O
  C49      1.0000 0.29304  0.55145  0.54710  Biso   1.000  C
  C50      1.0000 0.47272  0.59478  0.51299  Biso   1.000  C
  C51      1.0000 0.60742  0.57341  0.34097  Biso   1.000  C
  C52      1.0000 0.24032  0.45924  0.34042  Biso   1.000  C
  Br7      1.0000 0.15400  0.54073  0.63687  Biso   1.000  Br
  C53      1.0000 0.37067  0.58587  0.57769  Biso   1.000  C
  C54      1.0000 0.54486  0.63667  0.54656  Biso   1.000  C
  C55      1.0000 0.57703  0.59727  0.22188  Biso   1.000  C
  H35      1.0000 0.67208  0.59019  0.38893  Biso   1.000  H
  H36      1.0000 0.64238  0.54440  0.32323  Biso   1.000  H
  O8       1.0000 0.26263  0.47412  0.22559  Biso   1.000  O
  H37      1.0000 0.30945  0.43990  0.36956  Biso   1.000  H
  H38      1.0000 0.16439  0.44111  0.33373  Biso   1.000  H
  H39      1.0000 0.35422  0.60399  0.64438  Biso   1.000  H
  C56      1.0000 0.48073  0.67503  0.48104  Biso   1.000  C
  H40      1.0000 0.54774  0.64139  0.63515  Biso   1.000  H
  H41      1.0000 0.63055  0.63402  0.52267  Biso   1.000  H
  C57      1.0000 0.58741  0.64300  0.20686  Biso   1.000  C
  C58      1.0000 0.53809  0.57197  0.12162  Biso   1.000  C
  C59      1.0000 0.18102  0.50251  0.16270  Biso   1.000  C
  Br8      1.0000 0.29702  0.46809  0.03104  Biso   1.000  Br
  C60      1.0000 0.37533  0.69181  0.52946  Biso   1.000  C
  C61      1.0000 0.51649  0.69181  0.37110  Biso   1.000  C
  C62      1.0000 0.55711  0.66132  0.09284  Biso   1.000  C
  C63      1.0000 0.62665  0.67434  0.30875  Biso   1.000  C
  H42      1.0000 0.53339  0.54099  0.13003  Biso   1.000  H
  C64      1.0000 0.50592  0.59085  0.00950  Biso   1.000  C
  C65      1.0000 0.07604  0.52090  0.20451  Biso   1.000  C
  C66      1.0000 0.21659  0.51247  0.04896  Biso   1.000  C
  C67      1.0000 0.30114  0.72311  0.46973  Biso   1.000  C
  H43      1.0000 0.35382  0.68142  0.60601  Biso   1.000  H
  C68      1.0000 0.44515  0.72541  0.31500  Biso   1.000  C
  H44      1.0000 0.56707  0.69201  0.08189  Biso   1.000  H
  C69      1.0000 0.51266  0.63605  0.99511  Biso   1.000  C
  H45      1.0000 0.67225  0.69922  0.27590  Biso   1.000  H
  H46      1.0000 0.68311  0.65900  0.36902  Biso   1.000  H
  Br9      1.0000 0.45579  0.55607  0.87422  Biso   1.000  Br
  H47      1.0000 0.05237  0.51382  0.28296  Biso   1.000  H
  C70      1.0000 0.00328  0.55033  0.13076  Biso   1.000  C
  H48      1.0000 0.28868  0.49969  0.02054  Biso   1.000  H
  C71      1.0000 0.14698  0.54096  0.97801  Biso   1.000  C
  O9       1.0000 0.19368  0.73862  0.51281  Biso   1.000  O
  C72      1.0000 0.33970  0.74078  0.36277  Biso   1.000  C
  H49      1.0000 0.47016  0.73790  0.24215  Biso   1.000  H
  O10      1.0000 0.48138  0.65303  0.88146  Biso   1.000  O
  C73      1.0000 0.04009  0.56085  0.01638  Biso   1.000  C
  C74      1.0000 0.88913  0.57007  0.18152  Biso   1.000  C
  H50      1.0000 0.17185  0.54761  0.89965  Biso   1.000  H
  C75      1.0000 0.12107  0.70921  0.57597  Biso   1.000  C
  Br10     1.0000 0.24881  0.78684  0.28314  Biso   1.000  Br
  C76      1.0000 0.42800  0.69473  0.87078  Biso   1.000  C
  C77      1.0000 0.97597  0.59416  0.93141  Biso   1.000  C
  C78      1.0000 0.91738  0.60829  0.26713  Biso   1.000  C
  H51      1.0000 0.83207  0.58019  0.11338  Biso   1.000  H
  H52      1.0000 0.84636  0.54689  0.22514  Biso   1.000  H
  O11      1.0000 0.00085  0.70853  0.52023  Biso   1.000  O
  H53      1.0000 0.15738  0.67952  0.57515  Biso   1.000  H
  H54      1.0000 0.11909  0.71869  0.66130  Biso   1.000  H
  O12      1.0000 0.30556  0.69099  0.81612  Biso   1.000  O
  H55      1.0000 0.47775  0.71371  0.82083  Biso   1.000  H
  H56      1.0000 0.42607  0.70830  0.95186  Biso   1.000  H
  H57      1.0000 0.88859  0.59721  0.94996  Biso   1.000  H
  H58      1.0000 0.97772  0.58390  0.84680  Biso   1.000  H
  C79      1.0000 0.04018  0.63831  0.94516  Biso   1.000  C
  C80      1.0000 0.92106  0.65218  0.22912  Biso   1.000  C
  C81      1.0000 0.94294  0.59891  0.39046  Biso   1.000  C
  C82      1.0000 0.97743  0.67470  0.43652  Biso   1.000  C
  C83      1.0000 0.21121  0.68374  0.89395  Biso   1.000  C
  C84      1.0000 0.00624  0.67063  0.02669  Biso   1.000  C
  C85      1.0000 0.14262  0.64588  0.87829  Biso   1.000  C
  C86      1.0000 0.95113  0.68456  0.31563  Biso   1.000  C
  C87      1.0000 0.89229  0.66637  0.09863  Biso   1.000  C
  H59      1.0000 0.93997  0.56941  0.41716  Biso   1.000  H
  C88      1.0000 0.97257  0.63169  0.47480  Biso   1.000  C
  C89      1.0000 0.18077  0.71518  0.97548  Biso   1.000  C
  C90      1.0000 0.07791  0.70813  0.04054  Biso   1.000  C
  H60      1.0000 0.16515  0.62461  0.82137  Biso   1.000  H
  H61      1.0000 0.95347  0.71430  0.29038  Biso   1.000  H
  H62      1.0000 0.84914  0.69499  0.09791  Biso   1.000  H
  H63      1.0000 0.83527  0.64480  0.05782  Biso   1.000  H
  H64      1.0000 0.98922  0.62461  0.55787  Biso   1.000  H
  Br11     1.0000 0.93703  0.63179  0.63795  Biso   1.000  Br
  H65      1.0000 0.22888  0.74111  0.98706  Biso   1.000  H
  Br12     1.0000 0.27100  0.76389  0.98996  Biso   1.000  Br
  H66      1.0000 0.05587  0.72980  0.09655  Biso   1.000  H
  C91      1.0000 0.68089  0.78480  0.47552  Biso   1.000  C
  C92      1.0000 0.71122  0.81627  0.39390  Biso   1.000  C
  C93      1.0000 0.57793  0.79185  0.54050  Biso   1.000  C
  H67      1.0000 0.72891  0.75891  0.48711  Biso   1.000  H
  Br13     1.0000 0.77102  0.73609  0.49000  Biso   1.000  Br
  O13      1.0000 0.80567  0.80903  0.31608  Biso   1.000  O
  C94      1.0000 0.64264  0.85413  0.37825  Biso   1.000  C
  C95      1.0000 0.50626  0.82935  0.52665  Biso   1.000  C
  H68      1.0000 0.55599  0.77022  0.59660  Biso   1.000  H
  C96      1.0000 0.92802  0.80529  0.37083  Biso   1.000  C
  H69      1.0000 0.66526  0.87541  0.32142  Biso   1.000  H
  C97      1.0000 0.54020  0.86170  0.44521  Biso   1.000  C
  C98      1.0000 0.39231  0.83364  0.59859  Biso   1.000  C
  O14      1.0000 0.98141  0.84699  0.38151  Biso   1.000  O
  H70      1.0000 0.97786  0.78631  0.32079  Biso   1.000  H
  H71      1.0000 0.92610  0.79169  0.45191  Biso   1.000  H
  C99      1.0000 0.47608  0.90586  0.43137  Biso   1.000  C
  C100     1.0000 0.42108  0.84784  0.72908  Biso   1.000  C
  H72      1.0000 0.34916  0.80500  0.59787  Biso   1.000  H
  H73      1.0000 0.33537  0.85521  0.55778  Biso   1.000  H
  C101     1.0000 0.01277  0.86397  0.49507  Biso   1.000  C
  C102     1.0000 0.54011  0.93916  0.51643  Biso   1.000  C
  H74      1.0000 0.38861  0.90281  0.45001  Biso   1.000  H
  H75      1.0000 0.47774  0.91612  0.34676  Biso   1.000  H
  C103     1.0000 0.45115  0.81542  0.81559  Biso   1.000  C
  C104     1.0000 0.41749  0.89173  0.76708  Biso   1.000  C
  C105     1.0000 0.05713  0.83866  0.59280  Biso   1.000  C
  C106     1.0000 0.00593  0.90914  0.50946  Biso   1.000  C
  C107     1.0000 0.50339  0.94968  0.63081  Biso   1.000  C
  C108     1.0000 0.64700  0.95906  0.47797  Biso   1.000  C
  C109     1.0000 0.47745  0.82532  0.93648  Biso   1.000  C
  H76      1.0000 0.45358  0.78569  0.79034  Biso   1.000  H
  C110     1.0000 0.44296  0.90107  0.89051  Biso   1.000  C
  C111     1.0000 0.38914  0.92995  0.68148  Biso   1.000  C
  H77      1.0000 0.06717  0.80801  0.58185  Biso   1.000  H
  C112     1.0000 0.08743  0.85702  0.70691  Biso   1.000  C
  Br14     1.0000 0.95581  0.94395  0.37427  Biso   1.000  Br
  C113     1.0000 0.03811  0.92802  0.62158  Biso   1.000  C
  C114     1.0000 0.57606  0.97909  0.70446  Biso   1.000  C
  H78      1.0000 0.67196  0.95240  0.39960  Biso   1.000  H
  C115     1.0000 0.71661  0.98751  0.54900  Biso   1.000  C
  C116     1.0000 0.47259  0.86829  0.97476  Biso   1.000  C
  O15      1.0000 0.50086  0.79149  0.02018  Biso   1.000  O
  H79      1.0000 0.43999  0.93061  0.91721  Biso   1.000  H
  H80      1.0000 0.33219  0.91979  0.61343  Biso   1.000  H
  H81      1.0000 0.34637  0.95309  0.72510  Biso   1.000  H
  C117     1.0000 0.07705  0.90274  0.72193  Biso   1.000  C
  C118     1.0000 0.12667  0.82568  0.80880  Biso   1.000  C
  H82      1.0000 0.03349  0.95899  0.62999  Biso   1.000  H
  C119     1.0000 0.68103  0.99751  0.66266  Biso   1.000  C
  H83      1.0000 0.55249  0.98620  0.78301  Biso   1.000  H
  H84      1.0000 0.78879  0.00030  0.52050  Biso   1.000  H
  Br15     1.0000 0.79703  0.03189  0.53099  Biso   1.000  Br
  H85      1.0000 0.48924  0.87541  0.05792  Biso   1.000  H
  Br16     1.0000 0.43705  0.86819  0.13800  Biso   1.000  Br
  C120     1.0000 0.62109  0.79077  0.07602  Biso   1.000  C
  C121     1.0000 0.10745  0.92657  0.84101  Biso   1.000  C
  C122     1.0000 0.01660  0.80821  0.87106  Biso   1.000  C
  H86      1.0000 0.17227  0.80080  0.77586  Biso   1.000  H
  H87      1.0000 0.18313  0.84099  0.86897  Biso   1.000  H
  O16      1.0000 0.76265  0.02586  0.72555  Biso   1.000  O
  O17      1.0000 0.69369  0.76140  0.01276  Biso   1.000  O
  H88      1.0000 0.65740  0.82050  0.07520  Biso   1.000  H
  H89      1.0000 0.61911  0.78130  0.16126  Biso   1.000  H
  C123     1.0000 0.99847  0.93320  0.91784  Biso   1.000  C
  H90      1.0000 0.17210  0.90979  0.88888  Biso   1.000  H
  H91      1.0000 0.14239  0.95562  0.82319  Biso   1.000  H
  C124     1.0000 0.98075  0.82499  0.98109  Biso   1.000  C
  C125     1.0000 0.94516  0.77461  0.81495  Biso   1.000  C
  C126     1.0000 0.74033  0.04078  0.84038  Biso   1.000  C
  C127     1.0000 0.80115  0.77687  0.96969  Biso   1.000  C
  C128     1.0000 0.91887  0.96899  0.88915  Biso   1.000  C
  C129     1.0000 0.97274  0.90520  0.01294  Biso   1.000  C
  C130     1.0000 0.87535  0.80818  0.02950  Biso   1.000  C
  C131     1.0000 0.04489  0.86334  0.04661  Biso   1.000  C
  H92      1.0000 0.97018  0.76209  0.74220  Biso   1.000  H
  C132     1.0000 0.83982  0.75924  0.86282  Biso   1.000  C
  O18      1.0000 0.72625  0.00813  0.92752  Biso   1.000  O
  H93      1.0000 0.80947  0.06012  0.86961  Biso   1.000  H
  H94      1.0000 0.66450  0.05890  0.83368  Biso   1.000  H
  C133     1.0000 0.81501  0.97627  0.95186  Biso   1.000  C
  H95      1.0000 0.93696  0.98840  0.82590  Biso   1.000  H
  C134     1.0000 0.87068  0.91415  0.07764  Biso   1.000  C
  H96      1.0000 0.85393  0.81860  0.10597  Biso   1.000  H
  H97      1.0000 0.04776  0.85859  0.13520  Biso   1.000  H
  H98      1.0000 0.13058  0.86600  0.02272  Biso   1.000  H
  Br17     1.0000 0.74884  0.71318  0.78319  Biso   1.000  Br
  C135     1.0000 0.79305  0.94857  0.04706  Biso   1.000  C
  H99      1.0000 0.85432  0.89599  0.14434  Biso   1.000  H
  Br18     1.0000 0.65402  0.95926  0.13682  Biso   1.000  Br
  C136     1.0000 0.31924  0.21520  0.52448  Biso   1.000  C
  C137     1.0000 0.42211  0.20815  0.45951  Biso   1.000  C
  C138     1.0000 0.28881  0.18373  0.60610  Biso   1.000  C
  H100     1.0000 0.27113  0.24109  0.51290  Biso   1.000  H
  Br19     1.0000 0.22901  0.26391  0.51000  Biso   1.000  Br
  C139     1.0000 0.49387  0.17065  0.47326  Biso   1.000  C
  H101     1.0000 0.44414  0.22982  0.40340  Biso   1.000  H
  O19      1.0000 0.19446  0.19101  0.68392  Biso   1.000  O
  C140     1.0000 0.35748  0.14587  0.62167  Biso   1.000  C
  C141     1.0000 0.60773  0.16636  0.40141  Biso   1.000  C
  C142     1.0000 0.45984  0.13830  0.55479  Biso   1.000  C
  C143     1.0000 0.07202  0.19471  0.62918  Biso   1.000  C
  H102     1.0000 0.33487  0.12459  0.67858  Biso   1.000  H
  C144     1.0000 0.57905  0.15216  0.27093  Biso   1.000  C
  H103     1.0000 0.65097  0.19500  0.40205  Biso   1.000  H
  H104     1.0000 0.66476  0.14479  0.44222  Biso   1.000  H
  C145     1.0000 0.52404  0.09414  0.56855  Biso   1.000  C
  O20      1.0000 0.01863  0.15301  0.61850  Biso   1.000  O
  H105     1.0000 0.02227  0.21369  0.67922  Biso   1.000  H
  H106     1.0000 0.07394  0.20831  0.54810  Biso   1.000  H
  C146     1.0000 0.54889  0.18458  0.18442  Biso   1.000  C
  C147     1.0000 0.58264  0.10827  0.23292  Biso   1.000  C
  C148     1.0000 0.45992  0.06084  0.48358  Biso   1.000  C
  H107     1.0000 0.61143  0.09719  0.55000  Biso   1.000  H
  H108     1.0000 0.52239  0.08392  0.65316  Biso   1.000  H
  C149     1.0000 0.98736  0.13603  0.50493  Biso   1.000  C
  C150     1.0000 0.52259  0.17468  0.06352  Biso   1.000  C
  H109     1.0000 0.54654  0.21431  0.20957  Biso   1.000  H
  C151     1.0000 0.55708  0.09893  0.10949  Biso   1.000  C
  C152     1.0000 0.61090  0.07005  0.31852  Biso   1.000  C
  C153     1.0000 0.49674  0.05032  0.36920  Biso   1.000  C
  C154     1.0000 0.35303  0.04097  0.52195  Biso   1.000  C
  C155     1.0000 0.94291  0.16134  0.40720  Biso   1.000  C
  C156     1.0000 0.99410  0.09086  0.49046  Biso   1.000  C
  O21      1.0000 0.49918  0.20851  0.97982  Biso   1.000  O
  C157     1.0000 0.52754  0.13171  0.02516  Biso   1.000  C
  H110     1.0000 0.56014  0.06939  0.08280  Biso   1.000  H
  H111     1.0000 0.66795  0.08021  0.38657  Biso   1.000  H
  H112     1.0000 0.65376  0.04691  0.27491  Biso   1.000  H
  C158     1.0000 0.42406  0.02091  0.29545  Biso   1.000  C
  C159     1.0000 0.28343  0.01249  0.45100  Biso   1.000  C
  H113     1.0000 0.32817  0.04760  0.60040  Biso   1.000  H
  C160     1.0000 0.91261  0.14298  0.29310  Biso   1.000  C
  H114     1.0000 0.93295  0.19199  0.41806  Biso   1.000  H
  C161     1.0000 0.96193  0.07198  0.37843  Biso   1.000  C
  Br20     1.0000 0.04422  0.05605  0.62574  Biso   1.000  Br
  C162     1.0000 0.37904  0.20923  0.92399  Biso   1.000  C
  H115     1.0000 0.51080  0.12459  0.94209  Biso   1.000  H
  Br21     1.0000 0.56299  0.13181  0.86200  Biso   1.000  Br
  C163     1.0000 0.31900  0.00252  0.33726  Biso   1.000  C
  H116     1.0000 0.44764  0.01380  0.21699  Biso   1.000  H
  Br22     1.0000 0.20301  0.96811  0.46901  Biso   1.000  Br
  H117     1.0000 0.21134  0.99970  0.47951  Biso   1.000  H
  C164     1.0000 0.87337  0.17432  0.19121  Biso   1.000  C
  C165     1.0000 0.92299  0.09726  0.27808  Biso   1.000  C
  H118     1.0000 0.96664  0.04101  0.37001  Biso   1.000  H
  O22      1.0000 0.30644  0.23860  0.98724  Biso   1.000  O
  H119     1.0000 0.34273  0.17950  0.92480  Biso   1.000  H
  H120     1.0000 0.38102  0.21870  0.83875  Biso   1.000  H
  O23      1.0000 0.23738  0.97414  0.27437  Biso   1.000  O
  C166     1.0000 0.98352  0.19179  0.12886  Biso   1.000  C
  H121     1.0000 0.82786  0.19920  0.22405  Biso   1.000  H
  H122     1.0000 0.81691  0.15901  0.13103  Biso   1.000  H
  C167     1.0000 0.89259  0.07343  0.15899  Biso   1.000  C
  C168     1.0000 0.19889  0.22313  0.03031  Biso   1.000  C
  C169     1.0000 0.25971  0.95922  0.15962  Biso   1.000  C
  C170     1.0000 0.05487  0.22539  0.18496  Biso   1.000  C
  C171     1.0000 0.01929  0.17501  0.01891  Biso   1.000  C
  C172     1.0000 0.00156  0.06680  0.08207  Biso   1.000  C
  H123     1.0000 0.82803  0.09021  0.11112  Biso   1.000  H
  H124     1.0000 0.85774  0.04442  0.17682  Biso   1.000  H
  C173     1.0000 0.16031  0.24076  0.13718  Biso   1.000  C
  C174     1.0000 0.12468  0.19182  0.97050  Biso   1.000  C
  O24      1.0000 0.27379  0.99187  0.07248  Biso   1.000  O
  H125     1.0000 0.19066  0.93992  0.13040  Biso   1.000  H
  H126     1.0000 0.33563  0.94110  0.16632  Biso   1.000  H
  H127     1.0000 0.02995  0.23791  0.25781  Biso   1.000  H
  C175     1.0000 0.95515  0.13666  0.95340  Biso   1.000  C
  C176     1.0000 0.02729  0.09480  0.98697  Biso   1.000  C
  C177     1.0000 0.08116  0.03101  0.11076  Biso   1.000  C
  Br23     1.0000 0.25120  0.28682  0.21681  Biso   1.000  Br
  H128     1.0000 0.14620  0.18140  0.89404  Biso   1.000  H
  C178     1.0000 0.18512  0.02373  0.04814  Biso   1.000  C
  H129     1.0000 0.95228  0.14141  0.86481  Biso   1.000  H
  H130     1.0000 0.86946  0.13400  0.97729  Biso   1.000  H
  C179     1.0000 0.12935  0.08585  0.92227  Biso   1.000  C
  H131     1.0000 0.06308  0.01160  0.17410  Biso   1.000  H
  C180     1.0000 0.20698  0.05143  0.95295  Biso   1.000  C
  H132     1.0000 0.14580  0.10401  0.85558  Biso   1.000  H
  Br24     1.0000 0.34611  0.04074  0.86309  Biso   1.000  Br
