data_image0
_cell_length_a       19.12
_cell_length_b       15.55
_cell_length_c       11.172
_cell_angle_alpha    119.11
_cell_angle_beta     98.95
_cell_angle_gamma    101.6

_symmetry_space_group_name_H-M    "P 1"
_symmetry_int_tables_number       1

loop_
  _symmetry_equiv_pos_as_xyz
  'x, y, z'

loop_
  _atom_site_label
  _atom_site_occupancy
  _atom_site_fract_x
  _atom_site_fract_y
  _atom_site_fract_z
  _atom_site_thermal_displace_type
  _atom_site_B_iso_or_equiv
  _atom_site_type_symbol
  C1       1.0000 0.55999  0.66675  0.35514  Biso   1.000  C
  C2       1.0000 0.49187  0.67647  0.31266  Biso   1.000  C
  C3       1.0000 0.62742  0.73733  0.39514  Biso   1.000  C
  H1       1.0000 0.56000  0.60300  0.35599  Biso   1.000  H
  C4       1.0000 0.41978  0.60087  0.28156  Biso   1.000  C
  C5       1.0000 0.49422  0.76700  0.30741  Biso   1.000  C
  C6       1.0000 0.62961  0.82912  0.39568  Biso   1.000  C
  H2       1.0000 0.67499  0.72502  0.42400  Biso   1.000  H
  C7       1.0000 0.35078  0.57950  0.17140  Biso   1.000  C
  H3       1.0000 0.40698  0.62601  0.37401  Biso   1.000  H
  H4       1.0000 0.42899  0.53304  0.25002  Biso   1.000  H
  C8       1.0000 0.56150  0.83870  0.34891  Biso   1.000  C
  H5       1.0000 0.44702  0.77803  0.27405  Biso   1.000  H
  C9       1.0000 0.70058  0.90910  0.44448  Biso   1.000  C
  C10      1.0000 0.28141  0.56733  0.18963  Biso   1.000  C
  C11      1.0000 0.35499  0.56584  0.04033  Biso   1.000  C
  H6       1.0000 0.56198  0.90200  0.34505  Biso   1.000  H
  N1       1.0000 0.76197  0.90778  0.49511  Biso   1.000  N
  H7       1.0000 0.69898  0.97000  0.43697  Biso   1.000  H
  C12      1.0000 0.21859  0.54151  0.08881  Biso   1.000  C
  H8       1.0000 0.27699  0.57797  0.28295  Biso   1.000  H
  H9       1.0000 0.40399  0.57398  0.02102  Biso   1.000  H
  C13      1.0000 0.29159  0.54071  0.93758  Biso   1.000  C
  C14      1.0000 0.82809  0.99361  0.54445  Biso   1.000  C
  H10      1.0000 0.16898  0.53298  0.10898  Biso   1.000  H
  C15      1.0000 0.22199  0.52676  0.95645  Biso   1.000  C
  H11      1.0000 0.29598  0.53201  0.84501  Biso   1.000  H
  C16      1.0000 0.88477  0.95819  0.46765  Biso   1.000  C
  H12      1.0000 0.85098  0.02697  0.64999  Biso   1.000  H
  H13      1.0000 0.81401  0.04600  0.52600  Biso   1.000  H
  C17      1.0000 0.15301  0.49559  0.84522  Biso   1.000  C
  N2       1.0000 0.86440  0.93529  0.32103  Biso   1.000  N
  H14      1.0000 0.88899  0.89400  0.46497  Biso   1.000  H
  H15      1.0000 0.93397  0.01497  0.52300  Biso   1.000  H
  N3       1.0000 0.08941  0.46200  0.84748  Biso   1.000  N
  H16      1.0000 0.15800  0.50199  0.76199  Biso   1.000  H
  C18      1.0000 0.88692  0.84889  0.22364  Biso   1.000  C
  C19      1.0000 0.89323  0.02822  0.31502  Biso   1.000  C
  C20      1.0000 0.02552  0.43041  0.73078  Biso   1.000  C
  C21      1.0000 0.82988  0.74506  0.16325  Biso   1.000  C
  H17      1.0000 0.93501  0.85102  0.27705  Biso   1.000  H
  H18      1.0000 0.89399  0.85701  0.14298  Biso   1.000  H
  C22      1.0000 0.84070  0.02792  0.20197  Biso   1.000  C
  H19      1.0000 0.94202  0.02900  0.29400  Biso   1.000  H
  H20      1.0000 0.90001  0.09204  0.41005  Biso   1.000  H
  C23      1.0000 0.97328  0.49384  0.78312  Biso   1.000  C
  H21      1.0000 0.99804  0.35504  0.68605  Biso   1.000  H
  H22      1.0000 0.04301  0.44098  0.65795  Biso   1.000  H
  N4       1.0000 0.76678  0.72779  0.05588  Biso   1.000  N
  H23      1.0000 0.85298  0.68895  0.11895  Biso   1.000  H
  H24      1.0000 0.81301  0.74302  0.24198  Biso   1.000  H
  H25      1.0000 0.82298  0.95601  0.11402  Biso   1.000  H
  N5       1.0000 0.77547  0.05658  0.24187  Biso   1.000  N
  H26      1.0000 0.86800  0.07800  0.18095  Biso   1.000  H
  H27      1.0000 0.92399  0.45801  0.70697  Biso   1.000  H
  H28      1.0000 0.96598  0.49699  0.87204  Biso   1.000  H
  N6       1.0000 0.00308  0.60071  0.81680  Biso   1.000  N
  C24      1.0000 0.70329  0.70512  0.06682  Biso   1.000  C
  C25      1.0000 0.71160  0.99328  0.17086  Biso   1.000  C
  C26      1.0000 0.98272  0.60851  0.68927  Biso   1.000  C
  C27      1.0000 0.98389  0.67611  0.93951  Biso   1.000  C
  H29      1.0000 0.69902  0.70001  0.15102  Biso   1.000  H
  C28      1.0000 0.63401  0.68443  0.96385  Biso   1.000  C
  H30      1.0000 0.70699  0.92402  0.08602  Biso   1.000  H
  C29      1.0000 0.64412  0.01333  0.20379  Biso   1.000  C
  H31      1.0000 0.93498  0.62703  0.68605  Biso   1.000  H
  H32      1.0000 0.97500  0.54002  0.60100  Biso   1.000  H
  C30      1.0000 0.04321  0.69059  0.69388  Biso   1.000  C
  C31      1.0000 0.03990  0.71420  0.07873  Biso   1.000  C
  H33      1.0000 0.93401  0.64196  0.93897  Biso   1.000  H
  H34      1.0000 0.98199  0.73701  0.92996  Biso   1.000  H
  C32      1.0000 0.56380  0.65549  0.97083  Biso   1.000  C
  C33      1.0000 0.64023  0.68893  0.84522  Biso   1.000  C
  C34      1.0000 0.57442  0.95109  0.11166  Biso   1.000  C
  C35      1.0000 0.64800  0.10281  0.33572  Biso   1.000  C
  N7       1.0000 0.10549  0.65403  0.65934  Biso   1.000  N
  H35      1.0000 0.02199  0.70702  0.62298  Biso   1.000  H
  H36      1.0000 0.06098  0.75501  0.79299  Biso   1.000  H
  N8       1.0000 0.10622  0.79073  0.10104  Biso   1.000  N
  H37      1.0000 0.01798  0.74595  0.15896  Biso   1.000  H
  H38      1.0000 0.05299  0.65401  0.07605  Biso   1.000  H
  H39      1.0000 0.55800  0.65201  0.05599  Biso   1.000  H
  C36      1.0000 0.50010  0.63075  0.86925  Biso   1.000  C
  C37      1.0000 0.57703  0.66753  0.74429  Biso   1.000  C
  H40      1.0000 0.69098  0.70802  0.83300  Biso   1.000  H
  C38      1.0000 0.51078  0.97491  0.13450  Biso   1.000  C
  H41      1.0000 0.56998  0.88499  0.02295  Biso   1.000  H
  C39      1.0000 0.58369  0.12334  0.35835  Biso   1.000  C
  H42      1.0000 0.69699  0.14903  0.41005  Biso   1.000  H
  C40      1.0000 0.16930  0.70477  0.74419  Biso   1.000  C
  C41      1.0000 0.16799  0.78337  0.13558  Biso   1.000  C
  C42      1.0000 0.50500  0.63641  0.74837  Biso   1.000  C
  H43      1.0000 0.45002  0.60900  0.88105  Biso   1.000  H
  H44      1.0000 0.58401  0.67502  0.66203  Biso   1.000  H
  C43      1.0000 0.51392  0.06361  0.26203  Biso   1.000  C
  H45      1.0000 0.46198  0.92901  0.05996  Biso   1.000  H
  H46      1.0000 0.58798  0.18598  0.45103  Biso   1.000  H
  C44      1.0000 0.23732  0.67710  0.72123  Biso   1.000  C
  H47      1.0000 0.17497  0.76997  0.83600  Biso   1.000  H
  C45      1.0000 0.23950  0.85804  0.16883  Biso   1.000  C
  H48      1.0000 0.17000  0.72199  0.14201  Biso   1.000  H
  C46      1.0000 0.43832  0.60621  0.63135  Biso   1.000  C
  C47      1.0000 0.44548  0.09418  0.28670  Biso   1.000  C
  C48      1.0000 0.30549  0.74200  0.81294  Biso   1.000  C
  C49      1.0000 0.23428  0.58523  0.59703  Biso   1.000  C
  C50      1.0000 0.30708  0.85627  0.22846  Biso   1.000  C
  C51      1.0000 0.24019  0.93781  0.14276  Biso   1.000  C
  C52      1.0000 0.36829  0.62940  0.66610  Biso   1.000  C
  H49      1.0000 0.42402  0.52902  0.56399  Biso   1.000  H
  H50      1.0000 0.45398  0.64199  0.58105  Biso   1.000  H
  C53      1.0000 0.37450  0.00970  0.24015  Biso   1.000  C
  H51      1.0000 0.45698  0.14499  0.39203  Biso   1.000  H
  H52      1.0000 0.43604  0.12904  0.23404  Biso   1.000  H
  C54      1.0000 0.37138  0.71969  0.78859  Biso   1.000  C
  H53      1.0000 0.30901  0.80797  0.90100  Biso   1.000  H
  C55      1.0000 0.29839  0.56298  0.57300  Biso   1.000  C
  H54      1.0000 0.18501  0.53601  0.52495  Biso   1.000  H
  C56      1.0000 0.37318  0.93007  0.26708  Biso   1.000  C
  H55      1.0000 0.30803  0.79902  0.24401  Biso   1.000  H
  H56      1.0000 0.19202  0.94198  0.09900  Biso   1.000  H
  C57      1.0000 0.30671  0.01033  0.17794  Biso   1.000  C
  H57      1.0000 0.42098  0.76898  0.86003  Biso   1.000  H
  H58      1.0000 0.29403  0.49599  0.48505  Biso   1.000  H
  H59      1.0000 0.42102  0.92699  0.31502  Biso   1.000  H
  H60      1.0000 0.30602  0.06604  0.15703  Biso   1.000  H
  C58      1.0000 0.44002  0.33334  0.64495  Biso   1.000  C
  C59      1.0000 0.37259  0.26275  0.60494  Biso   1.000  C
  C60      1.0000 0.50811  0.32350  0.68732  Biso   1.000  C
  H61      1.0000 0.43999  0.39697  0.64398  Biso   1.000  H
  C61      1.0000 0.37038  0.17092  0.60430  Biso   1.000  C
  H62      1.0000 0.32500  0.27502  0.57598  Biso   1.000  H
  C62      1.0000 0.50581  0.23297  0.69257  Biso   1.000  C
  C63      1.0000 0.58021  0.39911  0.71842  Biso   1.000  C
  C64      1.0000 0.29941  0.09088  0.55550  Biso   1.000  C
  C65      1.0000 0.43849  0.16128  0.65106  Biso   1.000  C
  H63      1.0000 0.55298  0.22198  0.72604  Biso   1.000  H
  C66      1.0000 0.64921  0.42048  0.82858  Biso   1.000  C
  H64      1.0000 0.59301  0.37397  0.62597  Biso   1.000  H
  H65      1.0000 0.57101  0.46700  0.74996  Biso   1.000  H
  N9       1.0000 0.23801  0.09219  0.50487  Biso   1.000  N
  H66      1.0000 0.30101  0.02998  0.56300  Biso   1.000  H
  H67      1.0000 0.43802  0.09802  0.65503  Biso   1.000  H
  C67      1.0000 0.71860  0.43275  0.81045  Biso   1.000  C
  C68      1.0000 0.64501  0.43420  0.95965  Biso   1.000  C
  C69      1.0000 0.17191  0.00641  0.45564  Biso   1.000  C
  C70      1.0000 0.78139  0.45847  0.91117  Biso   1.000  C
  H68      1.0000 0.72300  0.42201  0.71703  Biso   1.000  H
  H69      1.0000 0.59600  0.42599  0.97896  Biso   1.000  H
  C71      1.0000 0.70841  0.45933  0.06240  Biso   1.000  C
  C72      1.0000 0.11521  0.04178  0.53233  Biso   1.000  C
  H70      1.0000 0.14900  0.97300  0.34999  Biso   1.000  H
  H71      1.0000 0.18598  0.95397  0.47398  Biso   1.000  H
  H72      1.0000 0.83100  0.46700  0.89100  Biso   1.000  H
  C73      1.0000 0.77800  0.47321  0.04353  Biso   1.000  C
  H73      1.0000 0.70401  0.46797  0.15497  Biso   1.000  H
  N10      1.0000 0.13558  0.06468  0.67895  Biso   1.000  N
  H74      1.0000 0.11100  0.10598  0.53501  Biso   1.000  H
  H75      1.0000 0.06601  0.98501  0.47698  Biso   1.000  H
  C74      1.0000 0.84697  0.50438  0.15475  Biso   1.000  C
  C75      1.0000 0.11313  0.15113  0.77645  Biso   1.000  C
  C76      1.0000 0.10681  0.97176  0.68496  Biso   1.000  C
  N11      1.0000 0.91058  0.53798  0.15250  Biso   1.000  N
  H76      1.0000 0.84199  0.49798  0.23799  Biso   1.000  H
  C77      1.0000 0.17010  0.25492  0.83673  Biso   1.000  C
  H77      1.0000 0.06499  0.14900  0.72303  Biso   1.000  H
  H78      1.0000 0.10600  0.14303  0.85700  Biso   1.000  H
  C78      1.0000 0.15930  0.97212  0.79801  Biso   1.000  C
  H79      1.0000 0.05802  0.97098  0.70598  Biso   1.000  H
  H80      1.0000 0.10000  0.90804  0.59003  Biso   1.000  H
  C79      1.0000 0.97448  0.56963  0.26920  Biso   1.000  C
  N12      1.0000 0.23321  0.27218  0.94410  Biso   1.000  N
  H81      1.0000 0.14701  0.31102  0.88103  Biso   1.000  H
  H82      1.0000 0.18698  0.25702  0.75800  Biso   1.000  H
  H83      1.0000 0.17700  0.04397  0.88596  Biso   1.000  H
  N13      1.0000 0.22451  0.94339  0.75811  Biso   1.000  N
  H84      1.0000 0.13200  0.92204  0.81903  Biso   1.000  H
  H85      1.0000 0.95703  0.55900  0.34203  Biso   1.000  H
  C80      1.0000 0.02671  0.50620  0.21686  Biso   1.000  C
  H86      1.0000 0.00203  0.64504  0.31403  Biso   1.000  H
  C81      1.0000 0.29670  0.29486  0.93316  Biso   1.000  C
  C82      1.0000 0.28839  0.00670  0.82911  Biso   1.000  C
  N14      1.0000 0.99691  0.39927  0.18318  Biso   1.000  N
  H87      1.0000 0.07600  0.54203  0.29301  Biso   1.000  H
  H88      1.0000 0.03402  0.50302  0.12805  Biso   1.000  H
  H89      1.0000 0.30097  0.29997  0.84896  Biso   1.000  H
  C83      1.0000 0.36599  0.31558  0.03623  Biso   1.000  C
  H90      1.0000 0.29299  0.07596  0.91396  Biso   1.000  H
  C84      1.0000 0.35592  0.98671  0.79619  Biso   1.000  C
  C85      1.0000 0.01733  0.39153  0.31071  Biso   1.000  C
  C86      1.0000 0.01610  0.32386  0.06047  Biso   1.000  C
  C87      1.0000 0.43618  0.34448  0.02915  Biso   1.000  C
  C88      1.0000 0.35982  0.31111  0.15475  Biso   1.000  C
  C89      1.0000 0.42562  0.04889  0.88832  Biso   1.000  C
  C90      1.0000 0.35199  0.89716  0.66426  Biso   1.000  C
  C91      1.0000 0.95682  0.30939  0.30610  Biso   1.000  C
  H91      1.0000 0.06502  0.37299  0.31403  Biso   1.000  H
  H92      1.0000 0.02499  0.46002  0.39898  Biso   1.000  H
  C92      1.0000 0.96008  0.28578  0.92125  Biso   1.000  C
  H93      1.0000 0.06598  0.35801  0.06101  Biso   1.000  H
  H94      1.0000 0.01800  0.26303  0.07002  Biso   1.000  H
  H95      1.0000 0.44198  0.34797  0.94399  Biso   1.000  H
  C93      1.0000 0.49988  0.36922  0.13073  Biso   1.000  C
  C94      1.0000 0.42302  0.33251  0.25568  Biso   1.000  C
  H96      1.0000 0.30901  0.29202  0.16698  Biso   1.000  H
  C95      1.0000 0.48921  0.02506  0.86548  Biso   1.000  C
  H97      1.0000 0.43000  0.11498  0.97702  Biso   1.000  H
  C96      1.0000 0.41632  0.87674  0.64173  Biso   1.000  C
  H98      1.0000 0.30301  0.85099  0.59003  Biso   1.000  H
  N15      1.0000 0.89451  0.34599  0.34074  Biso   1.000  N
  H99      1.0000 0.97801  0.29302  0.37699  Biso   1.000  H
  H100     1.0000 0.93900  0.24497  0.20699  Biso   1.000  H
  N16      1.0000 0.89383  0.20929  0.89905  Biso   1.000  N
  H101     1.0000 0.98201  0.25402  0.84102  Biso   1.000  H
  H102     1.0000 0.94701  0.34601  0.92404  Biso   1.000  H
  C97      1.0000 0.49500  0.36363  0.25161  Biso   1.000  C
  H103     1.0000 0.55003  0.39101  0.11904  Biso   1.000  H
  H104     1.0000 0.41598  0.32495  0.33795  Biso   1.000  H
  H105     1.0000 0.53802  0.07103  0.94002  Biso   1.000  H
  C98      1.0000 0.48608  0.93640  0.73805  Biso   1.000  C
  H106     1.0000 0.41200  0.81399  0.54895  Biso   1.000  H
  C99      1.0000 0.83068  0.29520  0.25579  Biso   1.000  C
  C100     1.0000 0.83199  0.21661  0.86440  Biso   1.000  C
  C101     1.0000 0.56173  0.39380  0.36874  Biso   1.000  C
  C102     1.0000 0.55451  0.90579  0.71327  Biso   1.000  C
  C103     1.0000 0.76273  0.32292  0.27885  Biso   1.000  C
  H107     1.0000 0.82501  0.23000  0.16398  Biso   1.000  H
  C104     1.0000 0.76049  0.14200  0.83115  Biso   1.000  C
  H108     1.0000 0.82999  0.27799  0.85797  Biso   1.000  H
  C105     1.0000 0.63170  0.37057  0.33388  Biso   1.000  C
  H109     1.0000 0.57602  0.47102  0.43599  Biso   1.000  H
  H110     1.0000 0.54602  0.35803  0.41904  Biso   1.000  H
  C106     1.0000 0.62550  0.99032  0.75993  Biso   1.000  C
  H111     1.0000 0.54302  0.85502  0.60805  Biso   1.000  H
  H112     1.0000 0.56403  0.87104  0.76605  Biso   1.000  H
  C107     1.0000 0.69451  0.25802  0.18715  Biso   1.000  C
  C108     1.0000 0.76570  0.41475  0.40295  Biso   1.000  C
  C109     1.0000 0.69290  0.14370  0.77152  Biso   1.000  C
  C110     1.0000 0.75981  0.06223  0.85722  Biso   1.000  C
  C111     1.0000 0.62860  0.28028  0.21139  Biso   1.000  C
  C112     1.0000 0.70160  0.43700  0.42698  Biso   1.000  C
  C113     1.0000 0.62680  0.06991  0.73290  Biso   1.000  C
  C114     1.0000 0.69329  0.98968  0.82214  Biso   1.000  C
  H113     1.0000 0.69097  0.19200  0.09898  Biso   1.000  H
  H114     1.0000 0.81499  0.46403  0.47503  Biso   1.000  H
  H115     1.0000 0.69201  0.20096  0.75596  Biso   1.000  H
  H116     1.0000 0.80802  0.05799  0.90098  Biso   1.000  H
  H117     1.0000 0.57900  0.23099  0.13995  Biso   1.000  H
  H118     1.0000 0.70602  0.50402  0.51504  Biso   1.000  H
  H119     1.0000 0.57901  0.07299  0.68496  Biso   1.000  H
  H120     1.0000 0.69397  0.93401  0.84295  Biso   1.000  H
