data_image0
_cell_length_a       13.202
_cell_length_b       10.701
_cell_length_c       8.683
_cell_angle_alpha    105.61
_cell_angle_beta     113.63
_cell_angle_gamma    94.77

_symmetry_space_group_name_H-M    "P 1"
_symmetry_int_tables_number       1

loop_
  _symmetry_equiv_pos_as_xyz
  'x, y, z'

loop_
  _atom_site_label
  _atom_site_occupancy
  _atom_site_fract_x
  _atom_site_fract_y
  _atom_site_fract_z
  _atom_site_thermal_displace_type
  _atom_site_B_iso_or_equiv
  _atom_site_type_symbol
  O1       1.0000 0.06036  0.98591  0.55437  Biso   1.000  O
  C1       1.0000 0.06445  0.93585  0.41288  Biso   1.000  C
  N1       1.0000 0.16562  0.91198  0.40622  Biso   1.000  N
  C2       1.0000 0.96562  0.90894  0.24514  Biso   1.000  C
  C3       1.0000 0.27027  0.94475  0.58248  Biso   1.000  C
  C4       1.0000 0.17798  0.86010  0.24861  Biso   1.000  C
  C5       1.0000 0.86085  0.92375  0.23182  Biso   1.000  C
  C6       1.0000 0.97543  0.85855  0.07687  Biso   1.000  C
  C7       1.0000 0.37284  0.04804  0.62365  Biso   1.000  C
  H1       1.0000 0.35499  0.95600  0.64696  Biso   1.000  H
  H2       1.0000 0.24905  0.94103  0.68999  Biso   1.000  H
  H3       1.0000 0.32705  0.87902  0.57302  Biso   1.000  H
  H4       1.0000 0.25100  0.03397  0.61299  Biso   1.000  H
  O2       1.0000 0.26516  0.83388  0.25900  Biso   1.000  O
  C8       1.0000 0.08286  0.83312  0.08287  Biso   1.000  C
  C9       1.0000 0.76391  0.89589  0.07581  Biso   1.000  C
  H5       1.0000 0.85302  0.96101  0.35492  Biso   1.000  H
  C10      1.0000 0.87757  0.83379  0.91140  Biso   1.000  C
  C11      1.0000 0.36340  0.18709  0.71691  Biso   1.000  C
  H6       1.0000 0.40097  0.02899  0.51999  Biso   1.000  H
  C12      1.0000 0.08809  0.80026  0.92752  Biso   1.000  C
  C13      1.0000 0.77142  0.84764  0.91433  Biso   1.000  C
  H7       1.0000 0.68406  0.90997  0.07701  Biso   1.000  H
  C14      1.0000 0.89055  0.78204  0.75433  Biso   1.000  C
  C15      1.0000 0.47993  0.28209  0.79818  Biso   1.000  C
  H8       1.0000 0.32799  0.21202  0.81097  Biso   1.000  H
  H9       1.0000 0.37692  0.27202  0.67694  Biso   1.000  H
  C16      1.0000 0.99240  0.76746  0.76139  Biso   1.000  C
  H10      1.0000 0.16998  0.79800  0.92899  Biso   1.000  H
  C17      1.0000 0.66923  0.82125  0.74034  Biso   1.000  C
  C18      1.0000 0.79513  0.74722  0.59179  Biso   1.000  C
  C19      1.0000 0.44330  0.41127  0.88451  Biso   1.000  C
  H11      1.0000 0.51800  0.35303  0.93194  Biso   1.000  H
  H12      1.0000 0.50998  0.31795  0.71597  Biso   1.000  H
  H13      1.0000 0.51394  0.17798  0.75901  Biso   1.000  H
  H14      1.0000 0.00099  0.73102  0.63895  Biso   1.000  H
  N2       1.0000 0.68743  0.77686  0.58539  Biso   1.000  N
  O3       1.0000 0.58076  0.83787  0.73780  Biso   1.000  O
  O4       1.0000 0.79409  0.71728  0.44177  Biso   1.000  O
  C20      1.0000 0.39595  0.49746  0.78286  Biso   1.000  C
  H15      1.0000 0.38100  0.37699  0.92301  Biso   1.000  H
  H16      1.0000 0.51805  0.47303  0.00202  Biso   1.000  H
  C21      1.0000 0.57399  0.74656  0.40620  Biso   1.000  C
  C22      1.0000 0.36521  0.48860  0.63204  Biso   1.000  C
  H17      1.0000 0.45892  0.58895  0.85293  Biso   1.000  H
  H18      1.0000 0.32201  0.51104  0.80404  Biso   1.000  H
  C23      1.0000 0.58288  0.87827  0.34305  Biso   1.000  C
  H19      1.0000 0.56897  0.65796  0.30494  Biso   1.000  H
  H20      1.0000 0.49999  0.73402  0.43098  Biso   1.000  H
  C24      1.0000 0.33545  0.60589  0.57995  Biso   1.000  C
  H21      1.0000 0.43199  0.46299  0.59593  Biso   1.000  H
  H22      1.0000 0.29094  0.40902  0.55397  Biso   1.000  H
  C25      1.0000 0.49427  0.84147  0.15653  Biso   1.000  C
  H23      1.0000 0.66597  0.90502  0.34997  Biso   1.000  H
  H24      1.0000 0.56794  0.96203  0.42698  Biso   1.000  H
  N3       1.0000 0.24112  0.57373  0.40995  Biso   1.000  N
  H25      1.0000 0.40796  0.65894  0.57795  Biso   1.000  H
  H26      1.0000 0.31497  0.66899  0.67894  Biso   1.000  H
  C26      1.0000 0.49019  0.96539  0.10017  Biso   1.000  C
  H27      1.0000 0.51496  0.76604  0.07099  Biso   1.000  H
  H28      1.0000 0.41299  0.80401  0.14800  Biso   1.000  H
  C27      1.0000 0.14197  0.57922  0.41887  Biso   1.000  C
  C28      1.0000 0.24740  0.52212  0.24927  Biso   1.000  C
  C29      1.0000 0.44115  0.06782  0.19023  Biso   1.000  C
  H29      1.0000 0.57497  0.01199  0.13201  Biso   1.000  H
  C30      1.0000 0.03860  0.55291  0.24181  Biso   1.000  C
  O5       1.0000 0.13473  0.62876  0.55863  Biso   1.000  O
  C31      1.0000 0.15183  0.49568  0.08687  Biso   1.000  C
  O6       1.0000 0.34431  0.50550  0.26513  Biso   1.000  O
  C32      1.0000 0.50935  0.22736  0.25298  Biso   1.000  C
  H30      1.0000 0.35193  0.05301  0.10297  Biso   1.000  H
  H31      1.0000 0.45099  0.05102  0.31200  Biso   1.000  H
  C33      1.0000 0.93438  0.57310  0.24154  Biso   1.000  C
  C34      1.0000 0.04604  0.51610  0.08034  Biso   1.000  C
  C35      1.0000 0.15664  0.45182  0.92872  Biso   1.000  C
  C36      1.0000 0.58929  0.24533  0.37809  Biso   1.000  C
  H32      1.0000 0.45299  0.29204  0.26804  Biso   1.000  H
  H33      1.0000 0.53096  0.23794  0.14893  Biso   1.000  H
  C37      1.0000 0.84087  0.55719  0.08114  Biso   1.000  C
  H34      1.0000 0.92697  0.60096  0.36491  Biso   1.000  H
  C38      1.0000 0.95350  0.48711  0.91860  Biso   1.000  C
  C39      1.0000 0.05920  0.42282  0.75672  Biso   1.000  C
  H35      1.0000 0.23698  0.43803  0.93099  Biso   1.000  H
  C40      1.0000 0.65674  0.40425  0.42352  Biso   1.000  C
  H36      1.0000 0.56698  0.24403  0.48400  Biso   1.000  H
  H37      1.0000 0.64195  0.17501  0.36596  Biso   1.000  H
  H38      1.0000 0.76397  0.58399  0.07994  Biso   1.000  H
  C41      1.0000 0.85028  0.50509  0.92153  Biso   1.000  C
  C42      1.0000 0.96147  0.44217  0.76405  Biso   1.000  C
  H39      1.0000 0.06495  0.38798  0.63202  Biso   1.000  H
  N4       1.0000 0.75976  0.43421  0.59485  Biso   1.000  N
  H40      1.0000 0.60400  0.47503  0.43404  Biso   1.000  H
  H41      1.0000 0.68094  0.40701  0.31893  Biso   1.000  H
  C43      1.0000 0.75016  0.48996  0.74646  Biso   1.000  C
  C44      1.0000 0.85861  0.40536  0.59192  Biso   1.000  C
  O7       1.0000 0.65701  0.51619  0.73954  Biso   1.000  O
  O8       1.0000 0.85656  0.35563  0.44457  Biso   1.000  O
  O9       1.0000 0.85660  0.35564  0.44459  Biso   1.000  O
  C45      1.0000 0.85865  0.40536  0.59194  Biso   1.000  C
  N5       1.0000 0.75979  0.43422  0.59487  Biso   1.000  N
  C46      1.0000 0.96150  0.44218  0.76407  Biso   1.000  C
  C47      1.0000 0.65678  0.40426  0.42354  Biso   1.000  C
  C48      1.0000 0.75019  0.48997  0.74648  Biso   1.000  C
  C49      1.0000 0.95354  0.48712  0.91862  Biso   1.000  C
  C50      1.0000 0.05923  0.42283  0.75674  Biso   1.000  C
  C51      1.0000 0.58933  0.24534  0.37810  Biso   1.000  C
  H42      1.0000 0.60403  0.47504  0.43406  Biso   1.000  H
  H43      1.0000 0.68098  0.40702  0.31895  Biso   1.000  H
  O10      1.0000 0.65704  0.51620  0.73956  Biso   1.000  O
  C52      1.0000 0.85031  0.50510  0.92155  Biso   1.000  C
  C53      1.0000 0.04608  0.51611  0.08036  Biso   1.000  C
  C54      1.0000 0.15668  0.45183  0.92874  Biso   1.000  C
  H44      1.0000 0.06499  0.38798  0.63204  Biso   1.000  H
  C55      1.0000 0.50938  0.22737  0.25300  Biso   1.000  C
  H45      1.0000 0.56702  0.24404  0.48402  Biso   1.000  H
  H46      1.0000 0.64199  0.17502  0.36598  Biso   1.000  H
  C56      1.0000 0.84091  0.55719  0.08116  Biso   1.000  C
  C57      1.0000 0.03864  0.55292  0.24183  Biso   1.000  C
  C58      1.0000 0.15186  0.49569  0.08688  Biso   1.000  C
  H47      1.0000 0.23701  0.43804  0.93101  Biso   1.000  H
  C59      1.0000 0.44118  0.06783  0.19025  Biso   1.000  C
  H48      1.0000 0.45302  0.29204  0.26806  Biso   1.000  H
  H49      1.0000 0.53099  0.23795  0.14895  Biso   1.000  H
  C60      1.0000 0.93441  0.57311  0.24156  Biso   1.000  C
  H50      1.0000 0.76400  0.58400  0.07996  Biso   1.000  H
  C61      1.0000 0.14200  0.57923  0.41889  Biso   1.000  C
  C62      1.0000 0.24744  0.52213  0.24929  Biso   1.000  C
  H51      1.0000 0.35196  0.05302  0.10299  Biso   1.000  H
  H52      1.0000 0.45102  0.05103  0.31202  Biso   1.000  H
  C63      1.0000 0.49022  0.96540  0.10019  Biso   1.000  C
  H53      1.0000 0.92700  0.60096  0.36493  Biso   1.000  H
  O11      1.0000 0.13477  0.62876  0.55865  Biso   1.000  O
  N6       1.0000 0.24116  0.57374  0.40997  Biso   1.000  N
  O12      1.0000 0.34434  0.50551  0.26514  Biso   1.000  O
  H54      1.0000 0.57500  0.01199  0.13203  Biso   1.000  H
  H55      1.0000 0.43904  0.93505  0.95803  Biso   1.000  H
  C64      1.0000 0.49430  0.84148  0.15654  Biso   1.000  C
  C65      1.0000 0.33548  0.60590  0.57997  Biso   1.000  C
  C66      1.0000 0.58292  0.87828  0.34307  Biso   1.000  C
  H56      1.0000 0.51499  0.76604  0.07101  Biso   1.000  H
  H57      1.0000 0.41303  0.80402  0.14802  Biso   1.000  H
  C67      1.0000 0.36525  0.48861  0.63206  Biso   1.000  C
  H58      1.0000 0.40799  0.65895  0.57797  Biso   1.000  H
  H59      1.0000 0.31501  0.66899  0.67895  Biso   1.000  H
  C68      1.0000 0.57402  0.74657  0.40622  Biso   1.000  C
  H60      1.0000 0.66601  0.90503  0.34999  Biso   1.000  H
  H61      1.0000 0.56797  0.96204  0.42700  Biso   1.000  H
  C69      1.0000 0.39598  0.49746  0.78287  Biso   1.000  C
  H62      1.0000 0.43202  0.46300  0.59595  Biso   1.000  H
  H63      1.0000 0.29098  0.40902  0.55399  Biso   1.000  H
  N7       1.0000 0.68746  0.77687  0.58541  Biso   1.000  N
  H64      1.0000 0.56901  0.65797  0.30496  Biso   1.000  H
  H65      1.0000 0.50003  0.73403  0.43100  Biso   1.000  H
  C70      1.0000 0.44333  0.41127  0.88453  Biso   1.000  C
  H66      1.0000 0.45895  0.58896  0.85295  Biso   1.000  H
  H67      1.0000 0.32204  0.51104  0.80406  Biso   1.000  H
  C71      1.0000 0.79517  0.74723  0.59180  Biso   1.000  C
  C72      1.0000 0.66927  0.82125  0.74035  Biso   1.000  C
  C73      1.0000 0.47996  0.28210  0.79820  Biso   1.000  C
  H68      1.0000 0.38103  0.37699  0.92303  Biso   1.000  H
  H69      1.0000 0.51804  0.35304  0.93196  Biso   1.000  H
  O13      1.0000 0.79412  0.71728  0.44179  Biso   1.000  O
  C74      1.0000 0.89058  0.78204  0.75434  Biso   1.000  C
  O14      1.0000 0.58080  0.83788  0.73782  Biso   1.000  O
  C75      1.0000 0.77145  0.84765  0.91435  Biso   1.000  C
  C76      1.0000 0.36343  0.18709  0.71693  Biso   1.000  C
  H70      1.0000 0.51002  0.31796  0.71599  Biso   1.000  H
  H71      1.0000 0.51397  0.17799  0.75903  Biso   1.000  H
  C77      1.0000 0.99243  0.76747  0.76141  Biso   1.000  C
  C78      1.0000 0.87761  0.83380  0.91142  Biso   1.000  C
  C79      1.0000 0.76387  0.89590  0.07583  Biso   1.000  C
  C80      1.0000 0.37288  0.04805  0.62366  Biso   1.000  C
  H72      1.0000 0.32803  0.21202  0.81099  Biso   1.000  H
  H73      1.0000 0.37695  0.27202  0.67696  Biso   1.000  H
  C81      1.0000 0.08813  0.80027  0.92754  Biso   1.000  C
  H74      1.0000 0.00102  0.73103  0.63897  Biso   1.000  H
  C82      1.0000 0.97539  0.85856  0.07689  Biso   1.000  C
  C83      1.0000 0.86081  0.92376  0.23184  Biso   1.000  C
  H75      1.0000 0.68402  0.90998  0.07703  Biso   1.000  H
  C84      1.0000 0.27023  0.94476  0.58250  Biso   1.000  C
  H76      1.0000 0.35495  0.95601  0.64698  Biso   1.000  H
  H77      1.0000 0.40100  0.02900  0.52001  Biso   1.000  H
  H78      1.0000 0.17002  0.79801  0.92901  Biso   1.000  H
  C85      1.0000 0.08282  0.83312  0.08289  Biso   1.000  C
  C86      1.0000 0.96558  0.90895  0.24516  Biso   1.000  C
  H79      1.0000 0.85298  0.96102  0.35494  Biso   1.000  H
  N8       1.0000 0.16558  0.91199  0.40623  Biso   1.000  N
  H80      1.0000 0.24901  0.94104  0.69001  Biso   1.000  H
  H81      1.0000 0.32701  0.87903  0.57304  Biso   1.000  H
  H82      1.0000 0.25103  0.03398  0.61301  Biso   1.000  H
  C87      1.0000 0.17794  0.86010  0.24862  Biso   1.000  C
  C88      1.0000 0.06441  0.93586  0.41290  Biso   1.000  C
  O15      1.0000 0.26512  0.83388  0.25902  Biso   1.000  O
  O16      1.0000 0.06032  0.98592  0.55439  Biso   1.000  O
