data_image0
_cell_length_a       10.941
_cell_length_b       15.944
_cell_length_c       37.915
_cell_angle_alpha    90
_cell_angle_beta     102.51
_cell_angle_gamma    90

_symmetry_space_group_name_H-M    "P 1"
_symmetry_int_tables_number       1

loop_
  _symmetry_equiv_pos_as_xyz
  'x, y, z'

loop_
  _atom_site_label
  _atom_site_occupancy
  _atom_site_fract_x
  _atom_site_fract_y
  _atom_site_fract_z
  _atom_site_thermal_displace_type
  _atom_site_B_iso_or_equiv
  _atom_site_type_symbol
  C1       1.0000 0.69636  0.34621  0.52636  Biso   1.000  C
  C2       1.0000 0.69570  0.25082  0.52755  Biso   1.000  C
  C3       1.0000 0.74363  0.38328  0.56364  Biso   1.000  C
  H1       1.0000 0.61038  0.36672  0.51641  Biso   1.000  H
  H2       1.0000 0.75060  0.36522  0.51009  Biso   1.000  H
  C4       1.0000 0.59008  0.20691  0.53308  Biso   1.000  C
  C5       1.0000 0.79984  0.20509  0.52371  Biso   1.000  C
  C6       1.0000 0.66071  0.40479  0.58517  Biso   1.000  C
  C7       1.0000 0.87107  0.39570  0.57720  Biso   1.000  C
  O1       1.0000 0.49016  0.25527  0.53695  Biso   1.000  O
  C8       1.0000 0.59167  0.11961  0.53398  Biso   1.000  C
  C9       1.0000 0.80161  0.11867  0.52484  Biso   1.000  C
  H3       1.0000 0.87206  0.23419  0.52020  Biso   1.000  H
  C10      1.0000 0.70335  0.43571  0.61981  Biso   1.000  C
  H4       1.0000 0.57332  0.39821  0.57601  Biso   1.000  H
  O2       1.0000 0.94960  0.37531  0.55445  Biso   1.000  O
  C11      1.0000 0.91347  0.42706  0.61189  Biso   1.000  C
  C12      1.0000 0.38221  0.21337  0.54303  Biso   1.000  C
  H5       1.0000 0.51965  0.09038  0.53751  Biso   1.000  H
  C13      1.0000 0.69623  0.07426  0.52984  Biso   1.000  C
  O3       1.0000 0.90271  0.07050  0.52060  Biso   1.000  O
  O4       1.0000 0.62443  0.45641  0.64253  Biso   1.000  O
  C14      1.0000 0.83118  0.44663  0.63388  Biso   1.000  C
  C15      1.0000 0.07733  0.39921  0.56485  Biso   1.000  C
  H6       1.0000 0.00079  0.43540  0.62070  Biso   1.000  H
  H7       1.0000 0.34695  0.17812  0.52212  Biso   1.000  H
  H8       1.0000 0.40508  0.17831  0.56461  Biso   1.000  H
  H9       1.0000 0.31966  0.25489  0.54651  Biso   1.000  H
  C16      1.0000 0.69717  0.97955  0.53195  Biso   1.000  C
  C17      1.0000 0.01377  0.11327  0.51768  Biso   1.000  C
  C18      1.0000 0.49542  0.44010  0.62980  Biso   1.000  C
  C19      1.0000 0.88093  0.47566  0.67227  Biso   1.000  C
  H10      1.0000 0.12121  0.38221  0.54600  Biso   1.000  H
  H11      1.0000 0.08299  0.46011  0.56802  Biso   1.000  H
  H12      1.0000 0.11570  0.37161  0.58760  Biso   1.000  H
  C20      1.0000 0.74172  0.94989  0.57047  Biso   1.000  C
  H13      1.0000 0.75296  0.95691  0.51690  Biso   1.000  H
  H14      1.0000 0.61171  0.95798  0.52220  Biso   1.000  H
  H15      1.0000 0.99693  0.14858  0.49599  Biso   1.000  H
  H16      1.0000 0.04219  0.14852  0.53911  Biso   1.000  H
  H17      1.0000 0.07897  0.07232  0.51590  Biso   1.000  H
  H18      1.0000 0.46362  0.47328  0.60789  Biso   1.000  H
  H19      1.0000 0.48310  0.38027  0.62410  Biso   1.000  H
  H20      1.0000 0.44989  0.45547  0.64842  Biso   1.000  H
  C21      1.0000 0.90333  0.40278  0.69883  Biso   1.000  C
  H21      1.0000 0.96034  0.50627  0.67359  Biso   1.000  H
  H22      1.0000 0.82015  0.51499  0.67921  Biso   1.000  H
  C22      1.0000 0.86910  0.94117  0.58590  Biso   1.000  C
  C23      1.0000 0.66041  0.93339  0.59317  Biso   1.000  C
  C24      1.0000 0.80679  0.37368  0.71415  Biso   1.000  C
  C25      1.0000 0.01897  0.36402  0.70847  Biso   1.000  C
  C26      1.0000 0.90736  0.91947  0.62164  Biso   1.000  C
  H23      1.0000 0.92939  0.95033  0.57161  Biso   1.000  H
  O5       1.0000 0.53000  0.94029  0.57858  Biso   1.000  O
  C27      1.0000 0.69892  0.91451  0.62913  Biso   1.000  C
  C28      1.0000 0.82407  0.30701  0.73814  Biso   1.000  C
  H24      1.0000 0.72715  0.40021  0.70801  Biso   1.000  H
  O6       1.0000 0.11159  0.39494  0.69245  Biso   1.000  O
  C29      1.0000 0.03727  0.29798  0.73273  Biso   1.000  C
  C30      1.0000 0.82647  0.90768  0.64490  Biso   1.000  C
  O7       1.0000 0.03774  0.91144  0.63583  Biso   1.000  O
  C31      1.0000 0.46328  0.86848  0.57285  Biso   1.000  C
  H25      1.0000 0.63852  0.90611  0.64339  Biso   1.000  H
  O8       1.0000 0.73079  0.27578  0.75402  Biso   1.000  O
  C32      1.0000 0.94088  0.26788  0.74800  Biso   1.000  C
  C33      1.0000 0.23231  0.36032  0.70350  Biso   1.000  C
  H26      1.0000 0.11743  0.27252  0.73919  Biso   1.000  H
  C34      1.0000 0.87212  0.88968  0.68464  Biso   1.000  C
  C35      1.0000 0.08531  0.83254  0.63820  Biso   1.000  C
  C36      1.0000 0.51794  0.79002  0.57274  Biso   1.000  C
  C37      1.0000 0.33185  0.87268  0.56726  Biso   1.000  C
  C38      1.0000 0.60784  0.30438  0.74035  Biso   1.000  C
  C39      1.0000 0.96099  0.19318  0.77296  Biso   1.000  C
  H27      1.0000 0.28992  0.38892  0.69099  Biso   1.000  H
  H28      1.0000 0.26150  0.36747  0.72960  Biso   1.000  H
  H29      1.0000 0.22954  0.30043  0.69750  Biso   1.000  H
  H30      1.0000 0.80950  0.85411  0.69291  Biso   1.000  H
  H31      1.0000 0.95103  0.85731  0.68810  Biso   1.000  H
  C40      1.0000 0.89478  0.96801  0.70801  Biso   1.000  C
  C41      1.0000 0.01570  0.76091  0.62729  Biso   1.000  C
  C42      1.0000 0.21593  0.82232  0.65160  Biso   1.000  C
  H32      1.0000 0.60619  0.78537  0.57561  Biso   1.000  H
  C43      1.0000 0.44526  0.71889  0.56858  Biso   1.000  C
  N1       1.0000 0.26758  0.95321  0.56577  Biso   1.000  N
  C44      1.0000 0.26089  0.80112  0.56380  Biso   1.000  C
  H33      1.0000 0.58666  0.29729  0.71409  Biso   1.000  H
  H34      1.0000 0.54927  0.27201  0.75121  Biso   1.000  H
  H35      1.0000 0.60206  0.36390  0.74630  Biso   1.000  H
  C45      1.0000 0.94072  0.11227  0.75156  Biso   1.000  C
  H36      1.0000 0.90195  0.19587  0.78941  Biso   1.000  H
  H37      1.0000 0.04724  0.19449  0.78790  Biso   1.000  H
  C46      1.0000 0.79873  0.00602  0.72082  Biso   1.000  C
  C47      1.0000 0.01389  0.00289  0.71717  Biso   1.000  C
  H38      1.0000 0.92877  0.76512  0.61681  Biso   1.000  H
  C48      1.0000 0.07257  0.68433  0.63169  Biso   1.000  C
  N2       1.0000 0.29768  0.89469  0.66103  Biso   1.000  N
  C49      1.0000 0.26951  0.74442  0.65639  Biso   1.000  C
  F1       1.0000 0.50133  0.64570  0.56742  Biso   1.000  F
  C50      1.0000 0.31560  0.72372  0.56485  Biso   1.000  C
  O9       1.0000 0.31259  0.01405  0.55451  Biso   1.000  O
  O10      1.0000 0.16775  0.95290  0.57561  Biso   1.000  O
  H39      1.0000 0.17258  0.80519  0.56061  Biso   1.000  H
  C51      1.0000 0.82142  0.07671  0.74241  Biso   1.000  C
  C52      1.0000 0.03609  0.07388  0.73884  Biso   1.000  C
  O11      1.0000 0.68238  0.96839  0.71096  Biso   1.000  O
  H40      1.0000 0.08068  0.97799  0.70850  Biso   1.000  H
  F2       1.0000 0.99797  0.61678  0.62132  Biso   1.000  F
  C53      1.0000 0.19649  0.67311  0.64725  Biso   1.000  C
  O12      1.0000 0.26303  0.95352  0.67551  Biso   1.000  O
  O13      1.0000 0.40099  0.89124  0.65255  Biso   1.000  O
  H41      1.0000 0.35690  0.73902  0.66590  Biso   1.000  H
  N3       1.0000 0.23657  0.64921  0.56172  Biso   1.000  N
  H42      1.0000 0.75474  0.10148  0.75110  Biso   1.000  H
  O14      1.0000 0.15315  0.11039  0.74965  Biso   1.000  O
  C54      1.0000 0.58123  0.00771  0.72317  Biso   1.000  C
  N4       1.0000 0.25665  0.59182  0.65593  Biso   1.000  N
  O15      1.0000 0.12354  0.65918  0.55008  Biso   1.000  O
  O16      1.0000 0.28357  0.58279  0.57137  Biso   1.000  O
  C55      1.0000 0.24941  0.08197  0.73273  Biso   1.000  C
  H43      1.0000 0.59832  0.00659  0.74959  Biso   1.000  H
  H44      1.0000 0.57284  0.06592  0.71479  Biso   1.000  H
  H45      1.0000 0.50323  0.97730  0.71350  Biso   1.000  H
  O17      1.0000 0.35930  0.59019  0.67578  Biso   1.000  O
  O18      1.0000 0.20294  0.52954  0.64209  Biso   1.000  O
  H46      1.0000 0.22186  0.08781  0.70650  Biso   1.000  H
  H47      1.0000 0.32506  0.11559  0.74122  Biso   1.000  H
  H48      1.0000 0.26768  0.02289  0.73881  Biso   1.000  H
  C56      1.0000 0.30353  0.65379  0.47365  Biso   1.000  C
  C57      1.0000 0.25624  0.61672  0.43634  Biso   1.000  C
  H49      1.0000 0.38960  0.63328  0.48359  Biso   1.000  H
  H50      1.0000 0.24939  0.63478  0.48991  Biso   1.000  H
  C58      1.0000 0.30429  0.74918  0.47246  Biso   1.000  C
  C59      1.0000 0.33927  0.59521  0.41483  Biso   1.000  C
  C60      1.0000 0.12891  0.60430  0.42280  Biso   1.000  C
  C61      1.0000 0.40990  0.79309  0.46692  Biso   1.000  C
  C62      1.0000 0.20003  0.79491  0.47627  Biso   1.000  C
  C63      1.0000 0.29654  0.56429  0.38020  Biso   1.000  C
  H51      1.0000 0.42667  0.60179  0.42399  Biso   1.000  H
  C64      1.0000 0.08651  0.57294  0.38811  Biso   1.000  C
  O19      1.0000 0.05038  0.62469  0.44555  Biso   1.000  O
  O20      1.0000 0.50982  0.74473  0.46306  Biso   1.000  O
  C65      1.0000 0.40832  0.88033  0.46603  Biso   1.000  C
  C66      1.0000 0.19837  0.88133  0.47516  Biso   1.000  C
  H52      1.0000 0.12792  0.76581  0.47981  Biso   1.000  H
  C67      1.0000 0.16880  0.55337  0.36612  Biso   1.000  C
  O21      1.0000 0.37546  0.54353  0.35748  Biso   1.000  O
  H53      1.0000 0.99919  0.56460  0.37931  Biso   1.000  H
  C68      1.0000 0.92266  0.60079  0.43515  Biso   1.000  C
  C69      1.0000 0.61777  0.78657  0.45698  Biso   1.000  C
  H54      1.0000 0.48024  0.90956  0.46249  Biso   1.000  H
  C70      1.0000 0.30366  0.92574  0.47016  Biso   1.000  C
  O22      1.0000 0.09727  0.92950  0.47940  Biso   1.000  O
  C71      1.0000 0.11906  0.52427  0.32773  Biso   1.000  C
  C72      1.0000 0.50456  0.55990  0.37020  Biso   1.000  C
  H55      1.0000 0.87877  0.61779  0.45401  Biso   1.000  H
  H56      1.0000 0.91699  0.53989  0.43199  Biso   1.000  H
  H57      1.0000 0.88429  0.62839  0.41240  Biso   1.000  H
  H58      1.0000 0.65294  0.82188  0.47789  Biso   1.000  H
  H59      1.0000 0.59490  0.82169  0.43539  Biso   1.000  H
  H60      1.0000 0.68023  0.74511  0.45349  Biso   1.000  H
  C73      1.0000 0.30279  0.02038  0.46803  Biso   1.000  C
  C74      1.0000 0.98622  0.88667  0.48232  Biso   1.000  C
  C75      1.0000 0.09656  0.59722  0.30118  Biso   1.000  C
  H61      1.0000 0.03955  0.49367  0.32641  Biso   1.000  H
  H62      1.0000 0.17974  0.48501  0.32079  Biso   1.000  H
  H63      1.0000 0.53627  0.52672  0.39211  Biso   1.000  H
  H64      1.0000 0.51688  0.61967  0.37590  Biso   1.000  H
  H65      1.0000 0.55009  0.54447  0.35159  Biso   1.000  H
  C76      1.0000 0.25826  0.05005  0.42953  Biso   1.000  C
  H66      1.0000 0.24702  0.04309  0.48310  Biso   1.000  H
  H67      1.0000 0.38828  0.04196  0.47781  Biso   1.000  H
  H68      1.0000 0.00296  0.85142  0.50401  Biso   1.000  H
  H69      1.0000 0.95779  0.85148  0.46090  Biso   1.000  H
  H70      1.0000 0.92092  0.92768  0.48410  Biso   1.000  H
  C77      1.0000 0.19319  0.62632  0.28586  Biso   1.000  C
  C78      1.0000 0.98101  0.63598  0.29153  Biso   1.000  C
  C79      1.0000 0.13088  0.05877  0.41410  Biso   1.000  C
  C80      1.0000 0.33957  0.06661  0.40684  Biso   1.000  C
  C81      1.0000 0.17591  0.69299  0.26187  Biso   1.000  C
  H71      1.0000 0.27274  0.59979  0.29199  Biso   1.000  H
  O23      1.0000 0.88839  0.60506  0.30755  Biso   1.000  O
  C82      1.0000 0.96271  0.70202  0.26727  Biso   1.000  C
  C83      1.0000 0.09253  0.08047  0.37836  Biso   1.000  C
  H72      1.0000 0.07059  0.04967  0.42840  Biso   1.000  H
  C84      1.0000 0.30106  0.08549  0.37088  Biso   1.000  C
  O24      1.0000 0.46998  0.05965  0.42143  Biso   1.000  O
  O25      1.0000 0.26919  0.72422  0.24598  Biso   1.000  O
  C85      1.0000 0.05911  0.73206  0.25201  Biso   1.000  C
  C86      1.0000 0.76767  0.63968  0.29650  Biso   1.000  C
  H73      1.0000 0.88246  0.72748  0.26081  Biso   1.000  H
  C87      1.0000 0.17351  0.09232  0.35510  Biso   1.000  C
  O26      1.0000 0.96215  0.08856  0.36418  Biso   1.000  O
  H74      1.0000 0.36137  0.09389  0.35661  Biso   1.000  H
  C88      1.0000 0.53671  0.13146  0.42715  Biso   1.000  C
  C89      1.0000 0.39205  0.69562  0.25965  Biso   1.000  C
  C90      1.0000 0.03900  0.80676  0.22704  Biso   1.000  C
  H75      1.0000 0.71007  0.61108  0.30901  Biso   1.000  H
  H76      1.0000 0.73849  0.63246  0.27041  Biso   1.000  H
  H77      1.0000 0.77035  0.69957  0.30250  Biso   1.000  H
  C91      1.0000 0.12787  0.11032  0.31536  Biso   1.000  C
  C92      1.0000 0.91467  0.16746  0.36180  Biso   1.000  C
  C93      1.0000 0.48195  0.20998  0.42726  Biso   1.000  C
  C94      1.0000 0.66804  0.12726  0.43275  Biso   1.000  C
  H78      1.0000 0.41332  0.70271  0.28591  Biso   1.000  H
  H79      1.0000 0.45071  0.72799  0.24879  Biso   1.000  H
  H80      1.0000 0.39792  0.63610  0.25371  Biso   1.000  H
  C95      1.0000 0.05917  0.88767  0.24844  Biso   1.000  C
  H81      1.0000 0.09794  0.80406  0.21059  Biso   1.000  H
  H82      1.0000 0.95265  0.80551  0.21210  Biso   1.000  H
  C96      1.0000 0.10521  0.03199  0.29199  Biso   1.000  C
  H83      1.0000 0.19048  0.14589  0.30709  Biso   1.000  H
  H84      1.0000 0.04886  0.14269  0.31190  Biso   1.000  H
  C97      1.0000 0.98428  0.23909  0.37272  Biso   1.000  C
  C98      1.0000 0.78405  0.17768  0.34840  Biso   1.000  C
  H85      1.0000 0.39379  0.21456  0.42440  Biso   1.000  H
  C99      1.0000 0.55472  0.28111  0.43142  Biso   1.000  C
  N5       1.0000 0.73240  0.04679  0.43423  Biso   1.000  N
  C100     1.0000 0.73910  0.19888  0.43620  Biso   1.000  C
  C101     1.0000 0.17847  0.92329  0.25760  Biso   1.000  C
  C102     1.0000 0.96389  0.92612  0.26117  Biso   1.000  C
  C103     1.0000 0.20116  0.99398  0.27919  Biso   1.000  C
  C104     1.0000 0.98609  0.99711  0.28283  Biso   1.000  C
  C105     1.0000 0.92732  0.31567  0.36831  Biso   1.000  C
  H86      1.0000 0.07121  0.23488  0.38320  Biso   1.000  H
  N6       1.0000 0.70230  0.10531  0.33897  Biso   1.000  N
  C106     1.0000 0.73047  0.25558  0.34362  Biso   1.000  C
  F3       1.0000 0.49856  0.35430  0.43258  Biso   1.000  F
  C107     1.0000 0.68438  0.27628  0.43515  Biso   1.000  C
  O27      1.0000 0.68739  0.98589  0.44550  Biso   1.000  O
  O28      1.0000 0.83223  0.04710  0.42440  Biso   1.000  O
  H87      1.0000 0.82740  0.19481  0.43939  Biso   1.000  H
  H88      1.0000 0.24515  0.89852  0.24890  Biso   1.000  H
  O29      1.0000 0.84683  0.88955  0.25036  Biso   1.000  O
  O30      1.0000 0.31760  0.03161  0.28905  Biso   1.000  O
  H89      1.0000 0.91930  0.02201  0.29150  Biso   1.000  H
  C108     1.0000 0.80350  0.32689  0.35275  Biso   1.000  C
  F4       1.0000 0.00202  0.38322  0.37869  Biso   1.000  F
  O31      1.0000 0.73686  0.04648  0.32449  Biso   1.000  O
  O32      1.0000 0.59899  0.10876  0.34746  Biso   1.000  O
  H90      1.0000 0.64308  0.26098  0.33411  Biso   1.000  H
  N7       1.0000 0.76341  0.35079  0.43828  Biso   1.000  N
  C109     1.0000 0.75057  0.91796  0.26727  Biso   1.000  C
  C110     1.0000 0.41866  0.99229  0.27683  Biso   1.000  C
  N8       1.0000 0.74324  0.40818  0.34408  Biso   1.000  N
  O33      1.0000 0.87635  0.34076  0.44993  Biso   1.000  O
  O34      1.0000 0.71642  0.41721  0.42864  Biso   1.000  O
  H91      1.0000 0.77803  0.91219  0.29350  Biso   1.000  H
  H92      1.0000 0.67483  0.88441  0.25879  Biso   1.000  H
  H93      1.0000 0.73230  0.97711  0.26119  Biso   1.000  H
  H94      1.0000 0.40157  0.99341  0.25041  Biso   1.000  H
  H95      1.0000 0.42714  0.93408  0.28521  Biso   1.000  H
  H96      1.0000 0.49667  0.02270  0.28651  Biso   1.000  H
  O35      1.0000 0.64069  0.40981  0.32422  Biso   1.000  O
  O36      1.0000 0.79695  0.47040  0.35791  Biso   1.000  O
  C111     1.0000 0.58129  0.49229  0.22318  Biso   1.000  C
  O37      1.0000 0.68245  0.53161  0.21097  Biso   1.000  O
  H97      1.0000 0.50329  0.52270  0.21351  Biso   1.000  H
  H98      1.0000 0.59838  0.49341  0.24960  Biso   1.000  H
  H99      1.0000 0.57290  0.43408  0.21481  Biso   1.000  H
  C112     1.0000 0.79880  0.49398  0.22083  Biso   1.000  C
  C113     1.0000 0.82149  0.42329  0.24242  Biso   1.000  C
  C114     1.0000 0.89484  0.53199  0.20802  Biso   1.000  C
  C115     1.0000 0.94078  0.38767  0.25157  Biso   1.000  C
  H100     1.0000 0.75479  0.39852  0.25109  Biso   1.000  H
  C116     1.0000 0.01395  0.49711  0.21718  Biso   1.000  C
  C117     1.0000 0.87207  0.61032  0.18463  Biso   1.000  C
  C118     1.0000 0.96103  0.30682  0.27294  Biso   1.000  C
  C119     1.0000 0.03614  0.42612  0.23882  Biso   1.000  C
  H101     1.0000 0.08075  0.52201  0.20851  Biso   1.000  H
  C120     1.0000 0.82652  0.59232  0.14489  Biso   1.000  C
  H102     1.0000 0.80954  0.64589  0.19290  Biso   1.000  H
  H103     1.0000 0.95110  0.64269  0.18811  Biso   1.000  H
  C121     1.0000 0.94092  0.23212  0.24798  Biso   1.000  C
  H104     1.0000 0.90200  0.30413  0.28940  Biso   1.000  H
  H105     1.0000 0.04730  0.30551  0.28791  Biso   1.000  H
  O38      1.0000 0.15322  0.38961  0.24966  Biso   1.000  O
  C122     1.0000 0.90740  0.58053  0.12163  Biso   1.000  C
  C123     1.0000 0.69887  0.58549  0.12911  Biso   1.000  C
  C124     1.0000 0.82411  0.19299  0.23812  Biso   1.000  C
  C125     1.0000 0.03733  0.20202  0.23274  Biso   1.000  C
  C126     1.0000 0.24936  0.41803  0.23272  Biso   1.000  C
  C127     1.0000 0.86908  0.55883  0.08591  Biso   1.000  C
  O39      1.0000 0.03780  0.58856  0.13584  Biso   1.000  O
  C128     1.0000 0.66036  0.56661  0.09315  Biso   1.000  C
  H106     1.0000 0.63858  0.59389  0.14340  Biso   1.000  H
  O40      1.0000 0.73077  0.22422  0.25403  Biso   1.000  O
  C129     1.0000 0.80677  0.12632  0.21416  Biso   1.000  C
  C130     1.0000 0.01903  0.13598  0.20848  Biso   1.000  C
  H107     1.0000 0.11749  0.22748  0.23920  Biso   1.000  H
  H108     1.0000 0.22192  0.41219  0.20651  Biso   1.000  H
  H109     1.0000 0.32510  0.38441  0.24120  Biso   1.000  H
  H110     1.0000 0.26772  0.47711  0.23880  Biso   1.000  H
  H111     1.0000 0.92944  0.54967  0.07159  Biso   1.000  H
  C131     1.0000 0.74167  0.55011  0.07046  Biso   1.000  C
  C132     1.0000 0.08527  0.66746  0.13819  Biso   1.000  C
  O41      1.0000 0.52995  0.55971  0.07856  Biso   1.000  O
  C133     1.0000 0.60790  0.19562  0.24036  Biso   1.000  C
  H112     1.0000 0.72719  0.09979  0.20800  Biso   1.000  H
  C134     1.0000 0.90339  0.09722  0.19884  Biso   1.000  C
  O42      1.0000 0.11166  0.10506  0.19246  Biso   1.000  O
  C135     1.0000 0.69724  0.52038  0.03196  Biso   1.000  C
  C136     1.0000 0.01575  0.73909  0.12727  Biso   1.000  C
  C137     1.0000 0.21588  0.67768  0.15159  Biso   1.000  C
  C138     1.0000 0.46334  0.63152  0.07286  Biso   1.000  C
  H113     1.0000 0.58673  0.20271  0.21410  Biso   1.000  H
  H114     1.0000 0.54931  0.22799  0.25120  Biso   1.000  H
  H115     1.0000 0.60213  0.13610  0.24631  Biso   1.000  H
  C139     1.0000 0.88088  0.02427  0.17226  Biso   1.000  C
  C140     1.0000 0.23226  0.13968  0.20349  Biso   1.000  C
  C141     1.0000 0.69630  0.42574  0.02985  Biso   1.000  C
  H116     1.0000 0.75303  0.54309  0.01691  Biso   1.000  H
  H117     1.0000 0.61168  0.54202  0.02221  Biso   1.000  H
  H118     1.0000 0.92882  0.73488  0.11679  Biso   1.000  H
  C142     1.0000 0.07261  0.81567  0.13168  Biso   1.000  C
  N9       1.0000 0.29774  0.60531  0.16104  Biso   1.000  N
  C143     1.0000 0.26956  0.75558  0.15637  Biso   1.000  C
  C144     1.0000 0.51799  0.70998  0.07273  Biso   1.000  C
  C145     1.0000 0.33189  0.62732  0.06724  Biso   1.000  C
  C146     1.0000 0.83122  0.05337  0.13387  Biso   1.000  C
  H119     1.0000 0.96040  0.99373  0.17361  Biso   1.000  H
  H120     1.0000 0.82019  0.98501  0.17920  Biso   1.000  H
  H121     1.0000 0.28989  0.11108  0.19100  Biso   1.000  H
  H122     1.0000 0.26156  0.13253  0.22961  Biso   1.000  H
  H123     1.0000 0.22959  0.19957  0.19749  Biso   1.000  H
  C147     1.0000 0.59171  0.38039  0.03396  Biso   1.000  C
  C148     1.0000 0.80156  0.38133  0.02483  Biso   1.000  C
  F5       1.0000 0.99803  0.88322  0.12133  Biso   1.000  F
  C149     1.0000 0.19655  0.82689  0.14727  Biso   1.000  C
  O43      1.0000 0.26310  0.54648  0.17552  Biso   1.000  O
  O44      1.0000 0.40103  0.60876  0.15253  Biso   1.000  O
  H124     1.0000 0.35687  0.76098  0.16591  Biso   1.000  H
  H125     1.0000 0.60623  0.71456  0.07559  Biso   1.000  H
  C150     1.0000 0.44531  0.78111  0.06857  Biso   1.000  C
  N10      1.0000 0.26762  0.54679  0.06576  Biso   1.000  N
  C151     1.0000 0.26093  0.69888  0.06379  Biso   1.000  C
  C152     1.0000 0.70339  0.06429  0.11979  Biso   1.000  C
  C153     1.0000 0.91352  0.07294  0.11187  Biso   1.000  C
  C154     1.0000 0.59013  0.29309  0.03307  Biso   1.000  C
  H126     1.0000 0.51969  0.40962  0.03750  Biso   1.000  H
  C155     1.0000 0.79991  0.29491  0.02372  Biso   1.000  C
  O45      1.0000 0.90269  0.42950  0.02061  Biso   1.000  O
  N11      1.0000 0.25671  0.90818  0.15594  Biso   1.000  N
  F6       1.0000 0.50140  0.85430  0.06743  Biso   1.000  F
  C156     1.0000 0.31558  0.77628  0.06487  Biso   1.000  C
  O46      1.0000 0.31263  0.48595  0.05449  Biso   1.000  O
  O47      1.0000 0.16781  0.54710  0.07562  Biso   1.000  O
  H127     1.0000 0.17262  0.69481  0.06060  Biso   1.000  H
  O48      1.0000 0.62448  0.04359  0.14251  Biso   1.000  O
  C157     1.0000 0.66069  0.09521  0.08518  Biso   1.000  C
  C158     1.0000 0.87112  0.10430  0.07719  Biso   1.000  C
  H128     1.0000 0.00085  0.06460  0.12071  Biso   1.000  H
  C159     1.0000 0.69574  0.24918  0.02753  Biso   1.000  C
  O49      1.0000 0.49022  0.24473  0.03696  Biso   1.000  O
  H129     1.0000 0.87213  0.26581  0.02021  Biso   1.000  H
  C160     1.0000 0.01383  0.38667  0.01770  Biso   1.000  C
  O50      1.0000 0.35934  0.90981  0.17577  Biso   1.000  O
  O51      1.0000 0.20300  0.97046  0.14211  Biso   1.000  O
  N12      1.0000 0.23661  0.85079  0.06170  Biso   1.000  N
  C161     1.0000 0.49538  0.05990  0.12979  Biso   1.000  C
  H130     1.0000 0.57327  0.10179  0.07600  Biso   1.000  H
  C162     1.0000 0.74369  0.11672  0.06365  Biso   1.000  C
  O52      1.0000 0.94965  0.12469  0.05444  Biso   1.000  O
  C163     1.0000 0.69640  0.15379  0.02634  Biso   1.000  C
  C164     1.0000 0.38216  0.28657  0.04301  Biso   1.000  C
  H131     1.0000 0.99700  0.35142  0.99600  Biso   1.000  H
  H132     1.0000 0.04223  0.35148  0.03909  Biso   1.000  H
  H133     1.0000 0.07903  0.42768  0.01591  Biso   1.000  H
  O53      1.0000 0.12360  0.84082  0.05009  Biso   1.000  O
  O54      1.0000 0.28363  0.91721  0.07138  Biso   1.000  O
  H134     1.0000 0.46369  0.02672  0.10790  Biso   1.000  H
  H135     1.0000 0.48307  0.11967  0.12411  Biso   1.000  H
  H136     1.0000 0.44994  0.04447  0.14840  Biso   1.000  H
  C165     1.0000 0.07728  0.10079  0.06484  Biso   1.000  C
  H137     1.0000 0.61043  0.13328  0.01640  Biso   1.000  H
  H138     1.0000 0.75066  0.13478  0.01010  Biso   1.000  H
  H139     1.0000 0.34700  0.32188  0.02210  Biso   1.000  H
  H140     1.0000 0.40513  0.32169  0.06460  Biso   1.000  H
  H141     1.0000 0.31970  0.24511  0.04649  Biso   1.000  H
  H142     1.0000 0.12118  0.11779  0.04601  Biso   1.000  H
  H143     1.0000 0.08303  0.03989  0.06800  Biso   1.000  H
  H144     1.0000 0.11576  0.12839  0.08761  Biso   1.000  H
  C166     1.0000 0.41869  0.50771  0.77682  Biso   1.000  C
  O55      1.0000 0.31754  0.46839  0.78904  Biso   1.000  O
  H145     1.0000 0.49669  0.47730  0.78650  Biso   1.000  H
  H146     1.0000 0.40160  0.50659  0.75040  Biso   1.000  H
  H147     1.0000 0.42708  0.56592  0.78520  Biso   1.000  H
  C167     1.0000 0.20119  0.50602  0.77917  Biso   1.000  C
  C168     1.0000 0.17849  0.57671  0.75759  Biso   1.000  C
  C169     1.0000 0.10514  0.46801  0.79198  Biso   1.000  C
  C170     1.0000 0.05920  0.61227  0.74843  Biso   1.000  C
  H148     1.0000 0.24519  0.60148  0.74892  Biso   1.000  H
  C171     1.0000 0.98603  0.50289  0.78282  Biso   1.000  C
  C172     1.0000 0.12782  0.38968  0.81538  Biso   1.000  C
  C173     1.0000 0.03895  0.69318  0.72706  Biso   1.000  C
  C174     1.0000 0.96384  0.57388  0.76118  Biso   1.000  C
  H149     1.0000 0.91924  0.47799  0.79149  Biso   1.000  H
  C175     1.0000 0.17346  0.40768  0.85512  Biso   1.000  C
  H150     1.0000 0.19044  0.35411  0.80711  Biso   1.000  H
  H151     1.0000 0.04889  0.35731  0.81189  Biso   1.000  H
  H152     1.0000 0.09798  0.69587  0.71061  Biso   1.000  H
  C176     1.0000 0.05906  0.76788  0.75202  Biso   1.000  C
  H153     1.0000 0.95268  0.69449  0.71209  Biso   1.000  H
  O56      1.0000 0.84676  0.61039  0.75035  Biso   1.000  O
  C177     1.0000 0.09258  0.41947  0.87838  Biso   1.000  C
  C178     1.0000 0.30102  0.41451  0.87089  Biso   1.000  C
  C179     1.0000 0.17587  0.80701  0.76188  Biso   1.000  C
  C180     1.0000 0.96265  0.79798  0.76726  Biso   1.000  C
  C181     1.0000 0.75051  0.58197  0.76726  Biso   1.000  C
  C182     1.0000 0.13081  0.44117  0.91409  Biso   1.000  C
  O57      1.0000 0.96218  0.41144  0.86417  Biso   1.000  O
  C183     1.0000 0.33953  0.43339  0.90685  Biso   1.000  C
  H154     1.0000 0.36131  0.40611  0.85660  Biso   1.000  H
  O58      1.0000 0.26912  0.77578  0.74597  Biso   1.000  O
  C184     1.0000 0.19313  0.87368  0.78585  Biso   1.000  C
  C185     1.0000 0.98095  0.86396  0.79152  Biso   1.000  C
  H155     1.0000 0.88249  0.77252  0.76080  Biso   1.000  H
  H156     1.0000 0.77806  0.58781  0.79349  Biso   1.000  H
  H157     1.0000 0.67488  0.61559  0.75880  Biso   1.000  H
  H158     1.0000 0.73226  0.52289  0.76121  Biso   1.000  H
  H159     1.0000 0.07054  0.45026  0.92841  Biso   1.000  H
  C186     1.0000 0.25822  0.44989  0.92955  Biso   1.000  C
  C187     1.0000 0.91462  0.33254  0.86182  Biso   1.000  C
  O59      1.0000 0.46994  0.44029  0.92144  Biso   1.000  O
  C188     1.0000 0.39208  0.80438  0.75964  Biso   1.000  C
  H160     1.0000 0.27279  0.90021  0.79201  Biso   1.000  H
  C189     1.0000 0.09659  0.90278  0.80117  Biso   1.000  C
  O60      1.0000 0.88832  0.89494  0.80754  Biso   1.000  O
  C190     1.0000 0.30274  0.47955  0.96804  Biso   1.000  C
  C191     1.0000 0.98424  0.26091  0.87273  Biso   1.000  C
  C192     1.0000 0.78401  0.32232  0.84842  Biso   1.000  C
  C193     1.0000 0.53664  0.36848  0.92714  Biso   1.000  C
  H161     1.0000 0.41326  0.79729  0.78590  Biso   1.000  H
  H162     1.0000 0.45067  0.77201  0.74881  Biso   1.000  H
  H163     1.0000 0.39786  0.86390  0.75370  Biso   1.000  H
  C194     1.0000 0.11901  0.97566  0.82775  Biso   1.000  C
  C195     1.0000 0.76763  0.86026  0.79652  Biso   1.000  C
  C196     1.0000 0.30369  0.57426  0.97015  Biso   1.000  C
  H164     1.0000 0.24695  0.45691  0.98309  Biso   1.000  H
  H165     1.0000 0.38821  0.45798  0.97780  Biso   1.000  H
  H166     1.0000 0.07117  0.26512  0.88321  Biso   1.000  H
  C197     1.0000 0.92737  0.18427  0.86833  Biso   1.000  C
  N13      1.0000 0.70224  0.39469  0.83896  Biso   1.000  N
  C198     1.0000 0.73042  0.24442  0.84363  Biso   1.000  C
  C199     1.0000 0.48200  0.29002  0.92728  Biso   1.000  C
  C200     1.0000 0.66809  0.37268  0.93276  Biso   1.000  C
  C201     1.0000 0.16876  0.94656  0.86614  Biso   1.000  C
  H167     1.0000 0.03958  0.00627  0.82640  Biso   1.000  H
  H168     1.0000 0.17979  0.01499  0.82081  Biso   1.000  H
  H169     1.0000 0.71000  0.88886  0.80900  Biso   1.000  H
  H170     1.0000 0.73842  0.86747  0.77039  Biso   1.000  H
  H171     1.0000 0.77039  0.80036  0.80252  Biso   1.000  H
  C202     1.0000 0.40827  0.61961  0.96605  Biso   1.000  C
  C203     1.0000 0.19833  0.61860  0.97518  Biso   1.000  C
  F7       1.0000 0.00195  0.11678  0.87867  Biso   1.000  F
  C204     1.0000 0.80343  0.17311  0.85274  Biso   1.000  C
  O61      1.0000 0.73689  0.45352  0.82448  Biso   1.000  O
  O62      1.0000 0.59895  0.39124  0.84747  Biso   1.000  O
  H172     1.0000 0.64302  0.23902  0.83410  Biso   1.000  H
  H173     1.0000 0.39375  0.28537  0.92441  Biso   1.000  H
  C205     1.0000 0.55465  0.21889  0.93141  Biso   1.000  C
  N14      1.0000 0.73236  0.45321  0.93425  Biso   1.000  N
  C206     1.0000 0.73905  0.30112  0.93622  Biso   1.000  C
  C207     1.0000 0.29659  0.93571  0.88021  Biso   1.000  C
  C208     1.0000 0.08646  0.92706  0.88813  Biso   1.000  C
  C209     1.0000 0.40986  0.70691  0.96694  Biso   1.000  C
  H174     1.0000 0.48029  0.59038  0.96251  Biso   1.000  H
  C210     1.0000 0.20007  0.70509  0.97628  Biso   1.000  C
  O63      1.0000 0.09720  0.57050  0.97939  Biso   1.000  O
  N15      1.0000 0.74327  0.09182  0.84407  Biso   1.000  N
  F8       1.0000 0.49858  0.14570  0.93257  Biso   1.000  F
  C211     1.0000 0.68431  0.22372  0.93514  Biso   1.000  C
  O64      1.0000 0.68735  0.51405  0.94551  Biso   1.000  O
  O65      1.0000 0.83217  0.45290  0.92439  Biso   1.000  O
  H175     1.0000 0.82736  0.30519  0.93941  Biso   1.000  H
  O66      1.0000 0.37551  0.95641  0.85749  Biso   1.000  O
  C212     1.0000 0.33920  0.90479  0.91482  Biso   1.000  C
  C213     1.0000 0.12886  0.89570  0.92282  Biso   1.000  C
  H176     1.0000 0.99913  0.93540  0.87930  Biso   1.000  H
  C214     1.0000 0.30424  0.75082  0.97248  Biso   1.000  C
  O67      1.0000 0.50976  0.75527  0.96305  Biso   1.000  O
  H177     1.0000 0.12785  0.73419  0.97980  Biso   1.000  H
  C215     1.0000 0.98615  0.61327  0.98231  Biso   1.000  C
  O68      1.0000 0.64062  0.09019  0.82421  Biso   1.000  O
  O69      1.0000 0.79698  0.02954  0.85790  Biso   1.000  O
  N16      1.0000 0.76337  0.14921  0.93830  Biso   1.000  N
  C216     1.0000 0.50452  0.94010  0.87022  Biso   1.000  C
  H178     1.0000 0.42662  0.89821  0.92401  Biso   1.000  H
  C217     1.0000 0.25629  0.88328  0.93635  Biso   1.000  C
  O70      1.0000 0.05034  0.87525  0.94557  Biso   1.000  O
  C218     1.0000 0.30358  0.84621  0.97366  Biso   1.000  C
  C219     1.0000 0.61773  0.71337  0.95699  Biso   1.000  C
  H179     1.0000 0.95775  0.64852  0.96091  Biso   1.000  H
  H180     1.0000 0.92095  0.57232  0.98409  Biso   1.000  H
  H181     1.0000 0.00289  0.64858  0.00400  Biso   1.000  H
  O71      1.0000 0.87638  0.15918  0.94992  Biso   1.000  O
  O72      1.0000 0.71635  0.08279  0.92863  Biso   1.000  O
  H182     1.0000 0.53630  0.97328  0.89210  Biso   1.000  H
  H183     1.0000 0.51682  0.88027  0.87589  Biso   1.000  H
  H184     1.0000 0.55004  0.95547  0.85160  Biso   1.000  H
  C220     1.0000 0.92261  0.89921  0.93517  Biso   1.000  C
  H185     1.0000 0.38956  0.86666  0.98361  Biso   1.000  H
  H186     1.0000 0.24932  0.86522  0.98990  Biso   1.000  H
  H187     1.0000 0.65299  0.67806  0.97791  Biso   1.000  H
  H188     1.0000 0.59485  0.67831  0.93541  Biso   1.000  H
  H189     1.0000 0.68028  0.75489  0.95351  Biso   1.000  H
  H190     1.0000 0.87871  0.88221  0.95400  Biso   1.000  H
  H191     1.0000 0.91695  0.96011  0.93200  Biso   1.000  H
  H192     1.0000 0.88422  0.87161  0.91239  Biso   1.000  H
  Ne1      1.0000 0.80266  0.45849  0.12811  Biso   1.000  Ne
  He1      1.0000 0.86769  0.32411  0.13608  Biso   1.000  He
  He2      1.0000 0.74935  0.31774  0.14059  Biso   1.000  He
  Ar1      1.0000 0.79380  0.42550  0.12395  Biso   1.000  Ar
  Ne2      1.0000 0.19732  0.95847  0.37189  Biso   1.000  Ne
  He3      1.0000 0.24522  0.81786  0.35961  Biso   1.000  He
  He4      1.0000 0.10657  0.82446  0.36480  Biso   1.000  He
  Ar2      1.0000 0.20725  0.92547  0.37690  Biso   1.000  Ar
  Ne3      1.0000 0.80263  0.04151  0.62811  Biso   1.000  Ne
  He5      1.0000 0.84609  0.17619  0.63682  Biso   1.000  He
  He6      1.0000 0.73432  0.18257  0.64114  Biso   1.000  He
  Ar3      1.0000 0.78321  0.07450  0.63700  Biso   1.000  Ar
  Ne4      1.0000 0.19730  0.54151  0.87190  Biso   1.000  Ne
  He7      1.0000 0.25311  0.68231  0.85933  Biso   1.000  He
  He8      1.0000 0.23246  0.68188  0.86008  Biso   1.000  He
  Ar4      1.0000 0.21675  0.57448  0.86300  Biso   1.000  Ar
