data_image0
_cell_length_a       9.479
_cell_length_b       14.323
_cell_length_c       37.397
_cell_angle_alpha    90
_cell_angle_beta     90
_cell_angle_gamma    90

_symmetry_space_group_name_H-M    "P 1"
_symmetry_int_tables_number       1

loop_
  _symmetry_equiv_pos_as_xyz
  'x, y, z'

loop_
  _atom_site_label
  _atom_site_occupancy
  _atom_site_fract_x
  _atom_site_fract_y
  _atom_site_fract_z
  _atom_site_thermal_displace_type
  _atom_site_B_iso_or_equiv
  _atom_site_type_symbol
  O1       1.0000 0.53149  0.51567  0.50873  Biso   1.000  O
  C1       1.0000 0.46345  0.58200  0.48568  Biso   1.000  C
  H1       1.0000 0.57348  0.47700  0.49659  Biso   1.000  H
  C2       1.0000 0.38253  0.53159  0.45669  Biso   1.000  C
  C3       1.0000 0.37040  0.64351  0.50817  Biso   1.000  C
  H2       1.0000 0.53592  0.62089  0.47440  Biso   1.000  H
  O2       1.0000 0.48792  0.49668  0.43268  Biso   1.000  O
  C4       1.0000 0.28452  0.59638  0.43584  Biso   1.000  C
  H3       1.0000 0.32862  0.47979  0.46699  Biso   1.000  H
  C5       1.0000 0.28294  0.70690  0.48416  Biso   1.000  C
  O3       1.0000 0.44889  0.70258  0.53143  Biso   1.000  O
  H4       1.0000 0.30699  0.60427  0.52239  Biso   1.000  H
  C6       1.0000 0.48454  0.40271  0.42220  Biso   1.000  C
  O4       1.0000 0.20203  0.65210  0.46012  Biso   1.000  O
  C7       1.0000 0.17692  0.54528  0.41300  Biso   1.000  C
  H5       1.0000 0.34096  0.63758  0.42060  Biso   1.000  H
  O5       1.0000 0.37525  0.76562  0.46584  Biso   1.000  O
  H6       1.0000 0.21943  0.74461  0.49889  Biso   1.000  H
  H7       1.0000 0.39445  0.73483  0.54320  Biso   1.000  H
  O6       1.0000 0.44277  0.39468  0.38626  Biso   1.000  O
  C8       1.0000 0.63435  0.36619  0.42659  Biso   1.000  C
  H8       1.0000 0.41977  0.36752  0.43760  Biso   1.000  H
  O7       1.0000 0.08788  0.48698  0.43306  Biso   1.000  O
  H9       1.0000 0.11995  0.59073  0.40030  Biso   1.000  H
  H10      1.0000 0.22618  0.50792  0.39530  Biso   1.000  H
  C9       1.0000 0.33590  0.86141  0.46180  Biso   1.000  C
  C10      1.0000 0.52759  0.44711  0.36142  Biso   1.000  C
  C11      1.0000 0.73447  0.41521  0.40220  Biso   1.000  C
  O8       1.0000 0.67465  0.37702  0.46311  Biso   1.000  O
  H11      1.0000 0.63498  0.29952  0.42070  Biso   1.000  H
  H12      1.0000 0.04473  0.51840  0.44779  Biso   1.000  H
  C12      1.0000 0.43981  0.91852  0.48293  Biso   1.000  C
  C13      1.0000 0.33907  0.88473  0.42217  Biso   1.000  C
  H13      1.0000 0.24053  0.87112  0.47119  Biso   1.000  H
  C14      1.0000 0.46112  0.43462  0.32529  Biso   1.000  C
  C15      1.0000 0.68087  0.41528  0.36353  Biso   1.000  C
  H14      1.0000 0.52295  0.51330  0.36789  Biso   1.000  H
  O9       1.0000 0.87129  0.37262  0.40236  Biso   1.000  O
  H15      1.0000 0.74407  0.48007  0.41019  Biso   1.000  H
  H16      1.0000 0.61800  0.34958  0.47589  Biso   1.000  H
  O10      1.0000 0.41808  0.90540  0.52068  Biso   1.000  O
  H17      1.0000 0.53487  0.89653  0.47710  Biso   1.000  H
  C16      1.0000 0.43254  0.02108  0.47434  Biso   1.000  C
  O11      1.0000 0.32746  0.98380  0.41717  Biso   1.000  O
  C17      1.0000 0.22028  0.84172  0.40118  Biso   1.000  C
  H18      1.0000 0.42895  0.86337  0.41209  Biso   1.000  H
  O12      1.0000 0.47125  0.34092  0.31286  Biso   1.000  O
  H19      1.0000 0.36249  0.45228  0.32660  Biso   1.000  H
  H20      1.0000 0.50712  0.47567  0.30829  Biso   1.000  H
  O13      1.0000 0.76801  0.47790  0.34436  Biso   1.000  O
  H21      1.0000 0.68984  0.35237  0.35340  Biso   1.000  H
  H22      1.0000 0.92362  0.40117  0.38880  Biso   1.000  H
  H23      1.0000 0.44414  0.85289  0.52641  Biso   1.000  H
  C18      1.0000 0.43422  0.03477  0.43389  Biso   1.000  C
  O14      1.0000 0.54288  0.07240  0.48937  Biso   1.000  O
  H24      1.0000 0.34318  0.04573  0.48359  Biso   1.000  H
  O15      1.0000 0.08535  0.87468  0.41233  Biso   1.000  O
  H25      1.0000 0.23315  0.85583  0.37599  Biso   1.000  H
  H26      1.0000 0.22355  0.77442  0.40391  Biso   1.000  H
  H27      1.0000 0.43433  0.33680  0.29310  Biso   1.000  H
  C19      1.0000 0.82540  0.45032  0.31115  Biso   1.000  C
  O16      1.0000 0.56873  0.00649  0.42169  Biso   1.000  O
  H28      1.0000 0.42125  0.10117  0.42851  Biso   1.000  H
  H29      1.0000 0.59405  0.03742  0.50090  Biso   1.000  H
  H30      1.0000 0.08345  0.93193  0.41110  Biso   1.000  H
  C20      1.0000 0.98333  0.46973  0.31281  Biso   1.000  C
  O17      1.0000 0.76453  0.49787  0.28240  Biso   1.000  O
  H31      1.0000 0.81053  0.38309  0.30799  Biso   1.000  H
  C21      1.0000 0.65260  0.07031  0.40193  Biso   1.000  C
  O18      1.0000 0.04800  0.41981  0.34110  Biso   1.000  O
  C22      1.0000 0.01013  0.57251  0.31551  Biso   1.000  C
  H32      1.0000 0.02511  0.44781  0.29040  Biso   1.000  H
  C23      1.0000 0.77593  0.59841  0.28494  Biso   1.000  C
  C24      1.0000 0.80430  0.04601  0.41022  Biso   1.000  C
  C25      1.0000 0.62053  0.06242  0.36206  Biso   1.000  C
  H33      1.0000 0.63287  0.13412  0.41001  Biso   1.000  H
  H34      1.0000 0.03165  0.36389  0.33880  Biso   1.000  H
  C26      1.0000 0.93058  0.62543  0.28647  Biso   1.000  C
  H35      1.0000 0.97658  0.59429  0.33890  Biso   1.000  H
  O19      1.0000 0.15666  0.59003  0.31318  Biso   1.000  O
  C27      1.0000 0.69944  0.63688  0.25280  Biso   1.000  C
  H36      1.0000 0.72866  0.61970  0.30679  Biso   1.000  H
  C28      1.0000 0.90484  0.09418  0.38538  Biso   1.000  C
  H37      1.0000 0.81665  0.97843  0.40779  Biso   1.000  H
  O20      1.0000 0.82815  0.07149  0.44691  Biso   1.000  O
  O21      1.0000 0.72423  0.11290  0.34142  Biso   1.000  O
  H38      1.0000 0.62401  0.99637  0.35519  Biso   1.000  H
  C29      1.0000 0.47885  0.10179  0.35137  Biso   1.000  C
  O22      1.0000 0.94240  0.72233  0.29478  Biso   1.000  O
  H39      1.0000 0.97468  0.61321  0.26320  Biso   1.000  H
  H40      1.0000 0.17112  0.64630  0.31470  Biso   1.000  H
  O23      1.0000 0.77582  0.62403  0.22010  Biso   1.000  O
  H41      1.0000 0.60829  0.60637  0.25080  Biso   1.000  H
  H42      1.0000 0.68267  0.70300  0.25641  Biso   1.000  H
  C30      1.0000 0.86317  0.07917  0.34669  Biso   1.000  C
  H43      1.0000 0.90431  0.16128  0.39059  Biso   1.000  H
  O24      1.0000 0.04315  0.05837  0.39110  Biso   1.000  O
  H44      1.0000 0.92151  0.04140  0.46071  Biso   1.000  H
  H45      1.0000 0.77149  0.04412  0.45969  Biso   1.000  H
  O25      1.0000 0.46556  0.19549  0.36516  Biso   1.000  O
  H46      1.0000 0.47062  0.10263  0.32551  Biso   1.000  H
  H47      1.0000 0.40395  0.06291  0.36091  Biso   1.000  H
  C31      1.0000 0.98481  0.78461  0.26810  Biso   1.000  C
  H48      1.0000 0.78890  0.56811  0.21670  Biso   1.000  H
  O26      1.0000 0.87182  0.98359  0.33947  Biso   1.000  O
  H49      1.0000 0.92837  0.11317  0.33110  Biso   1.000  H
  H50      1.0000 0.09600  0.10110  0.39690  Biso   1.000  H
  H51      1.0000 0.38865  0.21692  0.35949  Biso   1.000  H
  O27      1.0000 0.87520  0.84410  0.25775  Biso   1.000  O
  C32      1.0000 0.10602  0.84200  0.28200  Biso   1.000  C
  H52      1.0000 0.01656  0.74901  0.24721  Biso   1.000  H
  C33      1.0000 0.92657  0.95357  0.30540  Biso   1.000  C
  C34      1.0000 0.81306  0.89583  0.28660  Biso   1.000  C
  O28      1.0000 0.22112  0.78280  0.29224  Biso   1.000  O
  C35      1.0000 0.05961  0.89911  0.31393  Biso   1.000  C
  H53      1.0000 0.13788  0.88438  0.26310  Biso   1.000  H
  H54      1.0000 0.95031  0.00817  0.29080  Biso   1.000  H
  C36      1.0000 0.69775  0.95518  0.27096  Biso   1.000  C
  H55      1.0000 0.77181  0.85199  0.30379  Biso   1.000  H
  H56      1.0000 0.19316  0.72883  0.29390  Biso   1.000  H
  O29      1.0000 0.16943  0.96202  0.32361  Biso   1.000  O
  H57      1.0000 0.04093  0.85708  0.33401  Biso   1.000  H
  H58      1.0000 0.65355  0.97773  0.29299  Biso   1.000  H
  O30      1.0000 0.59057  0.89458  0.25850  Biso   1.000  O
  O31      1.0000 0.73763  0.04049  0.25566  Biso   1.000  O
  H59      1.0000 0.14442  0.99323  0.34091  Biso   1.000  H
  H60      1.0000 0.52600  0.92557  0.24999  Biso   1.000  H
  H61      1.0000 0.66737  0.06751  0.24809  Biso   1.000  H
  O32      1.0000 0.32809  0.42847  0.55309  Biso   1.000  O
  C37      1.0000 0.30425  0.45402  0.58978  Biso   1.000  C
  H62      1.0000 0.42146  0.45863  0.53929  Biso   1.000  H
  H63      1.0000 0.27155  0.45591  0.54031  Biso   1.000  H
  C38      1.0000 0.15255  0.42973  0.59807  Biso   1.000  C
  C39      1.0000 0.40479  0.40578  0.61462  Biso   1.000  C
  H64      1.0000 0.31670  0.52161  0.59221  Biso   1.000  H
  O33      1.0000 0.06868  0.49347  0.57831  Biso   1.000  O
  C40      1.0000 0.12048  0.43762  0.63794  Biso   1.000  C
  H65      1.0000 0.13293  0.36591  0.58999  Biso   1.000  H
  C41      1.0000 0.36322  0.42079  0.65331  Biso   1.000  C
  O34      1.0000 0.54320  0.44160  0.60890  Biso   1.000  O
  H66      1.0000 0.40426  0.33869  0.60941  Biso   1.000  H
  C42      1.0000 0.93417  0.46520  0.56611  Biso   1.000  C
  O35      1.0000 0.22418  0.38707  0.65858  Biso   1.000  O
  H67      1.0000 0.12396  0.50360  0.64481  Biso   1.000  H
  C43      1.0000 0.97880  0.39817  0.64863  Biso   1.000  C
  O36      1.0000 0.37177  0.51637  0.66053  Biso   1.000  O
  H68      1.0000 0.42842  0.38679  0.66890  Biso   1.000  H
  H69      1.0000 0.59595  0.39887  0.60310  Biso   1.000  H
  C44      1.0000 0.93248  0.47888  0.52566  Biso   1.000  C
  O37      1.0000 0.82751  0.51623  0.58283  Biso   1.000  O
  H70      1.0000 0.92119  0.39880  0.57149  Biso   1.000  H
  O38      1.0000 0.96561  0.30448  0.63484  Biso   1.000  O
  H71      1.0000 0.97057  0.39740  0.67449  Biso   1.000  H
  H72      1.0000 0.90389  0.43713  0.63909  Biso   1.000  H
  C45      1.0000 0.42663  0.54639  0.69460  Biso   1.000  C
  O39      1.0000 0.04294  0.42763  0.51063  Biso   1.000  O
  C46      1.0000 0.93976  0.58151  0.51707  Biso   1.000  C
  H73      1.0000 0.84323  0.45430  0.51641  Biso   1.000  H
  C47      1.0000 0.83912  0.61530  0.57783  Biso   1.000  C
  H74      1.0000 0.88860  0.28311  0.64051  Biso   1.000  H
  C48      1.0000 0.55955  0.60092  0.68607  Biso   1.000  C
  C49      1.0000 0.31311  0.60420  0.71340  Biso   1.000  C
  H75      1.0000 0.45026  0.49180  0.70920  Biso   1.000  H
  H76      1.0000 0.09410  0.46261  0.49910  Biso   1.000  H
  H77      1.0000 0.03492  0.60350  0.52290  Biso   1.000  H
  O40      1.0000 0.91813  0.59457  0.47932  Biso   1.000  O
  C50      1.0000 0.83585  0.63862  0.53820  Biso   1.000  C
  C51      1.0000 0.72033  0.65831  0.59882  Biso   1.000  C
  H78      1.0000 0.92900  0.63660  0.58791  Biso   1.000  H
  C52      1.0000 0.60597  0.65803  0.71800  Biso   1.000  C
  O41      1.0000 0.66937  0.53802  0.67639  Biso   1.000  O
  H79      1.0000 0.54088  0.64288  0.66599  Biso   1.000  H
  O42      1.0000 0.37525  0.65587  0.74225  Biso   1.000  O
  C53      1.0000 0.19781  0.54479  0.72904  Biso   1.000  C
  H80      1.0000 0.27176  0.64798  0.69621  Biso   1.000  H
  H81      1.0000 0.94409  0.64707  0.47359  Biso   1.000  H
  O43      1.0000 0.87520  0.73441  0.53416  Biso   1.000  O
  H82      1.0000 0.74048  0.62892  0.52881  Biso   1.000  H
  O44      1.0000 0.58529  0.62529  0.58767  Biso   1.000  O
  H83      1.0000 0.73309  0.64421  0.62401  Biso   1.000  H
  H84      1.0000 0.72349  0.72562  0.59609  Biso   1.000  H
  C54      1.0000 0.48476  0.71542  0.73190  Biso   1.000  C
  O45      1.0000 0.72107  0.71717  0.70776  Biso   1.000  O
  H85      1.0000 0.63794  0.61558  0.73690  Biso   1.000  H
  H86      1.0000 0.64437  0.50681  0.65909  Biso   1.000  H
  O46      1.0000 0.23758  0.45947  0.74434  Biso   1.000  O
  H87      1.0000 0.15350  0.52231  0.70701  Biso   1.000  H
  O47      1.0000 0.09062  0.60539  0.74150  Biso   1.000  O
  C55      1.0000 0.78289  0.79313  0.51584  Biso   1.000  C
  H88      1.0000 0.58350  0.56811  0.58890  Biso   1.000  H
  O48      1.0000 0.44245  0.77770  0.70522  Biso   1.000  O
  H89      1.0000 0.51662  0.75103  0.75279  Biso   1.000  H
  H90      1.0000 0.69322  0.77121  0.70610  Biso   1.000  H
  H91      1.0000 0.16742  0.43252  0.75191  Biso   1.000  H
  H92      1.0000 0.02595  0.57439  0.75001  Biso   1.000  H
  C56      1.0000 0.87045  0.85652  0.49183  Biso   1.000  C
  O49      1.0000 0.70197  0.84787  0.53988  Biso   1.000  O
  H93      1.0000 0.71938  0.75543  0.50111  Biso   1.000  H
  C57      1.0000 0.43064  0.87461  0.71353  Biso   1.000  C
  O50      1.0000 0.94894  0.79739  0.46857  Biso   1.000  O
  C58      1.0000 0.96339  0.91803  0.51432  Biso   1.000  C
  H94      1.0000 0.80705  0.89569  0.47761  Biso   1.000  H
  C59      1.0000 0.78447  0.90358  0.56416  Biso   1.000  C
  C60      1.0000 0.51007  0.92753  0.68449  Biso   1.000  C
  C61      1.0000 0.27587  0.90163  0.71506  Biso   1.000  C
  H95      1.0000 0.47473  0.88683  0.73680  Biso   1.000  H
  H96      1.0000 0.89440  0.76520  0.45680  Biso   1.000  H
  O51      1.0000 0.03154  0.98429  0.49127  Biso   1.000  O
  H97      1.0000 0.03587  0.87908  0.52560  Biso   1.000  H
  C62      1.0000 0.88248  0.96837  0.54331  Biso   1.000  C
  C63      1.0000 0.67686  0.95469  0.58700  Biso   1.000  C
  H98      1.0000 0.84102  0.86239  0.57940  Biso   1.000  H
  O52      1.0000 0.65671  0.91000  0.68682  Biso   1.000  O
  H99      1.0000 0.47663  0.90568  0.66110  Biso   1.000  H
  C64      1.0000 0.48328  0.03030  0.68719  Biso   1.000  C
  C65      1.0000 0.19939  0.86309  0.74720  Biso   1.000  C
  H100     1.0000 0.22872  0.88033  0.69321  Biso   1.000  H
  O53      1.0000 0.26448  0.00209  0.71760  Biso   1.000  O
  H101     1.0000 0.07353  0.02297  0.50341  Biso   1.000  H
  O54      1.0000 0.98787  0.00328  0.56732  Biso   1.000  O
  H102     1.0000 0.82857  0.02018  0.53301  Biso   1.000  H
  H103     1.0000 0.61990  0.90931  0.59970  Biso   1.000  H
  H104     1.0000 0.72624  0.99211  0.60470  Biso   1.000  H
  O55      1.0000 0.58793  0.01299  0.56694  Biso   1.000  O
  H105     1.0000 0.67106  0.85373  0.68530  Biso   1.000  H
  C66      1.0000 0.32535  0.04971  0.68885  Biso   1.000  C
  O56      1.0000 0.54795  0.08022  0.65890  Biso   1.000  O
  H106     1.0000 0.52506  0.05222  0.70960  Biso   1.000  H
  O57      1.0000 0.27577  0.87600  0.77990  Biso   1.000  O
  H107     1.0000 0.10834  0.89360  0.74920  Biso   1.000  H
  H108     1.0000 0.18272  0.79697  0.74359  Biso   1.000  H
  C67      1.0000 0.98449  0.09733  0.57780  Biso   1.000  C
  H109     1.0000 0.54468  0.98157  0.55221  Biso   1.000  H
  O58      1.0000 0.26796  0.02213  0.65564  Biso   1.000  O
  H110     1.0000 0.31048  0.11687  0.69201  Biso   1.000  H
  H111     1.0000 0.53170  0.13607  0.66120  Biso   1.000  H
  H112     1.0000 0.28885  0.93193  0.78330  Biso   1.000  H
  O59      1.0000 0.94282  0.10529  0.61374  Biso   1.000  O
  H113     1.0000 0.91982  0.13251  0.56240  Biso   1.000  H
  C68      1.0000 0.13430  0.13377  0.57341  Biso   1.000  C
  C69      1.0000 0.18093  0.08469  0.63647  Biso   1.000  C
  C70      1.0000 0.02764  0.05292  0.63858  Biso   1.000  C
  O60      1.0000 0.17460  0.12302  0.53689  Biso   1.000  O
  C71      1.0000 0.23452  0.08483  0.59780  Biso   1.000  C
  H114     1.0000 0.13504  0.20052  0.57930  Biso   1.000  H
  H115     1.0000 0.18979  0.14759  0.64660  Biso   1.000  H
  H116     1.0000 0.02289  0.98673  0.63211  Biso   1.000  H
  C72      1.0000 0.96107  0.06542  0.67471  Biso   1.000  C
  H117     1.0000 0.11805  0.15039  0.52411  Biso   1.000  H
  O61      1.0000 0.37135  0.12742  0.59764  Biso   1.000  O
  H118     1.0000 0.24412  0.01990  0.58981  Biso   1.000  H
  O62      1.0000 0.97120  0.15911  0.68714  Biso   1.000  O
  H119     1.0000 0.86254  0.04769  0.67340  Biso   1.000  H
  H120     1.0000 0.00707  0.02430  0.69171  Biso   1.000  H
  H121     1.0000 0.42357  0.09879  0.61120  Biso   1.000  H
  H122     1.0000 0.93428  0.16323  0.70690  Biso   1.000  H
  O63      1.0000 0.72423  0.37597  0.72011  Biso   1.000  O
  C73      1.0000 0.80061  0.36312  0.75281  Biso   1.000  C
  H123     1.0000 0.71115  0.43189  0.71669  Biso   1.000  H
  C74      1.0000 0.72413  0.40159  0.78496  Biso   1.000  C
  H124     1.0000 0.89166  0.39363  0.75081  Biso   1.000  H
  H125     1.0000 0.81728  0.29700  0.75640  Biso   1.000  H
  C75      1.0000 0.56936  0.37457  0.78648  Biso   1.000  C
  O64      1.0000 0.73552  0.50213  0.78242  Biso   1.000  O
  H126     1.0000 0.77128  0.38030  0.80680  Biso   1.000  H
  C76      1.0000 0.48993  0.42749  0.81552  Biso   1.000  C
  O65      1.0000 0.55755  0.27767  0.79480  Biso   1.000  O
  H127     1.0000 0.52527  0.38679  0.76319  Biso   1.000  H
  C77      1.0000 0.67465  0.54968  0.81113  Biso   1.000  C
  C78      1.0000 0.51672  0.53027  0.81282  Biso   1.000  C
  O66      1.0000 0.34329  0.40997  0.81317  Biso   1.000  O
  H128     1.0000 0.52337  0.40571  0.83889  Biso   1.000  H
  C79      1.0000 0.51524  0.21539  0.76811  Biso   1.000  C
  O67      1.0000 0.73204  0.52210  0.84435  Biso   1.000  O
  H129     1.0000 0.68952  0.61691  0.80801  Biso   1.000  H
  O68      1.0000 0.45205  0.58019  0.84111  Biso   1.000  O
  H130     1.0000 0.47494  0.55219  0.79041  Biso   1.000  H
  H131     1.0000 0.32894  0.35370  0.81469  Biso   1.000  H
  C80      1.0000 0.39403  0.15800  0.78201  Biso   1.000  C
  O69      1.0000 0.62475  0.15590  0.75776  Biso   1.000  O
  H132     1.0000 0.48338  0.25099  0.74720  Biso   1.000  H
  C81      1.0000 0.81907  0.58472  0.86355  Biso   1.000  C
  H133     1.0000 0.46830  0.63611  0.83881  Biso   1.000  H
  O70      1.0000 0.27893  0.21720  0.79223  Biso   1.000  O
  C82      1.0000 0.44045  0.10089  0.81392  Biso   1.000  C
  H134     1.0000 0.36206  0.11562  0.76311  Biso   1.000  H
  C83      1.0000 0.68689  0.10417  0.78659  Biso   1.000  C
  C84      1.0000 0.76548  0.58479  0.90221  Biso   1.000  C
  C85      1.0000 0.97236  0.55289  0.86143  Biso   1.000  C
  H135     1.0000 0.81021  0.64763  0.85341  Biso   1.000  H
  H136     1.0000 0.30678  0.27117  0.79389  Biso   1.000  H
  O71      1.0000 0.33063  0.03798  0.82360  Biso   1.000  O
  C86      1.0000 0.57337  0.04643  0.80539  Biso   1.000  C
  H137     1.0000 0.45912  0.14292  0.83400  Biso   1.000  H
  C87      1.0000 0.80219  0.04482  0.77097  Biso   1.000  C
  H138     1.0000 0.72824  0.14801  0.80381  Biso   1.000  H
  C88      1.0000 0.86570  0.63381  0.92657  Biso   1.000  C
  O72      1.0000 0.62865  0.62738  0.90237  Biso   1.000  O
  H139     1.0000 0.75588  0.51993  0.91021  Biso   1.000  H
  H140     1.0000 0.97711  0.48670  0.86790  Biso   1.000  H
  O73      1.0000 0.05718  0.60532  0.88625  Biso   1.000  O
  C89      1.0000 0.03893  0.56538  0.82528  Biso   1.000  C
  H141     1.0000 0.35563  0.00677  0.84090  Biso   1.000  H
  O74      1.0000 0.62823  0.01641  0.83948  Biso   1.000  O
  H142     1.0000 0.54974  0.99183  0.79081  Biso   1.000  H
  H143     1.0000 0.84650  0.02227  0.79300  Biso   1.000  H
  O75      1.0000 0.90938  0.10542  0.75851  Biso   1.000  O
  O76      1.0000 0.76242  0.95951  0.75568  Biso   1.000  O
  O77      1.0000 0.82540  0.62298  0.96310  Biso   1.000  O
  H144     1.0000 0.86496  0.70048  0.92069  Biso   1.000  H
  C90      1.0000 0.01551  0.59729  0.92221  Biso   1.000  C
  H145     1.0000 0.57643  0.59883  0.88879  Biso   1.000  H
  H146     1.0000 0.99293  0.52433  0.80830  Biso   1.000  H
  O78      1.0000 0.02880  0.65908  0.81287  Biso   1.000  O
  H147     1.0000 0.13746  0.54772  0.82659  Biso   1.000  H
  C91      1.0000 0.63678  0.92083  0.84667  Biso   1.000  C
  H148     1.0000 0.97405  0.07443  0.75001  Biso   1.000  H
  H149     1.0000 0.83258  0.93249  0.74811  Biso   1.000  H
  H150     1.0000 0.88195  0.65042  0.97591  Biso   1.000  H
  O79      1.0000 0.01213  0.50332  0.93267  Biso   1.000  O
  H151     1.0000 0.08018  0.63248  0.93759  Biso   1.000  H
  H152     1.0000 0.06572  0.66320  0.79311  Biso   1.000  H
  C92      1.0000 0.59521  0.90582  0.88539  Biso   1.000  C
  O80      1.0000 0.77582  0.88710  0.84143  Biso   1.000  O
  H153     1.0000 0.57158  0.88683  0.83111  Biso   1.000  H
  C93      1.0000 0.11752  0.46841  0.95668  Biso   1.000  C
  O81      1.0000 0.45680  0.94163  0.89109  Biso   1.000  O
  C94      1.0000 0.69575  0.95399  0.91023  Biso   1.000  C
  H154     1.0000 0.59574  0.83872  0.89061  Biso   1.000  H
  C95      1.0000 0.87952  0.93758  0.86207  Biso   1.000  C
  C96      1.0000 0.03661  0.41800  0.98567  Biso   1.000  C
  C97      1.0000 0.21553  0.40362  0.93585  Biso   1.000  C
  H155     1.0000 0.17143  0.52021  0.96700  Biso   1.000  H
  H156     1.0000 0.40405  0.89890  0.89689  Biso   1.000  H
  H157     1.0000 0.68330  0.02157  0.90780  Biso   1.000  H
  O82      1.0000 0.67191  0.92851  0.94689  Biso   1.000  O
  C98      1.0000 0.84745  0.92969  0.90194  Biso   1.000  C
  H158     1.0000 0.87604  0.00363  0.85520  Biso   1.000  H
  C99      1.0000 0.02120  0.89821  0.85135  Biso   1.000  C
  H159     1.0000 0.96413  0.37911  0.97441  Biso   1.000  H
  O83      1.0000 0.96846  0.48433  0.00872  Biso   1.000  O
  C100     1.0000 0.12955  0.35649  0.00818  Biso   1.000  C
  O84      1.0000 0.29803  0.34790  0.96010  Biso   1.000  O
  C101     1.0000 0.32314  0.45472  0.91299  Biso   1.000  C
  H160     1.0000 0.15898  0.36242  0.92061  Biso   1.000  H
  H161     1.0000 0.57854  0.95860  0.96069  Biso   1.000  H
  H162     1.0000 0.72845  0.95588  0.95970  Biso   1.000  H
  O85      1.0000 0.93132  0.99351  0.92170  Biso   1.000  O
  H163     1.0000 0.86707  0.86588  0.90999  Biso   1.000  H
  O86      1.0000 0.03439  0.80451  0.86515  Biso   1.000  O
  H164     1.0000 0.02943  0.89737  0.82549  Biso   1.000  H
  H165     1.0000 0.09611  0.93709  0.86090  Biso   1.000  H
  H166     1.0000 0.92647  0.52300  0.99660  Biso   1.000  H
  C102     1.0000 0.21711  0.29310  0.98414  Biso   1.000  C
  O87      1.0000 0.05106  0.29742  0.03145  Biso   1.000  O
  H167     1.0000 0.19295  0.39573  0.02241  Biso   1.000  H
  O88      1.0000 0.41207  0.51302  0.93307  Biso   1.000  O
  H168     1.0000 0.38010  0.40927  0.90031  Biso   1.000  H
  H169     1.0000 0.27376  0.49208  0.89531  Biso   1.000  H
  C103     1.0000 0.06583  0.96523  0.93390  Biso   1.000  C
  H170     1.0000 0.11140  0.78308  0.85951  Biso   1.000  H
  O89      1.0000 0.12480  0.23438  0.96583  Biso   1.000  O
  H171     1.0000 0.28062  0.25539  0.99890  Biso   1.000  H
  H172     1.0000 0.10560  0.26517  0.04321  Biso   1.000  H
  H173     1.0000 0.45532  0.48160  0.94780  Biso   1.000  H
  C104     1.0000 0.06752  0.97892  0.97433  Biso   1.000  C
  H174     1.0000 0.07881  0.89883  0.92850  Biso   1.000  H
  O90      1.0000 0.17249  0.01620  0.91719  Biso   1.000  O
  C105     1.0000 0.16415  0.13859  0.96179  Biso   1.000  C
  O91      1.0000 0.95706  0.92760  0.98938  Biso   1.000  O
  H175     1.0000 0.15677  0.95427  0.98361  Biso   1.000  H
  C106     1.0000 0.06024  0.08148  0.98294  Biso   1.000  C
  C107     1.0000 0.16088  0.11527  0.92216  Biso   1.000  C
  H176     1.0000 0.25952  0.12888  0.97120  Biso   1.000  H
  H177     1.0000 0.90590  0.96258  0.00091  Biso   1.000  H
  H178     1.0000 0.96508  0.10347  0.97711  Biso   1.000  H
  O92      1.0000 0.08187  0.09460  0.02067  Biso   1.000  O
  C108     1.0000 0.27967  0.15828  0.90117  Biso   1.000  C
  H179     1.0000 0.07100  0.13663  0.91211  Biso   1.000  H
  H180     1.0000 0.05591  0.14711  0.02639  Biso   1.000  H
  O93      1.0000 0.41471  0.12532  0.91232  Biso   1.000  O
  H181     1.0000 0.26691  0.14417  0.87601  Biso   1.000  H
  H182     1.0000 0.27651  0.22558  0.90390  Biso   1.000  H
  H183     1.0000 0.41650  0.06807  0.91109  Biso   1.000  H
  O94      1.0000 0.40943  0.39461  0.24149  Biso   1.000  O
  C109     1.0000 0.30225  0.45521  0.22903  Biso   1.000  C
  H184     1.0000 0.47400  0.42561  0.24999  Biso   1.000  H
  C110     1.0000 0.18694  0.39580  0.21341  Biso   1.000  C
  O95      1.0000 0.26237  0.54053  0.24432  Biso   1.000  O
  H185     1.0000 0.34645  0.47769  0.20700  Biso   1.000  H
  O96      1.0000 0.12480  0.34413  0.24224  Biso   1.000  O
  C111     1.0000 0.07343  0.45361  0.19461  Biso   1.000  C
  H186     1.0000 0.22819  0.35202  0.19619  Biso   1.000  H
  H187     1.0000 0.33263  0.56748  0.25189  Biso   1.000  H
  C112     1.0000 0.01519  0.28458  0.23189  Biso   1.000  C
  C113     1.0000 0.94039  0.39908  0.18608  Biso   1.000  C
  O97      1.0000 0.12818  0.48363  0.16052  Biso   1.000  O
  H188     1.0000 0.04969  0.50820  0.20919  Biso   1.000  H
  O98      1.0000 0.05760  0.22230  0.20520  Biso   1.000  O
  C114     1.0000 0.89398  0.34197  0.21799  Biso   1.000  C
  H189     1.0000 0.98344  0.24897  0.25280  Biso   1.000  H
  O99      1.0000 0.83057  0.46198  0.17640  Biso   1.000  O
  H190     1.0000 0.95907  0.35712  0.16600  Biso   1.000  H
  C115     1.0000 0.13683  0.57921  0.15333  Biso   1.000  C
  C116     1.0000 0.06942  0.12539  0.21352  Biso   1.000  C
  O100     1.0000 0.77888  0.28283  0.20777  Biso   1.000  O
  H191     1.0000 0.86212  0.38442  0.23689  Biso   1.000  H
  H192     1.0000 0.85558  0.49319  0.15910  Biso   1.000  H
  C117     1.0000 0.09516  0.59422  0.11461  Biso   1.000  C
  O101     1.0000 0.27577  0.61293  0.15857  Biso   1.000  O
  H193     1.0000 0.07163  0.61321  0.16889  Biso   1.000  H
  C118     1.0000 0.22407  0.09837  0.21504  Biso   1.000  C
  H194     1.0000 0.02532  0.11317  0.23681  Biso   1.000  H
  C119     1.0000 0.98987  0.07247  0.18448  Biso   1.000  C
  H195     1.0000 0.80684  0.22879  0.20611  Biso   1.000  H
  C120     1.0000 0.19570  0.54598  0.08977  Biso   1.000  C
  H196     1.0000 0.09569  0.66131  0.10939  Biso   1.000  H
  O102     1.0000 0.95685  0.55840  0.10891  Biso   1.000  O
  C121     1.0000 0.37947  0.56238  0.13793  Biso   1.000  C
  C122     1.0000 0.30056  0.13691  0.24719  Biso   1.000  C
  H197     1.0000 0.27134  0.11967  0.19320  Biso   1.000  H
  O103     1.0000 0.23547  0.99791  0.21758  Biso   1.000  O
  H198     1.0000 0.02342  0.09432  0.16111  Biso   1.000  H
  O104     1.0000 0.84334  0.09000  0.18683  Biso   1.000  O
  C123     1.0000 0.01667  0.96970  0.18718  Biso   1.000  C
  O105     1.0000 0.17185  0.57153  0.05311  Biso   1.000  O
  C124     1.0000 0.34740  0.57027  0.09806  Biso   1.000  C
  H199     1.0000 0.18335  0.47839  0.09220  Biso   1.000  H
  H200     1.0000 0.90400  0.60113  0.10311  Biso   1.000  H
  C125     1.0000 0.52115  0.60183  0.14865  Biso   1.000  C
  H201     1.0000 0.37599  0.49640  0.14480  Biso   1.000  H
  O106     1.0000 0.22418  0.12400  0.27989  Biso   1.000  O
  H202     1.0000 0.39171  0.10640  0.24919  Biso   1.000  H
  H203     1.0000 0.31733  0.20303  0.24360  Biso   1.000  H
  C126     1.0000 0.17460  0.95029  0.18887  Biso   1.000  C
  H204     1.0000 0.82888  0.14627  0.18531  Biso   1.000  H
  O107     1.0000 0.95200  0.91978  0.15889  Biso   1.000  O
  H205     1.0000 0.97489  0.94778  0.20959  Biso   1.000  H
  H206     1.0000 0.07849  0.54137  0.03931  Biso   1.000  H
  H207     1.0000 0.22851  0.54409  0.04030  Biso   1.000  H
  O108     1.0000 0.43127  0.50653  0.07830  Biso   1.000  O
  H208     1.0000 0.36713  0.63409  0.09001  Biso   1.000  H
  O109     1.0000 0.53444  0.69552  0.13485  Biso   1.000  O
  H209     1.0000 0.52938  0.60260  0.17451  Biso   1.000  H
  H210     1.0000 0.59605  0.56287  0.13910  Biso   1.000  H
  H211     1.0000 0.21110  0.06807  0.28331  Biso   1.000  H
  O110     1.0000 0.23199  0.97787  0.15565  Biso   1.000  O
  H212     1.0000 0.18947  0.88313  0.19199  Biso   1.000  H
  H213     1.0000 0.96835  0.86393  0.16119  Biso   1.000  H
  C127     1.0000 0.56578  0.53480  0.06610  Biso   1.000  C
  H214     1.0000 0.61135  0.71689  0.14049  Biso   1.000  H
  C128     1.0000 0.31913  0.91531  0.13645  Biso   1.000  C
  C129     1.0000 0.56746  0.52112  0.02567  Biso   1.000  C
  O111     1.0000 0.67254  0.48377  0.08281  Biso   1.000  O
  H215     1.0000 0.57875  0.60120  0.07150  Biso   1.000  H
  C130     1.0000 0.26553  0.91517  0.09779  Biso   1.000  C
  C131     1.0000 0.47241  0.94708  0.13857  Biso   1.000  C
  H216     1.0000 0.31016  0.85241  0.14659  Biso   1.000  H
  O112     1.0000 0.45712  0.57237  0.01062  Biso   1.000  O
  C132     1.0000 0.56019  0.41849  0.01706  Biso   1.000  C
  H217     1.0000 0.65682  0.54570  0.01639  Biso   1.000  H
  C133     1.0000 0.66093  0.38470  0.07784  Biso   1.000  C
  C134     1.0000 0.36565  0.86623  0.07343  Biso   1.000  C
  O113     1.0000 0.12871  0.87258  0.09763  Biso   1.000  O
  H218     1.0000 0.25593  0.98010  0.08979  Biso   1.000  H
  H219     1.0000 0.47705  0.01327  0.13210  Biso   1.000  H
  O114     1.0000 0.55723  0.89471  0.11375  Biso   1.000  O
  C135     1.0000 0.53888  0.93458  0.17472  Biso   1.000  C
  H220     1.0000 0.40595  0.53739  0.99909  Biso   1.000  H
  C136     1.0000 0.66410  0.36138  0.03821  Biso   1.000  C
  H221     1.0000 0.46513  0.39650  0.02289  Biso   1.000  H
  O115     1.0000 0.58192  0.40543  0.97933  Biso   1.000  O
  C137     1.0000 0.77972  0.34169  0.09883  Biso   1.000  C
  H222     1.0000 0.57105  0.36340  0.08789  Biso   1.000  H
  C138     1.0000 0.51546  0.90267  0.07779  Biso   1.000  C
  O116     1.0000 0.32535  0.87698  0.03690  Biso   1.000  O
  H223     1.0000 0.36502  0.79948  0.07931  Biso   1.000  H
  H224     1.0000 0.07638  0.90121  0.11121  Biso   1.000  H
  O117     1.0000 0.52875  0.84089  0.18713  Biso   1.000  O
  H225     1.0000 0.63751  0.95231  0.17341  Biso   1.000  H
  H226     1.0000 0.49288  0.97570  0.19170  Biso   1.000  H
  O118     1.0000 0.62475  0.26559  0.03417  Biso   1.000  O
  H227     1.0000 0.75947  0.37108  0.02880  Biso   1.000  H
  H228     1.0000 0.55586  0.35293  0.97361  Biso   1.000  H
  O119     1.0000 0.91465  0.37471  0.08768  Biso   1.000  O
  H229     1.0000 0.76685  0.35579  0.12399  Biso   1.000  H
  H230     1.0000 0.77645  0.27438  0.09610  Biso   1.000  H
  O120     1.0000 0.51208  0.99672  0.06733  Biso   1.000  O
  H231     1.0000 0.58023  0.86749  0.06241  Biso   1.000  H
  H232     1.0000 0.38200  0.84961  0.02409  Biso   1.000  H
  H233     1.0000 0.56567  0.83677  0.20689  Biso   1.000  H
  C139     1.0000 0.71706  0.20687  0.01586  Biso   1.000  C
  H234     1.0000 0.91655  0.43189  0.08891  Biso   1.000  H
  C140     1.0000 0.61747  0.03163  0.04332  Biso   1.000  C
  C141     1.0000 0.62960  0.14348  0.99182  Biso   1.000  C
  O121     1.0000 0.79797  0.15213  0.03990  Biso   1.000  O
  H235     1.0000 0.78057  0.24457  0.00110  Biso   1.000  H
  C142     1.0000 0.53655  0.08197  0.01433  Biso   1.000  C
  C143     1.0000 0.71548  0.09642  0.06415  Biso   1.000  C
  H236     1.0000 0.67138  0.97982  0.03300  Biso   1.000  H
  O122     1.0000 0.55111  0.20261  0.96855  Biso   1.000  O
  H237     1.0000 0.69301  0.10431  0.97759  Biso   1.000  H
  H238     1.0000 0.46408  0.12092  0.02559  Biso   1.000  H
  O123     1.0000 0.46851  0.01571  0.99128  Biso   1.000  O
  C144     1.0000 0.82308  0.04531  0.08701  Biso   1.000  C
  H239     1.0000 0.65904  0.13761  0.07939  Biso   1.000  H
  H240     1.0000 0.60555  0.23480  0.95679  Biso   1.000  H
  H241     1.0000 0.42652  0.97703  0.00340  Biso   1.000  H
  H242     1.0000 0.88005  0.09069  0.09969  Biso   1.000  H
  H243     1.0000 0.77382  0.00789  0.10469  Biso   1.000  H
  O124     1.0000 0.91212  0.98701  0.06693  Biso   1.000  O
  H244     1.0000 0.95527  0.01843  0.05220  Biso   1.000  H
