data_image0
_cell_length_a       34.241
_cell_length_b       7.996
_cell_length_c       18.863
_cell_angle_alpha    90
_cell_angle_beta     90
_cell_angle_gamma    90

_symmetry_space_group_name_H-M    "P 1"
_symmetry_int_tables_number       1

loop_
  _symmetry_equiv_pos_as_xyz
  'x, y, z'

loop_
  _atom_site_label
  _atom_site_occupancy
  _atom_site_fract_x
  _atom_site_fract_y
  _atom_site_fract_z
  _atom_site_thermal_displace_type
  _atom_site_B_iso_or_equiv
  _atom_site_type_symbol
  C1       1.0000 0.48953  0.53989  0.67921  Biso   1.000  C
  C2       1.0000 0.51038  0.61856  0.62588  Biso   1.000  C
  C3       1.0000 0.45714  0.44547  0.66119  Biso   1.000  C
  H1       1.0000 0.49520  0.55803  0.73302  Biso   1.000  H
  N1       1.0000 0.50034  0.60918  0.55760  Biso   1.000  N
  C4       1.0000 0.54592  0.72161  0.64274  Biso   1.000  C
  C5       1.0000 0.44628  0.43447  0.59026  Biso   1.000  C
  H2       1.0000 0.44330  0.37806  0.70100  Biso   1.000  H
  C6       1.0000 0.46877  0.51888  0.54074  Biso   1.000  C
  O1       1.0000 0.55638  0.74725  0.70408  Biso   1.000  O
  N2       1.0000 0.56462  0.78277  0.58612  Biso   1.000  N
  H3       1.0000 0.42361  0.38007  0.58119  Biso   1.000  H
  C7       1.0000 0.45846  0.51188  0.46329  Biso   1.000  C
  H4       1.0000 0.55781  0.75000  0.54498  Biso   1.000  H
  C8       1.0000 0.59916  0.88569  0.59423  Biso   1.000  C
  N3       1.0000 0.48112  0.60918  0.42273  Biso   1.000  N
  O2       1.0000 0.43185  0.42321  0.44113  Biso   1.000  O
  H5       1.0000 0.60261  0.96211  0.55500  Biso   1.000  H
  H6       1.0000 0.59692  0.95610  0.63733  Biso   1.000  H
  C9       1.0000 0.63520  0.77576  0.60075  Biso   1.000  C
  C10      1.0000 0.47721  0.62794  0.34676  Biso   1.000  C
  H7       1.0000 0.50051  0.64407  0.43811  Biso   1.000  H
  N4       1.0000 0.66981  0.87844  0.62291  Biso   1.000  N
  H8       1.0000 0.63351  0.68509  0.63500  Biso   1.000  H
  H9       1.0000 0.64201  0.71198  0.56301  Biso   1.000  H
  C11      1.0000 0.46135  0.79952  0.32688  Biso   1.000  C
  H10      1.0000 0.50282  0.61106  0.32688  Biso   1.000  H
  H11      1.0000 0.46252  0.53402  0.32900  Biso   1.000  H
  C12      1.0000 0.68433  0.99400  0.56550  Biso   1.000  C
  H12      1.0000 0.66032  0.94610  0.65801  Biso   1.000  H
  C13      1.0000 0.70202  0.77001  0.65260  Biso   1.000  C
  N5       1.0000 0.47434  0.84755  0.25659  Biso   1.000  N
  H13      1.0000 0.46941  0.88507  0.35700  Biso   1.000  H
  H14      1.0000 0.43319  0.79802  0.32492  Biso   1.000  H
  H15      1.0000 0.70781  0.93709  0.53841  Biso   1.000  H
  C14      1.0000 0.69983  0.15758  0.59561  Biso   1.000  C
  H16      1.0000 0.66432  0.00500  0.53703  Biso   1.000  H
  H17      1.0000 0.72331  0.83704  0.66400  Biso   1.000  H
  H18      1.0000 0.69171  0.71998  0.69400  Biso   1.000  H
  C15      1.0000 0.71555  0.62681  0.60468  Biso   1.000  C
  C16      1.0000 0.45612  0.80515  0.19679  Biso   1.000  C
  H19      1.0000 0.49812  0.88607  0.25139  Biso   1.000  H
  N6       1.0000 0.72702  0.22961  0.54546  Biso   1.000  N
  H20      1.0000 0.71131  0.14607  0.63102  Biso   1.000  H
  H21      1.0000 0.67740  0.24412  0.60303  Biso   1.000  H
  H22      1.0000 0.72962  0.55403  0.63500  Biso   1.000  H
  H23      1.0000 0.69402  0.55803  0.58548  Biso   1.000  H
  N7       1.0000 0.74160  0.67859  0.54763  Biso   1.000  N
  O3       1.0000 0.42472  0.73112  0.19355  Biso   1.000  O
  C17      1.0000 0.47788  0.85530  0.13047  Biso   1.000  C
  C18      1.0000 0.76502  0.19272  0.54848  Biso   1.000  C
  H24      1.0000 0.71850  0.28902  0.50803  Biso   1.000  H
  C19      1.0000 0.77985  0.69622  0.55749  Biso   1.000  C
  H25      1.0000 0.73430  0.69697  0.50702  Biso   1.000  H
  N8       1.0000 0.51067  0.94647  0.13911  Biso   1.000  N
  C20      1.0000 0.46398  0.80578  0.06484  Biso   1.000  C
  C21      1.0000 0.78973  0.26438  0.48964  Biso   1.000  C
  O4       1.0000 0.78003  0.10705  0.59566  Biso   1.000  O
  C22      1.0000 0.80199  0.76388  0.49441  Biso   1.000  C
  O5       1.0000 0.79673  0.66408  0.61358  Biso   1.000  O
  C23      1.0000 0.53042  0.99087  0.08127  Biso   1.000  C
  C24      1.0000 0.48486  0.85355  0.00477  Biso   1.000  C
  H26      1.0000 0.44099  0.74700  0.06102  Biso   1.000  H
  N9       1.0000 0.77042  0.32854  0.43387  Biso   1.000  N
  C25      1.0000 0.83020  0.25913  0.49340  Biso   1.000  C
  N10      1.0000 0.78021  0.81441  0.43943  Biso   1.000  N
  C26      1.0000 0.84221  0.77389  0.49563  Biso   1.000  C
  C27      1.0000 0.51865  0.94760  0.01325  Biso   1.000  C
  C28      1.0000 0.56736  0.09305  0.09150  Biso   1.000  C
  H27      1.0000 0.47560  0.82904  0.95902  Biso   1.000  H
  C29      1.0000 0.79159  0.38994  0.38059  Biso   1.000  C
  C30      1.0000 0.85170  0.32766  0.43890  Biso   1.000  C
  H28      1.0000 0.84221  0.21911  0.52903  Biso   1.000  H
  C31      1.0000 0.79878  0.88169  0.38419  Biso   1.000  C
  C32      1.0000 0.86116  0.84042  0.43699  Biso   1.000  C
  H29      1.0000 0.85590  0.73799  0.53798  Biso   1.000  H
  H30      1.0000 0.53141  0.97899  0.98600  Biso   1.000  H
  O6       1.0000 0.58772  0.13144  0.04124  Biso   1.000  O
  N11      1.0000 0.57492  0.13457  0.15894  Biso   1.000  N
  C33      1.0000 0.76896  0.44885  0.31697  Biso   1.000  C
  C34      1.0000 0.83245  0.39370  0.38080  Biso   1.000  C
  H31      1.0000 0.87661  0.32904  0.44659  Biso   1.000  H
  C35      1.0000 0.77340  0.94860  0.32476  Biso   1.000  C
  C36      1.0000 0.83920  0.89570  0.38080  Biso   1.000  C
  H32      1.0000 0.88940  0.84805  0.43402  Biso   1.000  H
  C37      1.0000 0.60810  0.23562  0.17972  Biso   1.000  C
  H33      1.0000 0.55930  0.10205  0.19000  Biso   1.000  H
  N12      1.0000 0.73038  0.45610  0.32641  Biso   1.000  N
  O7       1.0000 0.78540  0.48499  0.26168  Biso   1.000  O
  H34      1.0000 0.84711  0.44010  0.34602  Biso   1.000  H
  N13      1.0000 0.73692  0.89157  0.32296  Biso   1.000  N
  O8       1.0000 0.78634  0.05015  0.28182  Biso   1.000  O
  H35      1.0000 0.85152  0.94410  0.34602  Biso   1.000  H
  C38      1.0000 0.63955  0.12594  0.21338  Biso   1.000  C
  H36      1.0000 0.61751  0.29102  0.13858  Biso   1.000  H
  H37      1.0000 0.59870  0.31503  0.21799  Biso   1.000  H
  C39      1.0000 0.70343  0.49512  0.26989  Biso   1.000  C
  H38      1.0000 0.72220  0.42809  0.36500  Biso   1.000  H
  C40      1.0000 0.70845  0.96198  0.27355  Biso   1.000  C
  H39      1.0000 0.72991  0.84205  0.35408  Biso   1.000  H
  N14      1.0000 0.66601  0.22224  0.26215  Biso   1.000  N
  H40      1.0000 0.62530  0.04302  0.24302  Biso   1.000  H
  H41      1.0000 0.65381  0.07804  0.18009  Biso   1.000  H
  C41      1.0000 0.69180  0.34592  0.22404  Biso   1.000  C
  H42      1.0000 0.68021  0.54402  0.28680  Biso   1.000  H
  H43      1.0000 0.71280  0.57804  0.24201  Biso   1.000  H
  C42      1.0000 0.68818  0.10680  0.31077  Biso   1.000  C
  H44      1.0000 0.72241  1.00000  0.23501  Biso   1.000  H
  H45      1.0000 0.68950  0.87806  0.26300  Biso   1.000  H
  H46      1.0000 0.64940  0.27001  0.28898  Biso   1.000  H
  H47      1.0000 0.71400  0.28402  0.20500  Biso   1.000  H
  H48      1.0000 0.67670  0.38407  0.18841  Biso   1.000  H
  H49      1.0000 0.70941  0.17109  0.33828  Biso   1.000  H
  H50      1.0000 0.66891  0.06503  0.34899  Biso   1.000  H
  C43      1.0000 0.52212  0.14482  0.63044  Biso   1.000  C
  N15      1.0000 0.48935  0.05365  0.63908  Biso   1.000  N
  C44      1.0000 0.53605  0.19422  0.56486  Biso   1.000  C
  C45      1.0000 0.54391  0.19485  0.69681  Biso   1.000  C
  C46      1.0000 0.46958  0.00925  0.58130  Biso   1.000  C
  C47      1.0000 0.51514  0.14645  0.50474  Biso   1.000  C
  H51      1.0000 0.55901  0.25300  0.56099  Biso   1.000  H
  O9       1.0000 0.57530  0.26888  0.69353  Biso   1.000  O
  N16      1.0000 0.52569  0.15245  0.75661  Biso   1.000  N
  C48      1.0000 0.48135  0.05253  0.51328  Biso   1.000  C
  C49      1.0000 0.43267  0.90695  0.59153  Biso   1.000  C
  H52      1.0000 0.52440  0.17096  0.45899  Biso   1.000  H
  H53      1.0000 0.50191  0.11406  0.75142  Biso   1.000  H
  C50      1.0000 0.53868  0.20048  0.82686  Biso   1.000  C
  H54      1.0000 0.46862  0.02101  0.48603  Biso   1.000  H
  O10      1.0000 0.41228  0.86856  0.54127  Biso   1.000  O
  N17      1.0000 0.42508  0.86543  0.65891  Biso   1.000  N
  H55      1.0000 0.53059  0.11506  0.85702  Biso   1.000  H
  H56      1.0000 0.56681  0.20198  0.82490  Biso   1.000  H
  C51      1.0000 0.52279  0.37206  0.84674  Biso   1.000  C
  C52      1.0000 0.39190  0.76438  0.67974  Biso   1.000  C
  H57      1.0000 0.44070  0.89795  0.69003  Biso   1.000  H
  H58      1.0000 0.49721  0.38907  0.82691  Biso   1.000  H
  H59      1.0000 0.53751  0.46598  0.82903  Biso   1.000  H
  N18      1.0000 0.51891  0.39082  0.92271  Biso   1.000  N
  C53      1.0000 0.36045  0.87406  0.71341  Biso   1.000  C
  H60      1.0000 0.38249  0.70898  0.63860  Biso   1.000  H
  H61      1.0000 0.40130  0.68497  0.71802  Biso   1.000  H
  H62      1.0000 0.49952  0.35605  0.93813  Biso   1.000  H
  C54      1.0000 0.54154  0.48824  0.96326  Biso   1.000  C
  N19      1.0000 0.33401  0.77776  0.76218  Biso   1.000  N
  H63      1.0000 0.37470  0.95698  0.74299  Biso   1.000  H
  H64      1.0000 0.34619  0.92196  0.68011  Biso   1.000  H
  O11      1.0000 0.56818  0.57679  0.94115  Biso   1.000  O
  C55      1.0000 0.53126  0.48124  0.04071  Biso   1.000  C
  H65      1.0000 0.35060  0.72999  0.78900  Biso   1.000  H
  C56      1.0000 0.30823  0.65408  0.72406  Biso   1.000  C
  C57      1.0000 0.31185  0.89332  0.81079  Biso   1.000  C
  N20      1.0000 0.49966  0.39082  0.05757  Biso   1.000  N
  C58      1.0000 0.55372  0.56566  0.09028  Biso   1.000  C
  H66      1.0000 0.28600  0.71598  0.70503  Biso   1.000  H
  H67      1.0000 0.32330  0.61593  0.68838  Biso   1.000  H
  C59      1.0000 0.29657  0.50488  0.76987  Biso   1.000  C
  C60      1.0000 0.29155  0.03814  0.77358  Biso   1.000  C
  H68      1.0000 0.29062  0.82904  0.83831  Biso   1.000  H
  H69      1.0000 0.33109  0.93497  0.84902  Biso   1.000  H
  C61      1.0000 0.48965  0.38157  0.12591  Biso   1.000  C
  H70      1.0000 0.57641  0.62006  0.08122  Biso   1.000  H
  C62      1.0000 0.54289  0.55453  0.16122  Biso   1.000  C
  H71      1.0000 0.31979  0.45598  0.78683  Biso   1.000  H
  H72      1.0000 0.28720  0.42196  0.74198  Biso   1.000  H
  N21      1.0000 0.26965  0.54402  0.82643  Biso   1.000  N
  N22      1.0000 0.26311  0.10855  0.82299  Biso   1.000  N
  H73      1.0000 0.27759  0.00000  0.73498  Biso   1.000  H
  H74      1.0000 0.31050  0.12206  0.76303  Biso   1.000  H
  C63      1.0000 0.51047  0.46011  0.17924  Biso   1.000  C
  C64      1.0000 0.45410  0.27839  0.14277  Biso   1.000  C
  H75      1.0000 0.55670  0.62206  0.20103  Biso   1.000  H
  H76      1.0000 0.27780  0.57204  0.86503  Biso   1.000  H
  C65      1.0000 0.23104  0.55115  0.81700  Biso   1.000  C
  C66      1.0000 0.22663  0.05140  0.82479  Biso   1.000  C
  H77      1.0000 0.27011  0.15795  0.85411  Biso   1.000  H
  H78      1.0000 0.50480  0.44197  0.23300  Biso   1.000  H
  O12      1.0000 0.44362  0.25275  0.20410  Biso   1.000  O
  N23      1.0000 0.43538  0.21736  0.08615  Biso   1.000  N
  O13      1.0000 0.21463  0.51513  0.76165  Biso   1.000  O
  C67      1.0000 0.20843  0.61006  0.88061  Biso   1.000  C
  C68      1.0000 0.20122  0.11831  0.88416  Biso   1.000  C
  O14      1.0000 0.21366  0.94985  0.78180  Biso   1.000  O
  H79      1.0000 0.44222  0.25000  0.04501  Biso   1.000  H
  C69      1.0000 0.40084  0.11443  0.09426  Biso   1.000  C
  N24      1.0000 0.22958  0.67146  0.93384  Biso   1.000  N
  C70      1.0000 0.16755  0.60643  0.88082  Biso   1.000  C
  N25      1.0000 0.21982  0.18559  0.93941  Biso   1.000  N
  C71      1.0000 0.16080  0.10443  0.88077  Biso   1.000  C
  H80      1.0000 0.39742  0.03802  0.05503  Biso   1.000  H
  H81      1.0000 0.40311  0.04402  0.13731  Biso   1.000  H
  C72      1.0000 0.36483  0.22436  0.10078  Biso   1.000  C
  C73      1.0000 0.21027  0.73574  0.98961  Biso   1.000  C
  H82      1.0000 0.15292  0.56003  0.84599  Biso   1.000  H
  C74      1.0000 0.14830  0.67234  0.93893  Biso   1.000  C
  C75      1.0000 0.19804  0.23624  0.99443  Biso   1.000  C
  C76      1.0000 0.13884  0.15958  0.93702  Biso   1.000  C
  H83      1.0000 0.14851  0.05603  0.84599  Biso   1.000  H
  N26      1.0000 0.33022  0.12156  0.12289  Biso   1.000  N
  H84      1.0000 0.36649  0.31503  0.13503  Biso   1.000  H
  H85      1.0000 0.35799  0.28802  0.06303  Biso   1.000  H
  C77      1.0000 0.16983  0.74087  0.99337  Biso   1.000  C
  C78      1.0000 0.23498  0.80728  0.04851  Biso   1.000  C
  H86      1.0000 0.12339  0.67096  0.94662  Biso   1.000  H
  C79      1.0000 0.15779  0.22611  0.99565  Biso   1.000  C
  C80      1.0000 0.22015  0.30378  0.05752  Biso   1.000  C
  H87      1.0000 0.11060  0.15195  0.93400  Biso   1.000  H
  C81      1.0000 0.31567  0.00600  0.06553  Biso   1.000  C
  C82      1.0000 0.29798  0.22999  0.15257  Biso   1.000  C
  H88      1.0000 0.33971  0.05403  0.15803  Biso   1.000  H
  H89      1.0000 0.15779  0.78102  0.02900  Biso   1.000  H
  O15      1.0000 0.21997  0.89295  0.09569  Biso   1.000  O
  N27      1.0000 0.27298  0.77039  0.04543  Biso   1.000  N
  H90      1.0000 0.14410  0.26201  0.03801  Biso   1.000  H
  O16      1.0000 0.20327  0.33604  0.11361  Biso   1.000  O
  N28      1.0000 0.25840  0.32154  0.04766  Biso   1.000  N
  C83      1.0000 0.30020  0.84255  0.09564  Biso   1.000  C
  H91      1.0000 0.33571  0.99500  0.03700  Biso   1.000  H
  H92      1.0000 0.29219  0.06303  0.03844  Biso   1.000  H
  C84      1.0000 0.28445  0.37319  0.10470  Biso   1.000  C
  H93      1.0000 0.27672  0.16296  0.16402  Biso   1.000  H
  H94      1.0000 0.30831  0.28002  0.19403  Biso   1.000  H
  H95      1.0000 0.28150  0.71098  0.00801  Biso   1.000  H
  H96      1.0000 0.26570  0.30303  0.00700  Biso   1.000  H
  H97      1.0000 0.28869  0.85405  0.13100  Biso   1.000  H
  H98      1.0000 0.32260  0.75600  0.10301  Biso   1.000  H
  H99      1.0000 0.27041  0.44597  0.13503  Biso   1.000  H
  H100     1.0000 0.30601  0.44197  0.08551  Biso   1.000  H
  C85      1.0000 0.34222  0.22611  0.49563  Biso   1.000  C
  C86      1.0000 0.30198  0.23624  0.49441  Biso   1.000  C
  C87      1.0000 0.36118  0.15958  0.43699  Biso   1.000  C
  H101     1.0000 0.35592  0.26201  0.53798  Biso   1.000  H
  N29      1.0000 0.28019  0.18559  0.43943  Biso   1.000  N
  C88      1.0000 0.27987  0.30378  0.55749  Biso   1.000  C
  C89      1.0000 0.33918  0.10443  0.38080  Biso   1.000  C
  H102     1.0000 0.38942  0.15195  0.43402  Biso   1.000  H
  C90      1.0000 0.29879  0.11831  0.38419  Biso   1.000  C
  O17      1.0000 0.29675  0.33604  0.61358  Biso   1.000  O
  N30      1.0000 0.24158  0.32154  0.54763  Biso   1.000  N
  H103     1.0000 0.35151  0.05603  0.34602  Biso   1.000  H
  C91      1.0000 0.27339  0.05140  0.32476  Biso   1.000  C
  C92      1.0000 0.21553  0.37319  0.60468  Biso   1.000  C
  H104     1.0000 0.23431  0.30303  0.50702  Biso   1.000  H
  N31      1.0000 0.23691  0.10855  0.32296  Biso   1.000  N
  O18      1.0000 0.28632  0.94985  0.28182  Biso   1.000  O
  C93      1.0000 0.20204  0.22999  0.65260  Biso   1.000  C
  H105     1.0000 0.22961  0.44597  0.63500  Biso   1.000  H
  H106     1.0000 0.19401  0.44197  0.58548  Biso   1.000  H
  H107     1.0000 0.22990  0.15795  0.35408  Biso   1.000  H
  C94      1.0000 0.20843  0.03814  0.27355  Biso   1.000  C
  N32      1.0000 0.16980  0.12156  0.62291  Biso   1.000  N
  H108     1.0000 0.22330  0.16296  0.66400  Biso   1.000  H
  H109     1.0000 0.19170  0.28002  0.69400  Biso   1.000  H
  H110     1.0000 0.22239  0.00000  0.23501  Biso   1.000  H
  H111     1.0000 0.18951  0.12206  0.26300  Biso   1.000  H
  C95      1.0000 0.18817  0.89332  0.31077  Biso   1.000  C
  C96      1.0000 0.18431  0.00600  0.56550  Biso   1.000  C
  H112     1.0000 0.16030  0.05403  0.65801  Biso   1.000  H
  C97      1.0000 0.13519  0.22436  0.60075  Biso   1.000  C
  N33      1.0000 0.16600  0.77776  0.26215  Biso   1.000  N
  H113     1.0000 0.20940  0.82904  0.33828  Biso   1.000  H
  H114     1.0000 0.16889  0.93497  0.34899  Biso   1.000  H
  H115     1.0000 0.20779  0.06303  0.53841  Biso   1.000  H
  C98      1.0000 0.19982  0.84255  0.59561  Biso   1.000  C
  H116     1.0000 0.16431  0.99500  0.53703  Biso   1.000  H
  C99      1.0000 0.09918  0.11443  0.59423  Biso   1.000  C
  H117     1.0000 0.13349  0.31503  0.63500  Biso   1.000  H
  H118     1.0000 0.14199  0.28802  0.56301  Biso   1.000  H
  H119     1.0000 0.14941  0.72999  0.28898  Biso   1.000  H
  C100     1.0000 0.19179  0.65408  0.22404  Biso   1.000  C
  C101     1.0000 0.13954  0.87406  0.21338  Biso   1.000  C
  N34      1.0000 0.22701  0.77039  0.54546  Biso   1.000  N
  H120     1.0000 0.21130  0.85405  0.63102  Biso   1.000  H
  H121     1.0000 0.17739  0.75600  0.60303  Biso   1.000  H
  N35      1.0000 0.06460  0.21736  0.58612  Biso   1.000  N
  H122     1.0000 0.10260  0.03802  0.55500  Biso   1.000  H
  H123     1.0000 0.09690  0.04402  0.63733  Biso   1.000  H
  H124     1.0000 0.21401  0.71598  0.20500  Biso   1.000  H
  H125     1.0000 0.17669  0.61593  0.18841  Biso   1.000  H
  C102     1.0000 0.20341  0.50488  0.26989  Biso   1.000  C
  H126     1.0000 0.12529  0.95698  0.24302  Biso   1.000  H
  H127     1.0000 0.15379  0.92196  0.18009  Biso   1.000  H
  C103     1.0000 0.10809  0.76438  0.17972  Biso   1.000  C
  C104     1.0000 0.26500  0.80728  0.54848  Biso   1.000  C
  H128     1.0000 0.21851  0.71098  0.50803  Biso   1.000  H
  C105     1.0000 0.04591  0.27839  0.64274  Biso   1.000  C
  H129     1.0000 0.05780  0.25000  0.54498  Biso   1.000  H
  H130     1.0000 0.18019  0.45598  0.28680  Biso   1.000  H
  H131     1.0000 0.21282  0.42196  0.24201  Biso   1.000  H
  N36      1.0000 0.23037  0.54402  0.32641  Biso   1.000  N
  H132     1.0000 0.11749  0.70898  0.13858  Biso   1.000  H
  H133     1.0000 0.09871  0.68497  0.21799  Biso   1.000  H
  N37      1.0000 0.07491  0.86543  0.15894  Biso   1.000  N
  C106     1.0000 0.28974  0.73574  0.48964  Biso   1.000  C
  O19      1.0000 0.28002  0.89295  0.59566  Biso   1.000  O
  O20      1.0000 0.05639  0.25275  0.70408  Biso   1.000  O
  C107     1.0000 0.01037  0.38157  0.62588  Biso   1.000  C
  H134     1.0000 0.22219  0.57204  0.36500  Biso   1.000  H
  C108     1.0000 0.26898  0.55115  0.31697  Biso   1.000  C
  H135     1.0000 0.05931  0.89795  0.19000  Biso   1.000  H
  C109     1.0000 0.06735  0.90695  0.09150  Biso   1.000  C
  N38      1.0000 0.27044  0.67146  0.43387  Biso   1.000  N
  C110     1.0000 0.33019  0.74087  0.49340  Biso   1.000  C
  N39      1.0000 0.00032  0.39082  0.55760  Biso   1.000  N
  C111     1.0000 0.98952  0.46011  0.67921  Biso   1.000  C
  O21      1.0000 0.28539  0.51513  0.26168  Biso   1.000  O
  C112     1.0000 0.29158  0.61006  0.38059  Biso   1.000  C
  C113     1.0000 0.03040  0.00925  0.08127  Biso   1.000  C
  O22      1.0000 0.08773  0.86856  0.04124  Biso   1.000  O
  C114     1.0000 0.35171  0.67234  0.43890  Biso   1.000  C
  H136     1.0000 0.34219  0.78102  0.52903  Biso   1.000  H
  C115     1.0000 0.96875  0.48124  0.54074  Biso   1.000  C
  C116     1.0000 0.95713  0.55453  0.66119  Biso   1.000  C
  H137     1.0000 0.99521  0.44197  0.73302  Biso   1.000  H
  C117     1.0000 0.33244  0.60643  0.38080  Biso   1.000  C
  N40      1.0000 0.01066  0.05365  0.13911  Biso   1.000  N
  C118     1.0000 0.01863  0.05253  0.01325  Biso   1.000  C
  H138     1.0000 0.37660  0.67096  0.44659  Biso   1.000  H
  C119     1.0000 0.95847  0.48824  0.46329  Biso   1.000  C
  C120     1.0000 0.94626  0.56566  0.59026  Biso   1.000  C
  H139     1.0000 0.94331  0.62206  0.70100  Biso   1.000  H
  H140     1.0000 0.34710  0.56003  0.34602  Biso   1.000  H
  C121     1.0000 0.97786  0.14482  0.13047  Biso   1.000  C
  C122     1.0000 0.98487  0.14645  0.00477  Biso   1.000  C
  H141     1.0000 0.03140  0.02101  0.98600  Biso   1.000  H
  N41      1.0000 0.98110  0.39082  0.42273  Biso   1.000  N
  O23      1.0000 0.93184  0.57679  0.44113  Biso   1.000  O
  H142     1.0000 0.92360  0.62006  0.58119  Biso   1.000  H
  C123     1.0000 0.96396  0.19422  0.06484  Biso   1.000  C
  C124     1.0000 0.95611  0.19485  0.19679  Biso   1.000  C
  H143     1.0000 0.97561  0.17096  0.95902  Biso   1.000  H
  C125     1.0000 0.97722  0.37206  0.34676  Biso   1.000  C
  H144     1.0000 0.00050  0.35605  0.43811  Biso   1.000  H
  H145     1.0000 0.94101  0.25300  0.06102  Biso   1.000  H
  O24      1.0000 0.92471  0.26888  0.19355  Biso   1.000  O
  N42      1.0000 0.97433  0.15245  0.25659  Biso   1.000  N
  C126     1.0000 0.96133  0.20048  0.32688  Biso   1.000  C
  H146     1.0000 0.00280  0.38907  0.32688  Biso   1.000  H
  H147     1.0000 0.96250  0.46598  0.32900  Biso   1.000  H
  H148     1.0000 0.99810  0.11406  0.25139  Biso   1.000  H
  H149     1.0000 0.96939  0.11506  0.35700  Biso   1.000  H
  H150     1.0000 0.93321  0.20198  0.32492  Biso   1.000  H
  C127     1.0000 0.66082  0.89570  0.88077  Biso   1.000  C
  C128     1.0000 0.63885  0.84042  0.93702  Biso   1.000  C
  H151     1.0000 0.64852  0.94410  0.84599  Biso   1.000  H
  C129     1.0000 0.70124  0.88169  0.88416  Biso   1.000  C
  C130     1.0000 0.65781  0.77389  0.99565  Biso   1.000  C
  H152     1.0000 0.61061  0.84805  0.93400  Biso   1.000  H
  N43      1.0000 0.71981  0.81441  0.93941  Biso   1.000  N
  C131     1.0000 0.72661  0.94860  0.82479  Biso   1.000  C
  C132     1.0000 0.69805  0.76388  0.99443  Biso   1.000  C
  H153     1.0000 0.64411  0.73799  0.03801  Biso   1.000  H
  N44      1.0000 0.76309  0.89157  0.82299  Biso   1.000  N
  O25      1.0000 0.71368  0.05015  0.78180  Biso   1.000  O
  C133     1.0000 0.72016  0.69622  0.05752  Biso   1.000  C
  H154     1.0000 0.77010  0.84205  0.85411  Biso   1.000  H
  C134     1.0000 0.79157  0.96198  0.77358  Biso   1.000  C
  O26      1.0000 0.70328  0.66408  0.11361  Biso   1.000  O
  N45      1.0000 0.75842  0.67859  0.04766  Biso   1.000  N
  H155     1.0000 0.77761  1.00000  0.73498  Biso   1.000  H
  H156     1.0000 0.81052  0.87806  0.76303  Biso   1.000  H
  C135     1.0000 0.81186  0.10680  0.81079  Biso   1.000  C
  C136     1.0000 0.78447  0.62681  0.10470  Biso   1.000  C
  H157     1.0000 0.76572  0.69697  0.00700  Biso   1.000  H
  N46      1.0000 0.83400  0.22224  0.76218  Biso   1.000  N
  H158     1.0000 0.79060  0.17109  0.83831  Biso   1.000  H
  H159     1.0000 0.83111  0.06503  0.84902  Biso   1.000  H
  C137     1.0000 0.79799  0.77001  0.15257  Biso   1.000  C
  H160     1.0000 0.77042  0.55403  0.13503  Biso   1.000  H
  H161     1.0000 0.80602  0.55803  0.08551  Biso   1.000  H
  H162     1.0000 0.85062  0.27001  0.78900  Biso   1.000  H
  C138     1.0000 0.80821  0.34592  0.72406  Biso   1.000  C
  C139     1.0000 0.86046  0.12594  0.71341  Biso   1.000  C
  N47      1.0000 0.83020  0.87844  0.12289  Biso   1.000  N
  H163     1.0000 0.77670  0.83704  0.16402  Biso   1.000  H
  H164     1.0000 0.80830  0.71998  0.19403  Biso   1.000  H
  H165     1.0000 0.78602  0.28402  0.70503  Biso   1.000  H
  H166     1.0000 0.82331  0.38407  0.68838  Biso   1.000  H
  C140     1.0000 0.79659  0.49512  0.76987  Biso   1.000  C
  H167     1.0000 0.87471  0.04302  0.74299  Biso   1.000  H
  H168     1.0000 0.84621  0.07804  0.68011  Biso   1.000  H
  C141     1.0000 0.89191  0.23562  0.67974  Biso   1.000  C
  C142     1.0000 0.81569  0.99400  0.06553  Biso   1.000  C
  H169     1.0000 0.83972  0.94610  0.15803  Biso   1.000  H
  C143     1.0000 0.86481  0.77576  0.10078  Biso   1.000  C
  H170     1.0000 0.81981  0.54402  0.78683  Biso   1.000  H
  H171     1.0000 0.78721  0.57804  0.74198  Biso   1.000  H
  N48      1.0000 0.76966  0.45610  0.82643  Biso   1.000  N
  H172     1.0000 0.88251  0.29102  0.63860  Biso   1.000  H
  H173     1.0000 0.90132  0.31503  0.71802  Biso   1.000  H
  N49      1.0000 0.92509  0.13457  0.65891  Biso   1.000  N
  H174     1.0000 0.79221  0.93709  0.03844  Biso   1.000  H
  C144     1.0000 0.80018  0.15758  0.09564  Biso   1.000  C
  H175     1.0000 0.83572  0.00500  0.03700  Biso   1.000  H
  C145     1.0000 0.90085  0.88569  0.09426  Biso   1.000  C
  H176     1.0000 0.86651  0.68509  0.13503  Biso   1.000  H
  H177     1.0000 0.85801  0.71198  0.06303  Biso   1.000  H
  H178     1.0000 0.77781  0.42809  0.86503  Biso   1.000  H
  C146     1.0000 0.73105  0.44885  0.81700  Biso   1.000  C
  H179     1.0000 0.94071  0.10205  0.69003  Biso   1.000  H
  C147     1.0000 0.93268  0.09305  0.59153  Biso   1.000  C
  N50      1.0000 0.77299  0.22961  0.04543  Biso   1.000  N
  H180     1.0000 0.78870  0.14607  0.13100  Biso   1.000  H
  H181     1.0000 0.82261  0.24412  0.10301  Biso   1.000  H
  N51      1.0000 0.93540  0.78277  0.08615  Biso   1.000  N
  H182     1.0000 0.89740  0.96211  0.05503  Biso   1.000  H
  H183     1.0000 0.90310  0.95610  0.13731  Biso   1.000  H
  O27      1.0000 0.71464  0.48499  0.76165  Biso   1.000  O
  C148     1.0000 0.70842  0.38994  0.88061  Biso   1.000  C
  C149     1.0000 0.96960  0.99087  0.58130  Biso   1.000  C
  O28      1.0000 0.91230  0.13144  0.54127  Biso   1.000  O
  C150     1.0000 0.73500  0.19272  0.04851  Biso   1.000  C
  H184     1.0000 0.78152  0.28902  0.00801  Biso   1.000  H
  C151     1.0000 0.95409  0.72161  0.14277  Biso   1.000  C
  H185     1.0000 0.94220  0.75000  0.04501  Biso   1.000  H
  N52      1.0000 0.72959  0.32854  0.93384  Biso   1.000  N
  C152     1.0000 0.66756  0.39370  0.88082  Biso   1.000  C
  N53      1.0000 0.98934  0.94647  0.63908  Biso   1.000  N
  C153     1.0000 0.98137  0.94760  0.51328  Biso   1.000  C
  C154     1.0000 0.71029  0.26438  0.98961  Biso   1.000  C
  O29      1.0000 0.71998  0.10705  0.09569  Biso   1.000  O
  O30      1.0000 0.94363  0.74725  0.20410  Biso   1.000  O
  C155     1.0000 0.98963  0.61856  0.12591  Biso   1.000  C
  H186     1.0000 0.65290  0.44010  0.84599  Biso   1.000  H
  C156     1.0000 0.64832  0.32766  0.93893  Biso   1.000  C
  C157     1.0000 0.02214  0.85530  0.63044  Biso   1.000  C
  H187     1.0000 0.96860  0.97899  0.48603  Biso   1.000  H
  C158     1.0000 0.01516  0.85355  0.50474  Biso   1.000  C
  C159     1.0000 0.66981  0.25913  0.99337  Biso   1.000  C
  N54      1.0000 0.99968  0.60918  0.05757  Biso   1.000  N
  C160     1.0000 0.01048  0.53989  0.17924  Biso   1.000  C
  H188     1.0000 0.62340  0.32904  0.94662  Biso   1.000  H
  C161     1.0000 0.03604  0.80578  0.56486  Biso   1.000  C
  C162     1.0000 0.04389  0.80515  0.69681  Biso   1.000  C
  H189     1.0000 0.02442  0.82904  0.45899  Biso   1.000  H
  H190     1.0000 0.65781  0.21911  0.02900  Biso   1.000  H
  C163     1.0000 0.03125  0.51888  0.04071  Biso   1.000  C
  C164     1.0000 0.04287  0.44547  0.16122  Biso   1.000  C
  H191     1.0000 0.00482  0.55803  0.23300  Biso   1.000  H
  H192     1.0000 0.05902  0.74700  0.56099  Biso   1.000  H
  O31      1.0000 0.07529  0.73112  0.69353  Biso   1.000  O
  N55      1.0000 0.02567  0.84755  0.75661  Biso   1.000  N
  C165     1.0000 0.04156  0.51188  0.96326  Biso   1.000  C
  C166     1.0000 0.05374  0.43447  0.09028  Biso   1.000  C
  H193     1.0000 0.05672  0.37806  0.20103  Biso   1.000  H
  H194     1.0000 0.00190  0.88607  0.75142  Biso   1.000  H
  C167     1.0000 0.03870  0.79952  0.82686  Biso   1.000  C
  O32      1.0000 0.06816  0.42321  0.94115  Biso   1.000  O
  N56      1.0000 0.01890  0.60918  0.92271  Biso   1.000  N
  H195     1.0000 0.07640  0.38007  0.08122  Biso   1.000  H
  H196     1.0000 0.03061  0.88507  0.85702  Biso   1.000  H
  H197     1.0000 0.06682  0.79802  0.82490  Biso   1.000  H
  C168     1.0000 0.02281  0.62794  0.84674  Biso   1.000  C
  H198     1.0000 0.99950  0.64407  0.93813  Biso   1.000  H
  H199     1.0000 0.99723  0.61106  0.82691  Biso   1.000  H
  H200     1.0000 0.03750  0.53402  0.82903  Biso   1.000  H
  Ne1      1.0000 0.14497  0.06269  0.39763  Biso   1.000  Ne
  He1      1.0000 0.08983  0.21085  0.37402  Biso   1.000  He
  He2      1.0000 0.06588  0.01657  0.38660  Biso   1.000  He
  Ar1      1.0000 0.13012  0.12629  0.42458  Biso   1.000  Ar
  Ne2      1.0000 0.64498  0.93735  0.39763  Biso   1.000  Ne
  He3      1.0000 0.58570  0.81171  0.37490  Biso   1.000  He
  He4      1.0000 0.56624  0.97871  0.38646  Biso   1.000  He
  Ar2      1.0000 0.63013  0.87377  0.42458  Biso   1.000  Ar
  Ne3      1.0000 0.35503  0.06269  0.89763  Biso   1.000  Ne
  He5      1.0000 0.40328  0.24820  0.87259  Biso   1.000  He
  He6      1.0000 0.43535  0.99913  0.88711  Biso   1.000  He
  Ar3      1.0000 0.36989  0.12630  0.92460  Biso   1.000  Ar
  Ne4      1.0000 0.85504  0.93735  0.89763  Biso   1.000  Ne
  He7      1.0000 0.89899  0.72702  0.87184  Biso   1.000  He
  He8      1.0000 0.93495  0.99454  0.88692  Biso   1.000  He
  Ar4      1.0000 0.86988  0.87379  0.92458  Biso   1.000  Ar
