data_image0
_cell_length_a       6.921
_cell_length_b       33.914
_cell_length_c       43.889
_cell_angle_alpha    90
_cell_angle_beta     90
_cell_angle_gamma    90

_symmetry_space_group_name_H-M    "P 1"
_symmetry_int_tables_number       1

loop_
  _symmetry_equiv_pos_as_xyz
  'x, y, z'

loop_
  _atom_site_label
  _atom_site_occupancy
  _atom_site_fract_x
  _atom_site_fract_y
  _atom_site_fract_z
  _atom_site_thermal_displace_type
  _atom_site_B_iso_or_equiv
  _atom_site_type_symbol
  C1       1.0000 0.65901  0.53591  0.53849  Biso   1.000  C
  C2       1.0000 0.64600  0.51371  0.56499  Biso   1.000  C
  C3       1.0000 0.64398  0.57590  0.53890  Biso   1.000  C
  H1       1.0000 0.67982  0.52279  0.51961  Biso   1.000  H
  C4       1.0000 0.70698  0.47060  0.56520  Biso   1.000  C
  C5       1.0000 0.59601  0.53120  0.59240  Biso   1.000  C
  C6       1.0000 0.60598  0.59450  0.56540  Biso   1.000  C
  H2       1.0000 0.65930  0.59061  0.52070  Biso   1.000  H
  O1       1.0000 0.75567  0.45471  0.54180  Biso   1.000  O
  N1       1.0000 0.70091  0.45250  0.59300  Biso   1.000  N
  C7       1.0000 0.56899  0.51000  0.61979  Biso   1.000  C
  C8       1.0000 0.57795  0.57310  0.59361  Biso   1.000  C
  C9       1.0000 0.60699  0.63909  0.56780  Biso   1.000  C
  C10      1.0000 0.61696  0.46639  0.61940  Biso   1.000  C
  C11      1.0000 0.83095  0.41641  0.59680  Biso   1.000  C
  C12      1.0000 0.52001  0.52851  0.64531  Biso   1.000  C
  C13      1.0000 0.53403  0.59229  0.62070  Biso   1.000  C
  O2       1.0000 0.62997  0.65920  0.54490  Biso   1.000  O
  N2       1.0000 0.58893  0.65640  0.59630  Biso   1.000  N
  O3       1.0000 0.58171  0.44651  0.64139  Biso   1.000  O
  H3       1.0000 0.83861  0.41060  0.61911  Biso   1.000  H
  C14      1.0000 0.77099  0.37899  0.58110  Biso   1.000  C
  C15      1.0000 0.03598  0.42711  0.58600  Biso   1.000  C
  H4       1.0000 0.49473  0.51339  0.66310  Biso   1.000  H
  C16      1.0000 0.50397  0.56971  0.64670  Biso   1.000  C
  C17      1.0000 0.52998  0.63590  0.62200  Biso   1.000  C
  C18      1.0000 0.65901  0.69841  0.59869  Biso   1.000  C
  H5       1.0000 0.63430  0.37309  0.58600  Biso   1.000  H
  H6       1.0000 0.78269  0.38229  0.55880  Biso   1.000  H
  C19      1.0000 0.89597  0.34549  0.59131  Biso   1.000  C
  N3       1.0000 0.09392  0.46801  0.59541  Biso   1.000  N
  C20      1.0000 0.17396  0.39500  0.59739  Biso   1.000  C
  H7       1.0000 0.03641  0.42620  0.56319  Biso   1.000  H
  H8       1.0000 0.47233  0.58221  0.66550  Biso   1.000  H
  O4       1.0000 0.49097  0.65330  0.64581  Biso   1.000  O
  H9       1.0000 0.71651  0.70581  0.57860  Biso   1.000  H
  C21      1.0000 0.49198  0.72870  0.60601  Biso   1.000  C
  C22      1.0000 0.81390  0.70231  0.62259  Biso   1.000  C
  H10      1.0000 0.85797  0.32090  0.58069  Biso   1.000  H
  H11      1.0000 0.88181  0.34130  0.61350  Biso   1.000  H
  C23      1.0000 0.11097  0.35620  0.58340  Biso   1.000  C
  C24      1.0000 0.07600  0.47939  0.62560  Biso   1.000  C
  C25      1.0000 0.14796  0.49171  0.57110  Biso   1.000  C
  H12      1.0000 0.30834  0.40119  0.59140  Biso   1.000  H
  H13      1.0000 0.16862  0.39329  0.62000  Biso   1.000  H
  H14      1.0000 0.38838  0.72660  0.59049  Biso   1.000  H
  H15      1.0000 0.43520  0.72301  0.62619  Biso   1.000  H
  C26      1.0000 0.57694  0.77039  0.60571  Biso   1.000  C
  N4       1.0000 0.95593  0.66781  0.62041  Biso   1.000  N
  C27      1.0000 0.90796  0.74329  0.62050  Biso   1.000  C
  H16      1.0000 0.74888  0.70051  0.64289  Biso   1.000  H
  H17      1.0000 0.19708  0.33499  0.59090  Biso   1.000  H
  H18      1.0000 0.12570  0.35779  0.56101  Biso   1.000  H
  O5       1.0000 0.04797  0.45559  0.64570  Biso   1.000  O
  C28      1.0000 0.07600  0.52380  0.63159  Biso   1.000  C
  O6       1.0000 0.19867  0.48051  0.54599  Biso   1.000  O
  C29      1.0000 0.13293  0.53591  0.57691  Biso   1.000  C
  H19      1.0000 0.61769  0.77720  0.58470  Biso   1.000  H
  H20      1.0000 0.47652  0.78950  0.61209  Biso   1.000  H
  C30      1.0000 0.74801  0.77310  0.62690  Biso   1.000  C
  C31      1.0000 0.97096  0.64610  0.64599  Biso   1.000  C
  C32      1.0000 0.03092  0.65949  0.59181  Biso   1.000  C
  H21      1.0000 0.96243  0.74760  0.59999  Biso   1.000  H
  H22      1.0000 0.01243  0.74580  0.63569  Biso   1.000  H
  C33      1.0000 0.03193  0.53621  0.66010  Biso   1.000  C
  C34      1.0000 0.09999  0.54830  0.60689  Biso   1.000  C
  C35      1.0000 0.15590  0.56340  0.55390  Biso   1.000  C
  H23      1.0000 0.70192  0.76930  0.64809  Biso   1.000  H
  H24      1.0000 0.80292  0.79999  0.62551  Biso   1.000  H
  C36      1.0000 0.03092  0.60311  0.64160  Biso   1.000  C
  O7       1.0000 0.93426  0.65760  0.67190  Biso   1.000  O
  C37      1.0000 0.08900  0.61691  0.58709  Biso   1.000  C
  O8       1.0000 0.03800  0.68279  0.57190  Biso   1.000  O
  C38      1.0000 0.01488  0.57749  0.66500  Biso   1.000  C
  H25      1.0000 0.01416  0.51799  0.67621  Biso   1.000  H
  C39      1.0000 0.06993  0.59041  0.61170  Biso   1.000  C
  H26      1.0000 0.19029  0.55420  0.53421  Biso   1.000  H
  C40      1.0000 0.13192  0.60311  0.55820  Biso   1.000  C
  H27      1.0000 0.99090  0.58710  0.68500  Biso   1.000  H
  H28      1.0000 0.14521  0.62089  0.54159  Biso   1.000  H
  C41      1.0000 0.32192  0.27879  0.53540  Biso   1.000  C
  C42      1.0000 0.15402  0.25019  0.54330  Biso   1.000  C
  C43      1.0000 0.47695  0.27431  0.55629  Biso   1.000  C
  H29      1.0000 0.36873  0.27331  0.51450  Biso   1.000  H
  H30      1.0000 0.27467  0.30630  0.53601  Biso   1.000  H
  C44      1.0000 0.23291  0.20879  0.54200  Biso   1.000  C
  H31      1.0000 0.10360  0.25600  0.56399  Biso   1.000  H
  H32      1.0000 0.04725  0.25341  0.52849  Biso   1.000  H
  C45      1.0000 0.56495  0.23220  0.55820  Biso   1.000  C
  H33      1.0000 0.43014  0.28171  0.57691  Biso   1.000  H
  H34      1.0000 0.58041  0.29301  0.55071  Biso   1.000  H
  N5       1.0000 0.09103  0.17621  0.54531  Biso   1.000  N
  C46      1.0000 0.39893  0.20419  0.56490  Biso   1.000  C
  H35      1.0000 0.29143  0.20570  0.52129  Biso   1.000  H
  H36      1.0000 0.62751  0.22519  0.53861  Biso   1.000  H
  H37      1.0000 0.66320  0.23091  0.57449  Biso   1.000  H
  C47      1.0000 0.06502  0.15271  0.52011  Biso   1.000  C
  C48      1.0000 0.01994  0.16781  0.57429  Biso   1.000  C
  N6       1.0000 0.45904  0.16161  0.56921  Biso   1.000  N
  H38      1.0000 0.34561  0.21271  0.58500  Biso   1.000  H
  O9       1.0000 0.10504  0.16309  0.49491  Biso   1.000  O
  C49      1.0000 0.99205  0.11099  0.52610  Biso   1.000  C
  O10      1.0000 0.01633  0.19181  0.59500  Biso   1.000  O
  C50      1.0000 0.95102  0.12670  0.58140  Biso   1.000  C
  C51      1.0000 0.50195  0.14109  0.54289  Biso   1.000  C
  C52      1.0000 0.44401  0.14460  0.59840  Biso   1.000  C
  C53      1.0000 0.98295  0.08519  0.50249  Biso   1.000  C
  C54      1.0000 0.95203  0.10040  0.55599  Biso   1.000  C
  C55      1.0000 0.91302  0.11391  0.60981  Biso   1.000  C
  O11      1.0000 0.54920  0.15699  0.51920  Biso   1.000  O
  C56      1.0000 0.48302  0.09669  0.54389  Biso   1.000  C
  O12      1.0000 0.42696  0.16501  0.62041  Biso   1.000  O
  C57      1.0000 0.43693  0.10061  0.59919  Biso   1.000  C
  H39      1.0000 0.99754  0.09421  0.48210  Biso   1.000  H
  C58      1.0000 0.95102  0.04429  0.50890  Biso   1.000  C
  C59      1.0000 0.91504  0.05859  0.56201  Biso   1.000  C
  C60      1.0000 0.88094  0.07460  0.61681  Biso   1.000  C
  H40      1.0000 0.90825  0.13269  0.62581  Biso   1.000  H
  C61      1.0000 0.49993  0.07439  0.51819  Biso   1.000  C
  C62      1.0000 0.44993  0.07950  0.57151  Biso   1.000  C
  C63      1.0000 0.39994  0.08171  0.62640  Biso   1.000  C
  H41      1.0000 0.94885  0.02559  0.49279  Biso   1.000  H
  C64      1.0000 0.92400  0.03241  0.53811  Biso   1.000  C
  C65      1.0000 0.89004  0.04721  0.59240  Biso   1.000  C
  H42      1.0000 0.85508  0.06640  0.63711  Biso   1.000  H
  C66      1.0000 0.47204  0.03361  0.51970  Biso   1.000  C
  H43      1.0000 0.53099  0.08651  0.49931  Biso   1.000  H
  C67      1.0000 0.41699  0.03730  0.57399  Biso   1.000  C
  H44      1.0000 0.39431  0.09680  0.64460  Biso   1.000  H
  C68      1.0000 0.37003  0.04149  0.62799  Biso   1.000  C
  C69      1.0000 0.91605  0.98959  0.54519  Biso   1.000  C
  C70      1.0000 0.87097  0.00410  0.59860  Biso   1.000  C
  C71      1.0000 0.42595  0.01551  0.54549  Biso   1.000  C
  H45      1.0000 0.48721  0.01831  0.50170  Biso   1.000  H
  C72      1.0000 0.37798  0.01970  0.60149  Biso   1.000  C
  H46      1.0000 0.34388  0.02910  0.64700  Biso   1.000  H
  O13      1.0000 0.92039  0.96500  0.52389  Biso   1.000  O
  N7       1.0000 0.90695  0.97809  0.57570  Biso   1.000  N
  O14      1.0000 0.84106  0.99219  0.62480  Biso   1.000  O
  C73      1.0000 0.37191  0.97320  0.54590  Biso   1.000  C
  C74      1.0000 0.31094  0.97730  0.60161  Biso   1.000  C
  C75      1.0000 0.95593  0.93719  0.58379  Biso   1.000  C
  N8       1.0000 0.29793  0.95851  0.57390  Biso   1.000  N
  O15      1.0000 0.38968  0.95200  0.52439  Biso   1.000  O
  O16      1.0000 0.27005  0.96081  0.62501  Biso   1.000  O
  C76      1.0000 0.80494  0.90620  0.57349  Biso   1.000  C
  H47      1.0000 0.96272  0.93601  0.60660  Biso   1.000  H
  C77      1.0000 0.15504  0.92449  0.57169  Biso   1.000  C
  C78      1.0000 0.86606  0.86619  0.58839  Biso   1.000  C
  H48      1.0000 0.80407  0.90390  0.55100  Biso   1.000  H
  H49      1.0000 0.67404  0.91390  0.58040  Biso   1.000  H
  H50      1.0000 0.13770  0.91859  0.54950  Biso   1.000  H
  C79      1.0000 0.21196  0.88630  0.58700  Biso   1.000  C
  H51      1.0000 0.86245  0.86879  0.61079  Biso   1.000  H
  H52      1.0000 0.77373  0.84540  0.58240  Biso   1.000  H
  C80      1.0000 0.07094  0.85440  0.57821  Biso   1.000  C
  H53      1.0000 0.34417  0.87869  0.58051  Biso   1.000  H
  H54      1.0000 0.21240  0.88981  0.60940  Biso   1.000  H
  H55      1.0000 0.10865  0.82930  0.58810  Biso   1.000  H
  H56      1.0000 0.07398  0.85050  0.55590  Biso   1.000  H
  C81      1.0000 0.25199  0.27310  0.87309  Biso   1.000  C
  C82      1.0000 0.09204  0.24329  0.87949  Biso   1.000  C
  C83      1.0000 0.42292  0.27039  0.89430  Biso   1.000  C
  H57      1.0000 0.29793  0.26930  0.85190  Biso   1.000  H
  H58      1.0000 0.19708  0.29999  0.87450  Biso   1.000  H
  C84      1.0000 0.18596  0.20231  0.87740  Biso   1.000  C
  H59      1.0000 0.03757  0.24760  0.90000  Biso   1.000  H
  H60      1.0000 0.98743  0.24580  0.86429  Biso   1.000  H
  C85      1.0000 0.50802  0.22870  0.89401  Biso   1.000  C
  H61      1.0000 0.38231  0.27720  0.91531  Biso   1.000  H
  H62      1.0000 0.52348  0.28950  0.88790  Biso   1.000  H
  N9       1.0000 0.04407  0.16781  0.87961  Biso   1.000  N
  C86      1.0000 0.34099  0.19841  0.90130  Biso   1.000  C
  H63      1.0000 0.25112  0.20051  0.85709  Biso   1.000  H
  H64      1.0000 0.61162  0.22660  0.90950  Biso   1.000  H
  H65      1.0000 0.56480  0.22301  0.87380  Biso   1.000  H
  C87      1.0000 0.02904  0.14610  0.85400  Biso   1.000  C
  C88      1.0000 0.96894  0.15949  0.90820  Biso   1.000  C
  N10      1.0000 0.41092  0.15640  0.90369  Biso   1.000  N
  H66      1.0000 0.28349  0.20581  0.92139  Biso   1.000  H
  O17      1.0000 0.06574  0.15760  0.82809  Biso   1.000  O
  C89      1.0000 0.96894  0.10311  0.85839  Biso   1.000  C
  O18      1.0000 0.96200  0.18279  0.92809  Biso   1.000  O
  C90      1.0000 0.91100  0.11691  0.91289  Biso   1.000  C
  C91      1.0000 0.47002  0.13590  0.87801  Biso   1.000  C
  C92      1.0000 0.39301  0.13909  0.93219  Biso   1.000  C
  C93      1.0000 0.98497  0.07749  0.83499  Biso   1.000  C
  C94      1.0000 0.93007  0.09041  0.88831  Biso   1.000  C
  C95      1.0000 0.86794  0.10311  0.94181  Biso   1.000  C
  O19      1.0000 0.50903  0.15330  0.85420  Biso   1.000  O
  C96      1.0000 0.46597  0.09229  0.87931  Biso   1.000  C
  O20      1.0000 0.37003  0.15920  0.95509  Biso   1.000  O
  C97      1.0000 0.39402  0.09450  0.93461  Biso   1.000  C
  H67      1.0000 0.00896  0.08710  0.81501  Biso   1.000  H
  C98      1.0000 0.96807  0.03621  0.83989  Biso   1.000  C
  C99      1.0000 0.90001  0.04830  0.89309  Biso   1.000  C
  C100     1.0000 0.84395  0.06340  0.94609  Biso   1.000  C
  H68      1.0000 0.85465  0.12089  0.95840  Biso   1.000  H
  C101     1.0000 0.49603  0.06971  0.85329  Biso   1.000  C
  C102     1.0000 0.42190  0.07310  0.90640  Biso   1.000  C
  C103     1.0000 0.35602  0.07590  0.96111  Biso   1.000  C
  H69      1.0000 0.98584  0.01799  0.82381  Biso   1.000  H
  C104     1.0000 0.92400  0.02380  0.86840  Biso   1.000  C
  C105     1.0000 0.86707  0.03591  0.92310  Biso   1.000  C
  H70      1.0000 0.80971  0.05420  0.96580  Biso   1.000  H
  C106     1.0000 0.47999  0.02851  0.85470  Biso   1.000  C
  H71      1.0000 0.52767  0.08221  0.83449  Biso   1.000  H
  C107     1.0000 0.40399  0.03120  0.90761  Biso   1.000  C
  H72      1.0000 0.34056  0.09061  0.97929  Biso   1.000  H
  C108     1.0000 0.34099  0.03591  0.96149  Biso   1.000  C
  C109     1.0000 0.92400  0.97939  0.87441  Biso   1.000  C
  C110     1.0000 0.85204  0.99171  0.92889  Biso   1.000  C
  C111     1.0000 0.43101  0.01000  0.88020  Biso   1.000  C
  H73      1.0000 0.50527  0.01339  0.83691  Biso   1.000  H
  C112     1.0000 0.35400  0.01371  0.93500  Biso   1.000  C
  H74      1.0000 0.32018  0.02279  0.98041  Biso   1.000  H
  O21      1.0000 0.95189  0.95559  0.85429  Biso   1.000  O
  N11      1.0000 0.90594  0.96801  0.90460  Biso   1.000  N
  O22      1.0000 0.80133  0.98051  0.95400  Biso   1.000  O
  C113     1.0000 0.38304  0.96639  0.88061  Biso   1.000  C
  C114     1.0000 0.29302  0.97060  0.93479  Biso   1.000  C
  C115     1.0000 0.96402  0.92711  0.91401  Biso   1.000  C
  N12      1.0000 0.29895  0.95250  0.90699  Biso   1.000  N
  O23      1.0000 0.41815  0.94651  0.85860  Biso   1.000  O
  O24      1.0000 0.24433  0.95471  0.95819  Biso   1.000  O
  C116     1.0000 0.82604  0.89500  0.90260  Biso   1.000  C
  H75      1.0000 0.96344  0.92620  0.93680  Biso   1.000  H
  C117     1.0000 0.16905  0.91641  0.90321  Biso   1.000  C
  C118     1.0000 0.88903  0.85620  0.91661  Biso   1.000  C
  H76      1.0000 0.69166  0.90119  0.90861  Biso   1.000  H
  H77      1.0000 0.83124  0.89329  0.87999  Biso   1.000  H
  H78      1.0000 0.16139  0.91060  0.88090  Biso   1.000  H
  C119     1.0000 0.22901  0.87899  0.91891  Biso   1.000  C
  H79      1.0000 0.80277  0.83499  0.90909  Biso   1.000  H
  H80      1.0000 0.87430  0.85779  0.93901  Biso   1.000  H
  C120     1.0000 0.10403  0.84549  0.90870  Biso   1.000  C
  H81      1.0000 0.36555  0.87309  0.91401  Biso   1.000  H
  H82      1.0000 0.21731  0.88229  0.94119  Biso   1.000  H
  H83      1.0000 0.14203  0.82090  0.91930  Biso   1.000  H
  H84      1.0000 0.11805  0.84130  0.88651  Biso   1.000  H
