data_image0
_cell_length_a       7.026
_cell_length_b       14.653
_cell_length_c       22.096
_cell_angle_alpha    86.35
_cell_angle_beta     87.27
_cell_angle_gamma    80.24

_symmetry_space_group_name_H-M    "P 1"
_symmetry_int_tables_number       1

loop_
  _symmetry_equiv_pos_as_xyz
  'x, y, z'

loop_
  _atom_site_label
  _atom_site_occupancy
  _atom_site_fract_x
  _atom_site_fract_y
  _atom_site_fract_z
  _atom_site_thermal_displace_type
  _atom_site_B_iso_or_equiv
  _atom_site_type_symbol
  C1       1.0000 0.83860  0.22189  0.44832  Biso   1.000  C
  C2       1.0000 0.69246  0.22379  0.39894  Biso   1.000  C
  C3       1.0000 0.03919  0.23354  0.42241  Biso   1.000  C
  H1       1.0000 0.79132  0.27227  0.47591  Biso   1.000  H
  H2       1.0000 0.84840  0.16219  0.47251  Biso   1.000  H
  C4       1.0000 0.77138  0.15005  0.35402  Biso   1.000  C
  H3       1.0000 0.66973  0.28589  0.37752  Biso   1.000  H
  H4       1.0000 0.56775  0.21118  0.41750  Biso   1.000  H
  C5       1.0000 0.11406  0.16196  0.37562  Biso   1.000  C
  H5       1.0000 0.13037  0.22678  0.45581  Biso   1.000  H
  H6       1.0000 0.03354  0.29678  0.40303  Biso   1.000  H
  N1       1.0000 0.64047  0.13806  0.30514  Biso   1.000  N
  C6       1.0000 0.96648  0.17047  0.32602  Biso   1.000  C
  H7       1.0000 0.79878  0.08940  0.37789  Biso   1.000  H
  H8       1.0000 0.24039  0.17334  0.35769  Biso   1.000  H
  H9       1.0000 0.13173  0.09876  0.39540  Biso   1.000  H
  C7       1.0000 0.60910  0.20671  0.25754  Biso   1.000  C
  C8       1.0000 0.58207  0.05040  0.30423  Biso   1.000  C
  H10      1.0000 0.94412  0.23695  0.31072  Biso   1.000  H
  N2       1.0000 0.03013  0.11490  0.27260  Biso   1.000  N
  O1       1.0000 0.63635  0.28526  0.26362  Biso   1.000  O
  C9       1.0000 0.56055  0.17588  0.19827  Biso   1.000  C
  O2       1.0000 0.56961  0.00277  0.35066  Biso   1.000  O
  C10      1.0000 0.55252  0.01829  0.24379  Biso   1.000  C
  C11      1.0000 0.06139  0.16611  0.21765  Biso   1.000  C
  C12      1.0000 0.04443  0.01818  0.27714  Biso   1.000  C
  C13      1.0000 0.54896  0.23688  0.14785  Biso   1.000  C
  C14      1.0000 0.54748  0.08132  0.19232  Biso   1.000  C
  C15      1.0000 0.54557  0.92567  0.23707  Biso   1.000  C
  O3       1.0000 0.07759  0.24731  0.21715  Biso   1.000  O
  C16      1.0000 0.06683  0.11762  0.16088  Biso   1.000  C
  O4       1.0000 0.03531  0.97715  0.32652  Biso   1.000  O
  C17      1.0000 0.05944  0.96981  0.21983  Biso   1.000  C
  C18      1.0000 0.53159  0.20452  0.09031  Biso   1.000  C
  H11      1.0000 0.55285  0.30056  0.15212  Biso   1.000  H
  C19      1.0000 0.53677  0.04870  0.13460  Biso   1.000  C
  H12      1.0000 0.54643  0.88396  0.27179  Biso   1.000  H
  C20      1.0000 0.53712  0.89329  0.17889  Biso   1.000  C
  C21      1.0000 0.06857  0.16770  0.10610  Biso   1.000  C
  C22      1.0000 0.06171  0.02140  0.16369  Biso   1.000  C
  C23      1.0000 0.05936  0.87499  0.22091  Biso   1.000  C
  C24      1.0000 0.53058  0.11171  0.08332  Biso   1.000  C
  H13      1.0000 0.52035  0.24690  0.05582  Biso   1.000  H
  C25      1.0000 0.53455  0.95332  0.12847  Biso   1.000  C
  H14      1.0000 0.53342  0.82956  0.17440  Biso   1.000  H
  C26      1.0000 0.05823  0.12352  0.05232  Biso   1.000  C
  H15      1.0000 0.07699  0.23180  0.10478  Biso   1.000  H
  C27      1.0000 0.05171  0.97726  0.10946  Biso   1.000  C
  H16      1.0000 0.06306  0.83967  0.25863  Biso   1.000  H
  C28      1.0000 0.05402  0.83100  0.16650  Biso   1.000  C
  C29      1.0000 0.53029  0.07741  0.02178  Biso   1.000  C
  C30      1.0000 0.54231  0.91731  0.06666  Biso   1.000  C
  C31      1.0000 0.04495  0.03081  0.05387  Biso   1.000  C
  H17      1.0000 0.06032  0.15782  0.01439  Biso   1.000  H
  C32      1.0000 0.04357  0.88136  0.11173  Biso   1.000  C
  H18      1.0000 0.05769  0.76581  0.16759  Biso   1.000  H
  N3       1.0000 0.56446  0.98047  0.01765  Biso   1.000  N
  O5       1.0000 0.50807  0.12956  0.97672  Biso   1.000  O
  O6       1.0000 0.53615  0.83687  0.05913  Biso   1.000  O
  C33      1.0000 0.99468  0.98980  0.99787  Biso   1.000  C
  C34      1.0000 0.00335  0.83791  0.05518  Biso   1.000  C
  C35      1.0000 0.63121  0.94574  0.95716  Biso   1.000  C
  N4       1.0000 0.95057  0.90038  0.00449  Biso   1.000  N
  O7       1.0000 0.97726  0.03554  0.95008  Biso   1.000  O
  O8       1.0000 0.99935  0.75604  0.05378  Biso   1.000  O
  H19      1.0000 0.66706  0.99991  0.93202  Biso   1.000  H
  C36      1.0000 0.48011  0.90887  0.92217  Biso   1.000  C
  C37      1.0000 0.81711  0.87225  0.96138  Biso   1.000  C
  H20      1.0000 0.45137  0.85000  0.94232  Biso   1.000  H
  H21      1.0000 0.35890  0.95433  0.92099  Biso   1.000  H
  C38      1.0000 0.56233  0.89232  0.85800  Biso   1.000  C
  C39      1.0000 0.90248  0.85655  0.89694  Biso   1.000  C
  H22      1.0000 0.77882  0.81276  0.97822  Biso   1.000  H
  H23      1.0000 0.58413  0.95204  0.83758  Biso   1.000  H
  H24      1.0000 0.46787  0.86747  0.83459  Biso   1.000  H
  C40      1.0000 0.75222  0.82433  0.85868  Biso   1.000  C
  H25      1.0000 0.93830  0.91487  0.87838  Biso   1.000  H
  H26      1.0000 0.02059  0.80884  0.89848  Biso   1.000  H
  H27      1.0000 0.80481  0.81744  0.81648  Biso   1.000  H
  H28      1.0000 0.72747  0.76293  0.87520  Biso   1.000  H
  Ne1      1.0000 0.79704  0.03425  0.14950  Biso   1.000  Ne
  He1      1.0000 0.79529  0.87848  0.20450  Biso   1.000  He
  He2      1.0000 0.80753  0.17961  0.08154  Biso   1.000  He
  Ar1      1.0000 0.79889  0.03341  0.15002  Biso   1.000  Ar
