data_image0
_cell_length_a       13.311
_cell_length_b       16.961
_cell_length_c       14.964
_cell_angle_alpha    90
_cell_angle_beta     108.8
_cell_angle_gamma    90

_symmetry_space_group_name_H-M    "P 1"
_symmetry_int_tables_number       1

loop_
  _symmetry_equiv_pos_as_xyz
  'x, y, z'

loop_
  _atom_site_label
  _atom_site_occupancy
  _atom_site_fract_x
  _atom_site_fract_y
  _atom_site_fract_z
  _atom_site_thermal_displace_type
  _atom_site_B_iso_or_equiv
  _atom_site_type_symbol
  C1       1.0000 0.37275  0.43181  0.36532  Biso   1.000  C
  C2       1.0000 0.25283  0.42480  0.30659  Biso   1.000  C
  N1       1.0000 0.42589  0.41041  0.29840  Biso   1.000  N
  H1       1.0000 0.39184  0.39609  0.41968  Biso   1.000  H
  N2       1.0000 0.38444  0.51300  0.39469  Biso   1.000  N
  N3       1.0000 0.25472  0.39962  0.21517  Biso   1.000  N
  H2       1.0000 0.21588  0.38689  0.33440  Biso   1.000  H
  N4       1.0000 0.21464  0.50422  0.30920  Biso   1.000  N
  C3       1.0000 0.35657  0.38252  0.21467  Biso   1.000  C
  C4       1.0000 0.53661  0.38748  0.32699  Biso   1.000  C
  C5       1.0000 0.28966  0.55109  0.36864  Biso   1.000  C
  C6       1.0000 0.47482  0.53882  0.47410  Biso   1.000  C
  C7       1.0000 0.16210  0.37333  0.13992  Biso   1.000  C
  C8       1.0000 0.10289  0.52420  0.27073  Biso   1.000  C
  O1       1.0000 0.37941  0.34892  0.15269  Biso   1.000  O
  H3       1.0000 0.55244  0.35499  0.38311  Biso   1.000  H
  H4       1.0000 0.54864  0.35588  0.27743  Biso   1.000  H
  N5       1.0000 0.60733  0.45298  0.34612  Biso   1.000  N
  O2       1.0000 0.27462  0.61960  0.39264  Biso   1.000  O
  H5       1.0000 0.45529  0.58581  0.50149  Biso   1.000  H
  H6       1.0000 0.49224  0.49802  0.52218  Biso   1.000  H
  N6       1.0000 0.56774  0.55539  0.44650  Biso   1.000  N
  H7       1.0000 0.11320  0.34862  0.16731  Biso   1.000  H
  H8       1.0000 0.18373  0.33371  0.10300  Biso   1.000  H
  N7       1.0000 0.10704  0.43647  0.07709  Biso   1.000  N
  N8       1.0000 0.07119  0.54419  0.17161  Biso   1.000  N
  H9       1.0000 0.06088  0.47981  0.27920  Biso   1.000  H
  H10      1.0000 0.08815  0.56848  0.30553  Biso   1.000  H
  C9       1.0000 0.67280  0.46807  0.29501  Biso   1.000  C
  C10      1.0000 0.64094  0.49372  0.43641  Biso   1.000  C
  C11      1.0000 0.61542  0.62880  0.46323  Biso   1.000  C
  C12      1.0000 0.02779  0.48948  0.09163  Biso   1.000  C
  C13      1.0000 0.13678  0.45929  0.99993  Biso   1.000  C
  C14      1.0000 0.05704  0.62148  0.14232  Biso   1.000  C
  N9       1.0000 0.74554  0.52467  0.34068  Biso   1.000  N
  O3       1.0000 0.66963  0.43818  0.22053  Biso   1.000  O
  C15      1.0000 0.74020  0.54230  0.43542  Biso   1.000  C
  H11      1.0000 0.65829  0.45652  0.48928  Biso   1.000  H
  N10      1.0000 0.71394  0.62107  0.45088  Biso   1.000  N
  O4       1.0000 0.57786  0.68640  0.48603  Biso   1.000  O
  C16      1.0000 0.99912  0.54549  0.00318  Biso   1.000  C
  C17      1.0000 0.93706  0.44272  0.10497  Biso   1.000  C
  N11      1.0000 0.08040  0.52420  0.95920  Biso   1.000  N
  O5       1.0000 0.20107  0.42350  0.97148  Biso   1.000  O
  N12      1.0000 0.01647  0.62373  0.04567  Biso   1.000  N
  O6       1.0000 0.07778  0.67891  0.19561  Biso   1.000  O
  C18      1.0000 0.83634  0.54678  0.31322  Biso   1.000  C
  H12      1.0000 0.80440  0.52467  0.48491  Biso   1.000  H
  C19      1.0000 0.78421  0.68752  0.46069  Biso   1.000  C
  C20      1.0000 0.88854  0.53800  0.93371  Biso   1.000  C
  H13      1.0000 0.88540  0.47821  0.11457  Biso   1.000  H
  H14      1.0000 0.96346  0.40900  0.15898  Biso   1.000  H
  H15      1.0000 0.90467  0.41130  0.04977  Biso   1.000  H
  C21      1.0000 0.08961  0.55368  0.87180  Biso   1.000  C
  C22      1.0000 0.00270  0.69790  0.99647  Biso   1.000  C
  H16      1.0000 0.84648  0.50728  0.26988  Biso   1.000  H
  H17      1.0000 0.89904  0.54637  0.36892  Biso   1.000  H
  N13      1.0000 0.82758  0.62408  0.26832  Biso   1.000  N
  H18      1.0000 0.85582  0.67113  0.49599  Biso   1.000  H
  H19      1.0000 0.76378  0.72808  0.49719  Biso   1.000  H
  N14      1.0000 0.78409  0.72101  0.37160  Biso   1.000  N
  H20      1.0000 0.87897  0.48600  0.90689  Biso   1.000  H
  H21      1.0000 0.87870  0.57620  0.88437  Biso   1.000  H
  H22      1.0000 0.83752  0.54690  0.96562  Biso   1.000  H
  H23      1.0000 0.01919  0.56559  0.82902  Biso   1.000  H
  H24      1.0000 0.11994  0.51288  0.84293  Biso   1.000  H
  N15      1.0000 0.15509  0.62408  0.88479  Biso   1.000  N
  H25      1.0000 0.94197  0.69341  0.93957  Biso   1.000  H
  H26      1.0000 0.98562  0.73769  0.03600  Biso   1.000  H
  N16      1.0000 0.09251  0.72578  0.97021  Biso   1.000  N
  C23      1.0000 0.78670  0.63009  0.17331  Biso   1.000  C
  C24      1.0000 0.85342  0.69860  0.31661  Biso   1.000  C
  C25      1.0000 0.71753  0.78168  0.33179  Biso   1.000  C
  C26      1.0000 0.25059  0.62402  0.86679  Biso   1.000  C
  C27      1.0000 0.11187  0.70338  0.88451  Biso   1.000  C
  C28      1.0000 0.16480  0.78109  0.02337  Biso   1.000  C
  N17      1.0000 0.78499  0.70751  0.14952  Biso   1.000  N
  O7       1.0000 0.76053  0.57609  0.11683  Biso   1.000  O
  C29      1.0000 0.82049  0.76063  0.23070  Biso   1.000  C
  C30      1.0000 0.97128  0.70149  0.37838  Biso   1.000  C
  N18      1.0000 0.73424  0.80437  0.25061  Biso   1.000  N
  O8       1.0000 0.65513  0.81298  0.36610  Biso   1.000  O
  N19      1.0000 0.28219  0.70202  0.86898  Biso   1.000  N
  O9       1.0000 0.29571  0.56630  0.84950  Biso   1.000  O
  H27      1.0000 0.04949  0.71222  0.82888  Biso   1.000  H
  C31      1.0000 0.20599  0.75609  0.88303  Biso   1.000  C
  O10      1.0000 0.16311  0.81169  0.09502  Biso   1.000  O
  N20      1.0000 0.23582  0.79659  0.97409  Biso   1.000  N
  C32      1.0000 0.74271  0.73421  0.05167  Biso   1.000  C
  C33      1.0000 0.90729  0.81552  0.22540  Biso   1.000  C
  H28      1.0000 0.98649  0.75172  0.40958  Biso   1.000  H
  H29      1.0000 0.98533  0.66028  0.42483  Biso   1.000  H
  H30      1.0000 0.01531  0.69430  0.33941  Biso   1.000  H
  C34      1.0000 0.67908  0.87359  0.19787  Biso   1.000  C
  C35      1.0000 0.37538  0.72602  0.84420  Biso   1.000  C
  H31      1.0000 0.18368  0.79412  0.83100  Biso   1.000  H
  C36      1.0000 0.30617  0.86339  0.99781  Biso   1.000  C
  H32      1.0000 0.78177  0.78061  0.04398  Biso   1.000  H
  H33      1.0000 0.75460  0.69330  0.01087  Biso   1.000  H
  N21      1.0000 0.63099  0.75302  0.02139  Biso   1.000  N
  H34      1.0000 0.92771  0.84912  0.27990  Biso   1.000  H
  H35      1.0000 0.88213  0.84718  0.16942  Biso   1.000  H
  H36      1.0000 0.96765  0.78527  0.22343  Biso   1.000  H
  H37      1.0000 0.65736  0.90761  0.24037  Biso   1.000  H
  H38      1.0000 0.72809  0.90301  0.17472  Biso   1.000  H
  N22      1.0000 0.58650  0.85278  0.11881  Biso   1.000  N
  H39      1.0000 0.39766  0.68251  0.81300  Biso   1.000  H
  H40      1.0000 0.35606  0.76959  0.80001  Biso   1.000  H
  N23      1.0000 0.46369  0.74990  0.92559  Biso   1.000  N
  H41      1.0000 0.29089  0.89370  0.04687  Biso   1.000  H
  N24      1.0000 0.41735  0.84199  0.02993  Biso   1.000  N
  H42      1.0000 0.29236  0.89700  0.94268  Biso   1.000  H
  C37      1.0000 0.55739  0.70851  0.95468  Biso   1.000  C
  C38      1.0000 0.59230  0.83321  0.02781  Biso   1.000  C
  C39      1.0000 0.48312  0.86410  0.11817  Biso   1.000  C
  C40      1.0000 0.47412  0.82778  0.96329  Biso   1.000  C
  O11      1.0000 0.57340  0.64412  0.92503  Biso   1.000  O
  H43      1.0000 0.63192  0.87271  0.00487  Biso   1.000  H
  O12      1.0000 0.45503  0.88922  0.18164  Biso   1.000  O
  H44      1.0000 0.45729  0.86758  0.91331  Biso   1.000  H
  O13      1.0000 0.34491  0.31301  0.63393  Biso   1.000  O
  C41      1.0000 0.28251  0.28171  0.66824  Biso   1.000  C
  N25      1.0000 0.21595  0.22098  0.62842  Biso   1.000  N
  N26      1.0000 0.26587  0.30440  0.74942  Biso   1.000  N
  C42      1.0000 0.21583  0.18749  0.53933  Biso   1.000  C
  C43      1.0000 0.14662  0.19857  0.68341  Biso   1.000  C
  C44      1.0000 0.17955  0.26060  0.76933  Biso   1.000  C
  C45      1.0000 0.32093  0.37362  0.80208  Biso   1.000  C
  N27      1.0000 0.28614  0.12110  0.54907  Biso   1.000  N
  H45      1.0000 0.14422  0.17110  0.50404  Biso   1.000  H
  H46      1.0000 0.23626  0.22811  0.50284  Biso   1.000  H
  C46      1.0000 0.02873  0.20152  0.62157  Biso   1.000  C
  N28      1.0000 0.17245  0.12411  0.73170  Biso   1.000  N
  C47      1.0000 0.09274  0.31549  0.77462  Biso   1.000  C
  N29      1.0000 0.21505  0.20748  0.85051  Biso   1.000  N
  H47      1.0000 0.34265  0.40758  0.75958  Biso   1.000  H
  H48      1.0000 0.27195  0.40298  0.82531  Biso   1.000  H
  N30      1.0000 0.41353  0.35281  0.88122  Biso   1.000  N
  C48      1.0000 0.38462  0.12882  0.53679  Biso   1.000  C
  C49      1.0000 0.25984  0.04227  0.56460  Biso   1.000  C
  H49      1.0000 0.01355  0.25170  0.59044  Biso   1.000  H
  H50      1.0000 0.01471  0.16031  0.57519  Biso   1.000  H
  H51      1.0000 0.98473  0.19433  0.66061  Biso   1.000  H
  C50      1.0000 0.16370  0.04681  0.68680  Biso   1.000  C
  C51      1.0000 0.21334  0.13012  0.82672  Biso   1.000  C
  H52      1.0000 0.07232  0.34909  0.72012  Biso   1.000  H
  H53      1.0000 0.11791  0.34721  0.83060  Biso   1.000  H
  H54      1.0000 0.03246  0.28530  0.77660  Biso   1.000  H
  C52      1.0000 0.25730  0.23418  0.94828  Biso   1.000  C
  C53      1.0000 0.51696  0.36413  0.88178  Biso   1.000  C
  C54      1.0000 0.40774  0.33318  0.97221  Biso   1.000  C
  O14      1.0000 0.42218  0.18643  0.51399  Biso   1.000  O
  N31      1.0000 0.43230  0.05542  0.55352  Biso   1.000  N
  C55      1.0000 0.35910  0.99369  0.56362  Biso   1.000  C
  H55      1.0000 0.19564  0.02470  0.51512  Biso   1.000  H
  N32      1.0000 0.25457  0.02470  0.65934  Biso   1.000  N
  H56      1.0000 0.15353  0.00731  0.73008  Biso   1.000  H
  H57      1.0000 0.10100  0.04640  0.63110  Biso   1.000  H
  O15      1.0000 0.23951  0.07612  0.88319  Biso   1.000  O
  H58      1.0000 0.21827  0.28058  0.95604  Biso   1.000  H
  H59      1.0000 0.24542  0.19333  0.98908  Biso   1.000  H
  N33      1.0000 0.36904  0.25299  0.97863  Biso   1.000  N
  N34      1.0000 0.58276  0.34202  0.97009  Biso   1.000  N
  O16      1.0000 0.54501  0.38919  0.81839  Biso   1.000  O
  H60      1.0000 0.36817  0.37268  0.99508  Biso   1.000  H
  C56      1.0000 0.52592  0.32781  0.03673  Biso   1.000  C
  C57      1.0000 0.52522  0.03879  0.52592  Biso   1.000  C
  H61      1.0000 0.34172  0.95649  0.51067  Biso   1.000  H
  N35      1.0000 0.39271  0.95301  0.65391  Biso   1.000  N
  C58      1.0000 0.32724  0.96810  0.70501  Biso   1.000  C
  C59      1.0000 0.44265  0.20848  0.04534  Biso   1.000  C
  C60      1.0000 0.69387  0.36342  0.00221  Biso   1.000  C
  H62      1.0000 0.54275  0.36761  0.08671  Biso   1.000  H
  N36      1.0000 0.53635  0.24993  0.07443  Biso   1.000  N
  H63      1.0000 0.54475  0.08579  0.49853  Biso   1.000  H
  N37      1.0000 0.61567  0.01297  0.60534  Biso   1.000  N
  H64      1.0000 0.50778  0.99800  0.47778  Biso   1.000  H
  C61      1.0000 0.46342  0.88751  0.67304  Biso   1.000  C
  O17      1.0000 0.33040  0.93821  0.77949  Biso   1.000  O
  O18      1.0000 0.42664  0.14410  0.07499  Biso   1.000  O
  H65      1.0000 0.70912  0.39373  0.95308  Biso   1.000  H
  H66      1.0000 0.70768  0.39703  0.05735  Biso   1.000  H
  N38      1.0000 0.76421  0.29662  0.02593  Biso   1.000  N
  C62      1.0000 0.62466  0.22599  0.15582  Biso   1.000  C
  C63      1.0000 0.71045  0.05112  0.63139  Biso   1.000  C
  C64      1.0000 0.62736  0.93178  0.63470  Biso   1.000  C
  N39      1.0000 0.57415  0.91038  0.70163  Biso   1.000  N
  H67      1.0000 0.44760  0.85502  0.61691  Biso   1.000  H
  H68      1.0000 0.45140  0.85590  0.72259  Biso   1.000  H
  C65      1.0000 0.83521  0.28112  0.97659  Biso   1.000  C
  C66      1.0000 0.79405  0.25612  0.11700  Biso   1.000  C
  H69      1.0000 0.60238  0.18248  0.18703  Biso   1.000  H
  H70      1.0000 0.64397  0.26962  0.20001  Biso   1.000  H
  N40      1.0000 0.71785  0.20199  0.13105  Biso   1.000  N
  N41      1.0000 0.78540  0.00419  0.69083  Biso   1.000  N
  O19      1.0000 0.72542  0.11963  0.60738  Biso   1.000  O
  H71      1.0000 0.60824  0.89611  0.58028  Biso   1.000  H
  C67      1.0000 0.74720  0.92483  0.69344  Biso   1.000  C
  C68      1.0000 0.64345  0.88250  0.78528  Biso   1.000  C
  N42      1.0000 0.90753  0.22581  0.02981  Biso   1.000  N
  O20      1.0000 0.83692  0.31172  0.90501  Biso   1.000  O
  C69      1.0000 0.88817  0.20341  0.11551  Biso   1.000  C
  H72      1.0000 0.81635  0.29409  0.16902  Biso   1.000  H
  C70      1.0000 0.74945  0.12399  0.13323  Biso   1.000  C
  C71      1.0000 0.89715  0.02417  0.72930  Biso   1.000  C
  H73      1.0000 0.78416  0.88692  0.66562  Biso   1.000  H
  N43      1.0000 0.74529  0.89959  0.78479  Biso   1.000  N
  O21      1.0000 0.62063  0.84889  0.84733  Biso   1.000  O
  C72      1.0000 0.99731  0.19792  0.00348  Biso   1.000  C
  N44      1.0000 0.84495  0.12411  0.11523  Biso   1.000  N
  H74      1.0000 0.95054  0.21219  0.17114  Biso   1.000  H
  O22      1.0000 0.70433  0.06633  0.15053  Biso   1.000  O
  H75      1.0000 0.91189  0.06851  0.69450  Biso   1.000  H
  N45      1.0000 0.92885  0.04422  0.82841  Biso   1.000  N
  H76      1.0000 0.93916  0.97978  0.72083  Biso   1.000  H
  C73      1.0000 0.83794  0.87330  0.86011  Biso   1.000  C
  N46      1.0000 0.98354  0.12370  0.95428  Biso   1.000  N
  H77      1.0000 0.01442  0.23772  0.96402  Biso   1.000  H
  H78      1.0000 0.05804  0.19338  0.06038  Biso   1.000  H
  C74      1.0000 0.91043  0.05371  0.12822  Biso   1.000  C
  C75      1.0000 0.94307  0.12151  0.85771  Biso   1.000  C
  C76      1.0000 0.97225  0.98951  0.90839  Biso   1.000  C
  H79      1.0000 0.88684  0.84859  0.83272  Biso   1.000  H
  H80      1.0000 0.81638  0.83368  0.89703  Biso   1.000  H
  N47      1.0000 0.89308  0.93650  0.92294  Biso   1.000  N
  C77      1.0000 0.00096  0.04552  0.99678  Biso   1.000  C
  N48      1.0000 0.91964  0.02417  0.04083  Biso   1.000  N
  H81      1.0000 0.98084  0.06562  0.17100  Biso   1.000  H
  H82      1.0000 0.88017  0.01291  0.15709  Biso   1.000  H
  O23      1.0000 0.92226  0.17888  0.80441  Biso   1.000  O
  C78      1.0000 0.06295  0.94269  0.89498  Biso   1.000  C
  C79      1.0000 0.86326  0.95932  0.00009  Biso   1.000  C
  C80      1.0000 0.11157  0.03803  0.06631  Biso   1.000  C
  H83      1.0000 0.11462  0.97819  0.88538  Biso   1.000  H
  H84      1.0000 0.03655  0.90903  0.84098  Biso   1.000  H
  H85      1.0000 0.09535  0.91133  0.95019  Biso   1.000  H
  O24      1.0000 0.79897  0.92347  0.02854  Biso   1.000  O
  H86      1.0000 0.12107  0.98603  0.09314  Biso   1.000  H
  H87      1.0000 0.12131  0.07617  0.11559  Biso   1.000  H
  H88      1.0000 0.16252  0.04687  0.03440  Biso   1.000  H
