data_image0
_cell_length_a       15.169
_cell_length_b       15.637
_cell_length_c       18.838
_cell_angle_alpha    99.51
_cell_angle_beta     111.21
_cell_angle_gamma    100.26

_symmetry_space_group_name_H-M    "P 1"
_symmetry_int_tables_number       1

loop_
  _symmetry_equiv_pos_as_xyz
  'x, y, z'

loop_
  _atom_site_label
  _atom_site_occupancy
  _atom_site_fract_x
  _atom_site_fract_y
  _atom_site_fract_z
  _atom_site_thermal_displace_type
  _atom_site_B_iso_or_equiv
  _atom_site_type_symbol
  C1       1.0000 0.70395  0.18816  0.23567  Biso   1.000  C
  C2       1.0000 0.79739  0.26380  0.26043  Biso   1.000  C
  C3       1.0000 0.79736  0.26378  0.26037  Biso   1.000  C
  H1       1.0000 0.68219  0.15787  0.17950  Biso   1.000  H
  H2       1.0000 0.65163  0.21521  0.24096  Biso   1.000  H
  C4       1.0000 0.71623  0.11858  0.28307  Biso   1.000  C
  H3       1.0000 0.68220  0.15794  0.17950  Biso   1.000  H
  H4       1.0000 0.65170  0.21521  0.24096  Biso   1.000  H
  C5       1.0000 0.77632  0.34223  0.22491  Biso   1.000  C
  H5       1.0000 0.82210  0.28724  0.31860  Biso   1.000  H
  C6       1.0000 0.88050  0.23167  0.24490  Biso   1.000  C
  H6       1.0000 0.82208  0.28718  0.31860  Biso   1.000  H
  C7       1.0000 0.70406  0.18824  0.23573  Biso   1.000  C
  H7       1.0000 0.76147  0.08528  0.27207  Biso   1.000  H
  H8       1.0000 0.74608  0.14931  0.33989  Biso   1.000  H
  C8       1.0000 0.61869  0.05213  0.26408  Biso   1.000  C
  C9       1.0000 0.61868  0.05206  0.26408  Biso   1.000  C
  C10      1.0000 0.70789  0.32842  0.14839  Biso   1.000  C
  C11      1.0000 0.82311  0.43142  0.26708  Biso   1.000  C
  C12      1.0000 0.82305  0.43142  0.26708  Biso   1.000  C
  C13      1.0000 0.86372  0.16740  0.17850  Biso   1.000  C
  C14      1.0000 0.97806  0.27019  0.29737  Biso   1.000  C
  C15      1.0000 0.86366  0.16740  0.17850  Biso   1.000  C
  C16      1.0000 0.97815  0.27021  0.29742  Biso   1.000  C
  H9       1.0000 0.59259  0.01690  0.20879  Biso   1.000  H
  C17      1.0000 0.62833  0.98763  0.31789  Biso   1.000  C
  C18      1.0000 0.62825  0.98756  0.31789  Biso   1.000  C
  H10      1.0000 0.57122  0.08602  0.26943  Biso   1.000  H
  H11      1.0000 0.57119  0.08600  0.26937  Biso   1.000  H
  C19      1.0000 0.68309  0.39629  0.11298  Biso   1.000  C
  H12      1.0000 0.67597  0.26822  0.11851  Biso   1.000  H
  O1       1.0000 0.89054  0.45392  0.34353  Biso   1.000  O
  O2       1.0000 0.89046  0.45385  0.34353  Biso   1.000  O
  C20      1.0000 0.80068  0.50063  0.23361  Biso   1.000  C
  O3       1.0000 0.99646  0.33281  0.36482  Biso   1.000  O
  C21      1.0000 0.05353  0.24594  0.28143  Biso   1.000  C
  C22      1.0000 0.05349  0.24586  0.28137  Biso   1.000  C
  H13      1.0000 0.79766  0.13977  0.14298  Biso   1.000  H
  C23      1.0000 0.93709  0.14034  0.16021  Biso   1.000  C
  C24      1.0000 0.93708  0.14027  0.16021  Biso   1.000  C
  C25      1.0000 0.52738  0.93709  0.31048  Biso   1.000  C
  C26      1.0000 0.68926  0.92282  0.30760  Biso   1.000  C
  H14      1.0000 0.66328  0.02564  0.37312  Biso   1.000  H
  H15      1.0000 0.66335  0.02564  0.37312  Biso   1.000  H
  C27      1.0000 0.60648  0.37632  0.02900  Biso   1.000  C
  C28      1.0000 0.73247  0.48420  0.15792  Biso   1.000  C
  C29      1.0000 0.60647  0.37626  0.02900  Biso   1.000  C
  H16      1.0000 0.92398  0.41622  0.34989  Biso   1.000  H
  H17      1.0000 0.83300  0.56081  0.26319  Biso   1.000  H
  H18      1.0000 0.05720  0.35123  0.39153  Biso   1.000  H
  H19      1.0000 0.05717  0.35122  0.39147  Biso   1.000  H
  C30      1.0000 0.03382  0.18233  0.21367  Biso   1.000  C
  H20      1.0000 0.11939  0.27332  0.31719  Biso   1.000  H
  C31      1.0000 0.03375  0.18226  0.21367  Biso   1.000  C
  C32      1.0000 0.91716  0.06530  0.08957  Biso   1.000  C
  C33      1.0000 0.91722  0.06530  0.08957  Biso   1.000  C
  C34      1.0000 0.50811  0.92830  0.37682  Biso   1.000  C
  C35      1.0000 0.45048  0.89983  0.23761  Biso   1.000  C
  C36      1.0000 0.50808  0.92828  0.37676  Biso   1.000  C
  C37      1.0000 0.74741  0.89752  0.37282  Biso   1.000  C
  C38      1.0000 0.68971  0.88571  0.23573  Biso   1.000  C
  C39      1.0000 0.74738  0.89750  0.37276  Biso   1.000  C
  C40      1.0000 0.68968  0.88569  0.23567  Biso   1.000  C
  O4       1.0000 0.71489  0.55748  0.12757  Biso   1.000  O
  C41      1.0000 0.65433  0.36525  0.97112  Biso   1.000  C
  C42      1.0000 0.65430  0.36523  0.97106  Biso   1.000  C
  H21      1.0000 0.58142  0.43100  0.02453  Biso   1.000  H
  C43      1.0000 0.51814  0.29902  0.01229  Biso   1.000  C
  H22      1.0000 0.58139  0.43099  0.02447  Biso   1.000  H
  C44      1.0000 0.51806  0.29896  0.01229  Biso   1.000  C
  O5       1.0000 0.10797  0.15705  0.19756  Biso   1.000  O
  H23      1.0000 0.97232  0.08073  0.07281  Biso   1.000  H
  C45      1.0000 0.92197  0.97658  0.11410  Biso   1.000  C
  C46      1.0000 0.82240  0.05442  0.01782  Biso   1.000  C
  C47      1.0000 0.82237  0.05440  0.01776  Biso   1.000  C
  O6       1.0000 0.57928  0.96203  0.45234  Biso   1.000  O
  C48      1.0000 0.41590  0.88590  0.36853  Biso   1.000  C
  C49      1.0000 0.41588  0.88588  0.36847  Biso   1.000  C
  H24      1.0000 0.46298  0.90333  0.19209  Biso   1.000  H
  C50      1.0000 0.35598  0.85747  0.22696  Biso   1.000  C
  H25      1.0000 0.46297  0.90326  0.19209  Biso   1.000  H
  C51      1.0000 0.80138  0.83598  0.36418  Biso   1.000  C
  O7       1.0000 0.74905  0.93535  0.44493  Biso   1.000  O
  C52      1.0000 0.74393  0.82481  0.22502  Biso   1.000  C
  C53      1.0000 0.74383  0.82479  0.22496  Biso   1.000  C
  H26      1.0000 0.65076  0.90270  0.19079  Biso   1.000  H
  H27      1.0000 0.75047  0.60498  0.16168  Biso   1.000  H
  C54      1.0000 0.68985  0.43865  0.94713  Biso   1.000  C
  C55      1.0000 0.66948  0.28264  0.94177  Biso   1.000  C
  C56      1.0000 0.68976  0.43864  0.94707  Biso   1.000  C
  H28      1.0000 0.49538  0.31007  0.05529  Biso   1.000  H
  C57      1.0000 0.43274  0.28688  0.93430  Biso   1.000  C
  C58      1.0000 0.43268  0.28688  0.93430  Biso   1.000  C
  H29      1.0000 0.53913  0.24261  0.01253  Biso   1.000  H
  H30      1.0000 0.53910  0.24260  0.01247  Biso   1.000  H
  H31      1.0000 0.16209  0.18572  0.23396  Biso   1.000  H
  C59      1.0000 0.84290  0.92490  0.12269  Biso   1.000  C
  C60      1.0000 0.00475  0.94304  0.12863  Biso   1.000  C
  C61      1.0000 0.00464  0.94296  0.12857  Biso   1.000  C
  H32      1.0000 0.81300  0.00050  0.97742  Biso   1.000  H
  C62      1.0000 0.81880  0.13342  0.98089  Biso   1.000  C
  H33      1.0000 0.81299  0.00044  0.97742  Biso   1.000  H
  H34      1.0000 0.76682  0.04359  0.03382  Biso   1.000  H
  H35      1.0000 0.76679  0.04357  0.03376  Biso   1.000  H
  H36      1.0000 0.62583  0.93790  0.45752  Biso   1.000  H
  H37      1.0000 0.62576  0.93790  0.45752  Biso   1.000  H
  C63      1.0000 0.34037  0.85030  0.29537  Biso   1.000  C
  H38      1.0000 0.40407  0.88118  0.41411  Biso   1.000  H
  C64      1.0000 0.27433  0.81999  0.14492  Biso   1.000  C
  C65      1.0000 0.27423  0.81997  0.14486  Biso   1.000  C
  H39      1.0000 0.83966  0.81840  0.40888  Biso   1.000  H
  C66      1.0000 0.80006  0.80080  0.29272  Biso   1.000  C
  H40      1.0000 0.78610  0.91532  0.47969  Biso   1.000  H
  C67      1.0000 0.74957  0.78910  0.14668  Biso   1.000  C
  O8       1.0000 0.67428  0.51999  0.97342  Biso   1.000  O
  C68      1.0000 0.74047  0.42987  0.89978  Biso   1.000  C
  H41      1.0000 0.64388  0.23145  0.95618  Biso   1.000  H
  C69      1.0000 0.71926  0.27113  0.89308  Biso   1.000  C
  C70      1.0000 0.34302  0.21835  0.92578  Biso   1.000  C
  H42      1.0000 0.41685  0.34519  0.93072  Biso   1.000  H
  C71      1.0000 0.34295  0.21835  0.92578  Biso   1.000  C
  H43      1.0000 0.45188  0.26708  0.89049  Biso   1.000  H
  H44      1.0000 0.41676  0.34517  0.93066  Biso   1.000  H
  C72      1.0000 0.84016  0.84329  0.14186  Biso   1.000  C
  H45      1.0000 0.78684  0.94757  0.11469  Biso   1.000  H
  C73      1.0000 0.00539  0.86231  0.14839  Biso   1.000  C
  O9       1.0000 0.08764  0.98753  0.12239  Biso   1.000  O
  C74      1.0000 0.72999  0.11164  0.90466  Biso   1.000  C
  H46      1.0000 0.87861  0.15016  0.97100  Biso   1.000  H
  H47      1.0000 0.81725  0.18555  0.01776  Biso   1.000  H
  H48      1.0000 0.81736  0.18563  0.01782  Biso   1.000  H
  O10      1.0000 0.24949  0.81178  0.29225  Biso   1.000  O
  C75      1.0000 0.28069  0.72893  0.10692  Biso   1.000  C
  C76      1.0000 0.26999  0.88841  0.09528  Biso   1.000  C
  C77      1.0000 0.28065  0.72885  0.10687  Biso   1.000  C
  H49      1.0000 0.21145  0.80930  0.15209  Biso   1.000  H
  O11      1.0000 0.85441  0.74114  0.28384  Biso   1.000  O
  H50      1.0000 0.75753  0.72693  0.14562  Biso   1.000  H
  C78      1.0000 0.65699  0.78172  0.07422  Biso   1.000  C
  H51      1.0000 0.75743  0.72691  0.14557  Biso   1.000  H
  C79      1.0000 0.65696  0.78170  0.07416  Biso   1.000  C
  H52      1.0000 0.69504  0.53258  0.02270  Biso   1.000  H
  C80      1.0000 0.75610  0.34926  0.87331  Biso   1.000  C
  H53      1.0000 0.76537  0.48117  0.88508  Biso   1.000  H
  C81      1.0000 0.72567  0.18001  0.85508  Biso   1.000  C
  H54      1.0000 0.32993  0.23425  0.97347  Biso   1.000  H
  H55      1.0000 0.35744  0.15885  0.92319  Biso   1.000  H
  C82      1.0000 0.25034  0.21095  0.85326  Biso   1.000  C
  H56      1.0000 0.32986  0.23425  0.97347  Biso   1.000  H
  H57      1.0000 0.35737  0.15885  0.92319  Biso   1.000  H
  C83      1.0000 0.25041  0.21095  0.85326  Biso   1.000  C
  C84      1.0000 0.92476  0.81240  0.15498  Biso   1.000  C
  H58      1.0000 0.06201  0.84038  0.15762  Biso   1.000  H
  H59      1.0000 0.06198  0.84037  0.15756  Biso   1.000  H
  H60      1.0000 0.10773  0.04001  0.15139  Biso   1.000  H
  H61      1.0000 0.72625  0.05340  0.87231  Biso   1.000  H
  H62      1.0000 0.67119  0.10393  0.91678  Biso   1.000  H
  H63      1.0000 0.72617  0.05333  0.87231  Biso   1.000  H
  H64      1.0000 0.22897  0.75897  0.26390  Biso   1.000  H
  C85      1.0000 0.24391  0.65081  0.12669  Biso   1.000  C
  C86      1.0000 0.33053  0.71742  0.05823  Biso   1.000  C
  C87      1.0000 0.24384  0.65081  0.12669  Biso   1.000  C
  C88      1.0000 0.33043  0.71741  0.05817  Biso   1.000  C
  H65      1.0000 0.27376  0.94667  0.12769  Biso   1.000  H
  H66      1.0000 0.32882  0.89614  0.08322  Biso   1.000  H
  C89      1.0000 0.18120  0.86658  0.01911  Biso   1.000  C
  H67      1.0000 0.32878  0.89606  0.08316  Biso   1.000  H
  H68      1.0000 0.88558  0.73231  0.32777  Biso   1.000  H
  C90      1.0000 0.56727  0.71319  0.06570  Biso   1.000  C
  H69      1.0000 0.67009  0.76582  0.02653  Biso   1.000  H
  H70      1.0000 0.67006  0.76580  0.02647  Biso   1.000  H
  H71      1.0000 0.64264  0.84121  0.07681  Biso   1.000  H
  O12      1.0000 0.80636  0.33995  0.82597  Biso   1.000  O
  H72      1.0000 0.78850  0.19077  0.84791  Biso   1.000  H
  C91      1.0000 0.64400  0.14258  0.77298  Biso   1.000  C
  C92      1.0000 0.64399  0.14251  0.77298  Biso   1.000  C
  C93      1.0000 0.25608  0.17526  0.77498  Biso   1.000  C
  H73      1.0000 0.24249  0.27314  0.85438  Biso   1.000  H
  C94      1.0000 0.15976  0.15676  0.85808  Biso   1.000  C
  O13      1.0000 0.93183  0.73200  0.17362  Biso   1.000  O
  O14      1.0000 0.93173  0.73199  0.17356  Biso   1.000  O
  O15      1.0000 0.19358  0.66011  0.17403  Biso   1.000  O
  C95      1.0000 0.25944  0.57018  0.10016  Biso   1.000  C
  H74      1.0000 0.35613  0.76861  0.04382  Biso   1.000  H
  C96      1.0000 0.34567  0.63475  0.02888  Biso   1.000  C
  H75      1.0000 0.35607  0.76861  0.04382  Biso   1.000  H
  C97      1.0000 0.17761  0.94565  0.98218  Biso   1.000  C
  H76      1.0000 0.18272  0.81443  0.98218  Biso   1.000  H
  H77      1.0000 0.12140  0.84990  0.02900  Biso   1.000  H
  C98      1.0000 0.48201  0.70104  0.98771  Biso   1.000  C
  H78      1.0000 0.58316  0.65488  0.06928  Biso   1.000  H
  H79      1.0000 0.54814  0.73299  0.10951  Biso   1.000  H
  H80      1.0000 0.82336  0.38955  0.81668  Biso   1.000  H
  C99      1.0000 0.65955  0.14975  0.70458  Biso   1.000  C
  C100     1.0000 0.54946  0.10024  0.76239  Biso   1.000  C
  C101     1.0000 0.19988  0.19926  0.70728  Biso   1.000  C
  C102     1.0000 0.31030  0.11436  0.76427  Biso   1.000  C
  C103     1.0000 0.07525  0.18767  0.84502  Biso   1.000  C
  C104     1.0000 0.15711  0.07517  0.87731  Biso   1.000  C
  C105     1.0000 0.07516  0.18765  0.84497  Biso   1.000  C
  H81      1.0000 0.91895  0.73040  0.21326  Biso   1.000  H
  H82      1.0000 0.17656  0.61050  0.18327  Biso   1.000  H
  C106     1.0000 0.31016  0.56141  0.05287  Biso   1.000  C
  H83      1.0000 0.23455  0.51888  0.11486  Biso   1.000  H
  C107     1.0000 0.39359  0.62374  0.97100  Biso   1.000  C
  C108     1.0000 0.39353  0.62374  0.97100  Biso   1.000  C
  C109     1.0000 0.08292  0.93476  0.91043  Biso   1.000  C
  C110     1.0000 0.08282  0.93474  0.91037  Biso   1.000  C
  H84      1.0000 0.23326  0.95648  0.96618  Biso   1.000  H
  H85      1.0000 0.18701  0.99956  0.02258  Biso   1.000  H
  H86      1.0000 0.18694  0.99956  0.02258  Biso   1.000  H
  H87      1.0000 0.46095  0.75745  0.98747  Biso   1.000  H
  H88      1.0000 0.50462  0.68993  0.94471  Biso   1.000  H
  H89      1.0000 0.50469  0.68993  0.94471  Biso   1.000  H
  O16      1.0000 0.75052  0.18828  0.70775  Biso   1.000  O
  C111     1.0000 0.58410  0.11410  0.63147  Biso   1.000  C
  O17      1.0000 0.75051  0.18822  0.70775  Biso   1.000  O
  C112     1.0000 0.47263  0.06297  0.68952  Biso   1.000  C
  C113     1.0000 0.47260  0.06295  0.68946  Biso   1.000  C
  H90      1.0000 0.53697  0.09674  0.80791  Biso   1.000  H
  C114     1.0000 0.19863  0.16409  0.63582  Biso   1.000  C
  O18      1.0000 0.14554  0.25893  0.71616  Biso   1.000  O
  C115     1.0000 0.19859  0.16401  0.63576  Biso   1.000  C
  C116     1.0000 0.31068  0.07725  0.69240  Biso   1.000  C
  H91      1.0000 0.34919  0.09737  0.80921  Biso   1.000  H
  C117     1.0000 0.99462  0.13775  0.85161  Biso   1.000  C
  O19      1.0000 0.06819  0.26806  0.82638  Biso   1.000  O
  C118     1.0000 0.07804  0.02348  0.88590  Biso   1.000  C
  H92      1.0000 0.21310  0.05250  0.88531  Biso   1.000  H
  C119     1.0000 0.07796  0.02342  0.88590  Biso   1.000  C
  H93      1.0000 0.21309  0.05243  0.88531  Biso   1.000  H
  O20      1.0000 0.32567  0.48007  0.02658  Biso   1.000  O
  H94      1.0000 0.41866  0.56906  0.97547  Biso   1.000  H
  C120     1.0000 0.31696  0.60376  0.88696  Biso   1.000  C
  H95      1.0000 0.02776  0.91934  0.92719  Biso   1.000  H
  C121     1.0000 0.06299  0.85973  0.83979  Biso   1.000  C
  C122     1.0000 0.06292  0.85973  0.83979  Biso   1.000  C
  H96      1.0000 0.59593  0.11882  0.58589  Biso   1.000  H
  C123     1.0000 0.49190  0.07177  0.62318  Biso   1.000  C
  H97      1.0000 0.59586  0.11882  0.58589  Biso   1.000  H
  H98      1.0000 0.77103  0.24103  0.73610  Biso   1.000  H
  H99      1.0000 0.77096  0.24103  0.73610  Biso   1.000  H
  C124     1.0000 0.37169  0.01244  0.68211  Biso   1.000  C
  C125     1.0000 0.25260  0.10254  0.62718  Biso   1.000  C
  H100     1.0000 0.16035  0.18167  0.59112  Biso   1.000  H
  H101     1.0000 0.16025  0.18165  0.59106  Biso   1.000  H
  H102     1.0000 0.11441  0.26774  0.67217  Biso   1.000  H
  C126     1.0000 0.99527  0.05703  0.87137  Biso   1.000  C
  H103     1.0000 0.93799  0.15962  0.84238  Biso   1.000  H
  H104     1.0000 0.08097  0.26965  0.78668  Biso   1.000  H
  H105     1.0000 0.30510  0.46748  0.97730  Biso   1.000  H
  H106     1.0000 0.30504  0.46748  0.97730  Biso   1.000  H
  C127     1.0000 0.26754  0.51587  0.84208  Biso   1.000  C
  C128     1.0000 0.29212  0.67164  0.85161  Biso   1.000  C
  C129     1.0000 0.96623  0.81772  0.78627  Biso   1.000  C
  C130     1.0000 0.13636  0.83266  0.82150  Biso   1.000  C
  O21      1.0000 0.42067  0.03803  0.54766  Biso   1.000  O
  H107     1.0000 0.33673  0.97443  0.62688  Biso   1.000  H
  C131     1.0000 0.38136  0.94792  0.73587  Biso   1.000  C
  O22      1.0000 0.25087  0.06470  0.55501  Biso   1.000  O
  O23      1.0000 0.91231  0.01254  0.87761  Biso   1.000  O
  O24      1.0000 0.91237  0.01254  0.87761  Biso   1.000  O
  O25      1.0000 0.28516  0.44257  0.87237  Biso   1.000  O
  C132     1.0000 0.19933  0.49944  0.76639  Biso   1.000  C
  O26      1.0000 0.28510  0.44257  0.87237  Biso   1.000  O
  C133     1.0000 0.22376  0.65784  0.77509  Biso   1.000  C
  H108     1.0000 0.32405  0.73185  0.88149  Biso   1.000  H
  O27      1.0000 0.89210  0.84301  0.80244  Biso   1.000  O
  C134     1.0000 0.94655  0.75412  0.71857  Biso   1.000  C
  O28      1.0000 0.89204  0.84301  0.80244  Biso   1.000  O
  C135     1.0000 0.11956  0.76833  0.75510  Biso   1.000  C
  H109     1.0000 0.20242  0.86030  0.85702  Biso   1.000  H
  H110     1.0000 0.20231  0.86021  0.85696  Biso   1.000  H
  H111     1.0000 0.37418  0.06216  0.54248  Biso   1.000  H
  C136     1.0000 0.28378  0.88149  0.71693  Biso   1.000  C
  H112     1.0000 0.40749  0.98317  0.79121  Biso   1.000  H
  H113     1.0000 0.42886  0.91405  0.73057  Biso   1.000  H
  C137     1.0000 0.28374  0.88140  0.71687  Biso   1.000  C
  H114     1.0000 0.21391  0.08475  0.52031  Biso   1.000  H
  H115     1.0000 0.89241  0.96006  0.84861  Biso   1.000  H
  H116     1.0000 0.89235  0.96006  0.84861  Biso   1.000  H
  H117     1.0000 0.24961  0.39508  0.83832  Biso   1.000  H
  H118     1.0000 0.24951  0.39507  0.83826  Biso   1.000  H
  C138     1.0000 0.17694  0.56863  0.73287  Biso   1.000  C
  H119     1.0000 0.16702  0.43925  0.73681  Biso   1.000  H
  C139     1.0000 0.20262  0.73627  0.73957  Biso   1.000  C
  H120     1.0000 0.83795  0.81433  0.76598  Biso   1.000  H
  H121     1.0000 0.88063  0.72675  0.68281  Biso   1.000  H
  C140     1.0000 0.02192  0.72986  0.70258  Biso   1.000  C
  H122     1.0000 0.25400  0.85076  0.66011  Biso   1.000  H
  C141     1.0000 0.29602  0.81183  0.76427  Biso   1.000  C
  H123     1.0000 0.23851  0.91477  0.72787  Biso   1.000  H
  H124     1.0000 0.25393  0.85076  0.66011  Biso   1.000  H
  H125     1.0000 0.23857  0.91477  0.72787  Biso   1.000  H
  O29      1.0000 0.10954  0.54615  0.65647  Biso   1.000  O
  H126     1.0000 0.17798  0.71282  0.68140  Biso   1.000  H
  H127     1.0000 0.17792  0.71282  0.68140  Biso   1.000  H
  O30      1.0000 0.00361  0.66725  0.63518  Biso   1.000  O
  O31      1.0000 0.00351  0.66717  0.63512  Biso   1.000  O
  H128     1.0000 0.34835  0.78484  0.75898  Biso   1.000  H
  H129     1.0000 0.31781  0.84213  0.82050  Biso   1.000  H
  H130     1.0000 0.31788  0.84213  0.82050  Biso   1.000  H
  H131     1.0000 0.07610  0.58385  0.65011  Biso   1.000  H
  H132     1.0000 0.07603  0.58385  0.65011  Biso   1.000  H
  H133     1.0000 0.94281  0.64883  0.60847  Biso   1.000  H
  Ne1      1.0000 0.50632  0.00658  0.00989  Biso   1.000  Ne
  He1      1.0000 0.45230  0.07164  0.06294  Biso   1.000  He
  He2      1.0000 0.76433  0.02968  0.18114  Biso   1.000  He
  He3      1.0000 0.52178  0.80985  0.17273  Biso   1.000  He
  He4      1.0000 0.76412  0.25542  0.06097  Biso   1.000  He
  He5      1.0000 0.56428  0.90421  0.91614  Biso   1.000  He
  He6      1.0000 0.21522  0.75686  0.91278  Biso   1.000  He
  He7      1.0000 0.51191  0.20873  0.84266  Biso   1.000  He
  He8      1.0000 0.19174  0.96910  0.79137  Biso   1.000  He
  Ar1      1.0000 0.49977  0.00270  0.00041  Biso   1.000  Ar
